MODEL 1
REMARK VINA RESULT:      -9.5      0.000      0.000
REMARK  Name = 
REMARK  8 active torsions:
REMARK  status: ('A' for Active; 'I' for Inactive)
REMARK    1  A    between atoms: C_1  and  C_2
REMARK    2  A    between atoms: C_4  and  C_5
REMARK    3  A    between atoms: N_7  and  C_8
REMARK    4  A    between atoms: C_12  and  C_13
REMARK    5  A    between atoms: C_13  and  C_14
REMARK    6  A    between atoms: C_14  and  C_15
REMARK    7  A    between atoms: N_19  and  C_20
REMARK    8  A    between atoms: C_27  and  C_28
REMARK                            x       y       z     vdW  Elec       q    Type
REMARK                         _______ _______ _______ _____ _____    ______ ____
ROOT
ATOM      1  C   UNL     1       3.136   5.631  19.442  0.00  0.00    +0.000 A 
ATOM      2  C   UNL     1       3.104   4.354  20.001  0.00  0.00    +0.000 A 
ATOM      3  C   UNL     1       3.947   3.351  19.527  0.00  0.00    +0.000 A 
ATOM      4  C   UNL     1       4.852   3.620  18.501  0.00  0.00    +0.000 A 
ATOM      5  C   UNL     1       4.909   4.888  17.896  0.00  0.00    +0.000 A 
ATOM      6  C   UNL     1       4.007   5.873  18.369  0.00  0.00    +0.000 A 
ENDROOT
BRANCH   5   7
ATOM      7  C   UNL     1       5.989   5.212  16.836  0.00  0.00    +0.000 C 
ATOM      8  C   UNL     1       7.355   5.220  17.544  0.00  0.00    +0.000 C 
ATOM      9  C   UNL     1       7.527   6.641  18.036  0.00  0.00    +0.000 C 
ATOM     10  O   UNL     1       6.725   7.484  17.205  0.00  0.00    +0.000 OA
ATOM     11  C   UNL     1       5.943   6.662  16.315  0.00  0.00    +0.000 C 
BRANCH   7  12
ATOM     12  C   UNL     1       6.058   4.206  15.645  0.00  0.00    +0.000 C 
BRANCH  12  13
ATOM     13  C   UNL     1       6.826   4.684  14.459  0.00  0.00    +0.000 A 
ATOM     14  N   UNL     1       7.863   5.498  14.481  0.00  0.00    +0.000 NA
ATOM     15  N   UNL     1       8.315   5.661  13.198  0.00  0.00    +0.000 NA
ATOM     16  C   UNL     1       7.563   4.929  12.416  0.00  0.00    +0.000 A 
ATOM     17  N   UNL     1       6.618   4.289  13.158  0.00  0.00    +0.000 N 
ATOM     18  C   UNL     1       5.655   3.363  12.627  0.00  0.00    +0.000 C 
ENDBRANCH  12  13
ENDBRANCH   7  12
ENDBRANCH   5   7
BRANCH   1  21
ATOM     19  C   UNL     1       2.096   7.884  19.249  0.00  0.00    +0.000 C 
ATOM     20  O   UNL     1       2.508   8.173  18.127  0.00  0.00    +0.000 OA
ATOM     21  N   UNL     1       2.352   6.704  19.929  0.00  0.00    +0.000 N 
ATOM     22  H   UNL     1       1.829   6.567  20.789  0.00  0.00    +0.000 HD
BRANCH  19  26
ATOM     23  C   UNL     1      -0.085   9.557  23.379  0.00  0.00    +0.000 C 
ATOM     24  C   UNL     1       0.183   9.605  21.906  0.00  0.00    +0.000 A 
ATOM     25  C   UNL     1       1.027   8.711  21.304  0.00  0.00    +0.000 A 
ATOM     26  C   UNL     1       1.188   8.854  19.940  0.00  0.00    +0.000 A 
ATOM     27  N   UNL     1       0.583   9.811  19.195  0.00  0.00    +0.000 NA
ATOM     28  C   UNL     1      -0.229  10.652  19.871  0.00  0.00    +0.000 A 
ATOM     29  N   UNL     1      -0.442  10.567  21.205  0.00  0.00    +0.000 NA
BRANCH  28  30
ATOM     30  C   UNL     1      -0.966  11.763  19.163  0.00  0.00    +0.000 C 
ATOM     31  C   UNL     1      -2.132  11.389  18.270  0.00  0.00    +0.000 C 
ATOM     32  C   UNL     1      -2.365  12.194  19.513  0.00  0.00    +0.000 C 
ENDBRANCH  28  30
ENDBRANCH  19  26
ENDBRANCH   1  21
TORSDOF 6
ENDMDL
MODEL 2
REMARK VINA RESULT:      -9.4      1.239      1.471
REMARK  Name = 
REMARK  8 active torsions:
REMARK  status: ('A' for Active; 'I' for Inactive)
REMARK    1  A    between atoms: C_1  and  C_2
REMARK    2  A    between atoms: C_4  and  C_5
REMARK    3  A    between atoms: N_7  and  C_8
REMARK    4  A    between atoms: C_12  and  C_13
REMARK    5  A    between atoms: C_13  and  C_14
REMARK    6  A    between atoms: C_14  and  C_15
REMARK    7  A    between atoms: N_19  and  C_20
REMARK    8  A    between atoms: C_27  and  C_28
REMARK                            x       y       z     vdW  Elec       q    Type
REMARK                         _______ _______ _______ _____ _____    ______ ____
ROOT
ATOM      1  C   UNL     1       2.676   5.957  18.898  0.00  0.00    +0.000 A 
ATOM      2  C   UNL     1       2.037   4.723  19.012  0.00  0.00    +0.000 A 
ATOM      3  C   UNL     1       2.563   3.593  18.391  0.00  0.00    +0.000 A 
ATOM      4  C   UNL     1       3.750   3.677  17.666  0.00  0.00    +0.000 A 
ATOM      5  C   UNL     1       4.421   4.902  17.509  0.00  0.00    +0.000 A 
ATOM      6  C   UNL     1       3.836   6.043  18.114  0.00  0.00    +0.000 A 
ENDROOT
BRANCH   5   7
ATOM      7  C   UNL     1       5.794   4.969  16.797  0.00  0.00    +0.000 C 
ATOM      8  C   UNL     1       6.867   4.517  17.802  0.00  0.00    +0.000 C 
ATOM      9  C   UNL     1       7.273   5.782  18.528  0.00  0.00    +0.000 C 
ATOM     10  O   UNL     1       6.982   6.885  17.666  0.00  0.00    +0.000 OA
ATOM     11  C   UNL     1       6.280   6.402  16.503  0.00  0.00    +0.000 C 
BRANCH   7  12
ATOM     12  C   UNL     1       5.911   4.080  15.520  0.00  0.00    +0.000 C 
BRANCH  12  13
ATOM     13  C   UNL     1       6.771   4.641  14.437  0.00  0.00    +0.000 A 
ATOM     14  N   UNL     1       7.776   5.480  14.599  0.00  0.00    +0.000 NA
ATOM     15  N   UNL     1       8.341   5.722  13.375  0.00  0.00    +0.000 NA
ATOM     16  C   UNL     1       7.688   5.013  12.489  0.00  0.00    +0.000 A 
ATOM     17  N   UNL     1       6.698   4.311  13.105  0.00  0.00    +0.000 N 
ATOM     18  C   UNL     1       5.818   3.389  12.438  0.00  0.00    +0.000 C 
ENDBRANCH  12  13
ENDBRANCH   7  12
ENDBRANCH   5   7
BRANCH   1  21
ATOM     19  C   UNL     1       1.729   8.259  18.943  0.00  0.00    +0.000 C 
ATOM     20  O   UNL     1       1.605   8.423  17.731  0.00  0.00    +0.000 OA
ATOM     21  N   UNL     1       2.225   7.123  19.562  0.00  0.00    +0.000 N 
ATOM     22  H   UNL     1       2.136   7.097  20.574  0.00  0.00    +0.000 HD
BRANCH  19  26
ATOM     23  C   UNL     1      -0.182   9.721  23.281  0.00  0.00    +0.000 C 
ATOM     24  C   UNL     1       0.353   9.990  21.909  0.00  0.00    +0.000 A 
ATOM     25  C   UNL     1       0.790   8.974  21.102  0.00  0.00    +0.000 A 
ATOM     26  C   UNL     1       1.255   9.348  19.855  0.00  0.00    +0.000 A 
ATOM     27  N   UNL     1       1.311  10.628  19.413  0.00  0.00    +0.000 NA
ATOM     28  C   UNL     1       0.863  11.565  20.276  0.00  0.00    +0.000 A 
ATOM     29  N   UNL     1       0.386  11.273  21.508  0.00  0.00    +0.000 NA
BRANCH  28  30
ATOM     30  C   UNL     1       0.869  13.030  19.909  0.00  0.00    +0.000 C 
ATOM     31  C   UNL     1       2.208  13.725  19.777  0.00  0.00    +0.000 C 
ATOM     32  C   UNL     1       1.328  13.555  18.577  0.00  0.00    +0.000 C 
ENDBRANCH  28  30
ENDBRANCH  19  26
ENDBRANCH   1  21
TORSDOF 6
ENDMDL
MODEL 3
REMARK VINA RESULT:      -9.1      1.513      2.141
REMARK  Name = 
REMARK  8 active torsions:
REMARK  status: ('A' for Active; 'I' for Inactive)
REMARK    1  A    between atoms: C_1  and  C_2
REMARK    2  A    between atoms: C_4  and  C_5
REMARK    3  A    between atoms: N_7  and  C_8
REMARK    4  A    between atoms: C_12  and  C_13
REMARK    5  A    between atoms: C_13  and  C_14
REMARK    6  A    between atoms: C_14  and  C_15
REMARK    7  A    between atoms: N_19  and  C_20
REMARK    8  A    between atoms: C_27  and  C_28
REMARK                            x       y       z     vdW  Elec       q    Type
REMARK                         _______ _______ _______ _____ _____    ______ ____
ROOT
ATOM      1  C   UNL     1       2.654   6.950  18.675  0.00  0.00    +0.000 A 
ATOM      2  C   UNL     1       2.389   6.035  19.693  0.00  0.00    +0.000 A 
ATOM      3  C   UNL     1       3.203   4.920  19.875  0.00  0.00    +0.000 A 
ATOM      4  C   UNL     1       4.310   4.717  19.053  0.00  0.00    +0.000 A 
ATOM      5  C   UNL     1       4.609   5.603  18.004  0.00  0.00    +0.000 A 
ATOM      6  C   UNL     1       3.735   6.702  17.816  0.00  0.00    +0.000 A 
ENDROOT
BRANCH   5   7
ATOM      7  C   UNL     1       5.900   5.433  17.166  0.00  0.00    +0.000 C 
ATOM      8  C   UNL     1       6.985   4.851  18.089  0.00  0.00    +0.000 C 
ATOM      9  C   UNL     1       7.647   6.059  18.717  0.00  0.00    +0.000 C 
ATOM     10  O   UNL     1       7.445   7.166  17.836  0.00  0.00    +0.000 OA
ATOM     11  C   UNL     1       6.568   6.763  16.765  0.00  0.00    +0.000 C 
BRANCH   7  12
ATOM     12  C   UNL     1       5.756   4.497  15.926  0.00  0.00    +0.000 C 
BRANCH  12  13
ATOM     13  C   UNL     1       6.643   4.835  14.775  0.00  0.00    +0.000 A 
ATOM     14  N   UNL     1       7.729   5.581  14.824  0.00  0.00    +0.000 NA
ATOM     15  N   UNL     1       8.288   5.617  13.573  0.00  0.00    +0.000 NA
ATOM     16  C   UNL     1       7.549   4.876  12.787  0.00  0.00    +0.000 A 
ATOM     17  N   UNL     1       6.508   4.356  13.493  0.00  0.00    +0.000 N 
ATOM     18  C   UNL     1       5.527   3.455  12.953  0.00  0.00    +0.000 C 
ENDBRANCH  12  13
ENDBRANCH   7  12
ENDBRANCH   5   7
BRANCH   1  21
ATOM     19  C   UNL     1       1.381   8.922  19.501  0.00  0.00    +0.000 C 
ATOM     20  O   UNL     1       1.493   8.713  20.707  0.00  0.00    +0.000 OA
ATOM     21  N   UNL     1       1.903   8.134  18.488  0.00  0.00    +0.000 N 
ATOM     22  H   UNL     1       1.834   8.518  17.549  0.00  0.00    +0.000 HD
BRANCH  19  26
ATOM     23  C   UNL     1       1.220  13.857  19.019  0.00  0.00    +0.000 C 
ATOM     24  C   UNL     1       0.635  12.489  18.858  0.00  0.00    +0.000 A 
ATOM     25  C   UNL     1       1.316  11.370  19.258  0.00  0.00    +0.000 A 
ATOM     26  C   UNL     1       0.668  10.165  19.063  0.00  0.00    +0.000 A 
ATOM     27  N   UNL     1      -0.559  10.039  18.502  0.00  0.00    +0.000 NA
ATOM     28  C   UNL     1      -1.155  11.194  18.134  0.00  0.00    +0.000 A 
ATOM     29  N   UNL     1      -0.586  12.409  18.302  0.00  0.00    +0.000 NA
BRANCH  28  30
ATOM     30  C   UNL     1      -2.525  11.196  17.498  0.00  0.00    +0.000 C 
ATOM     31  C   UNL     1      -2.656  10.662  16.086  0.00  0.00    +0.000 C 
ATOM     32  C   UNL     1      -3.321   9.950  17.224  0.00  0.00    +0.000 C 
ENDBRANCH  28  30
ENDBRANCH  19  26
ENDBRANCH   1  21
TORSDOF 6
ENDMDL
MODEL 4
REMARK VINA RESULT:      -9.0      3.159      9.907
REMARK  Name = 
REMARK  8 active torsions:
REMARK  status: ('A' for Active; 'I' for Inactive)
REMARK    1  A    between atoms: C_1  and  C_2
REMARK    2  A    between atoms: C_4  and  C_5
REMARK    3  A    between atoms: N_7  and  C_8
REMARK    4  A    between atoms: C_12  and  C_13
REMARK    5  A    between atoms: C_13  and  C_14
REMARK    6  A    between atoms: C_14  and  C_15
REMARK    7  A    between atoms: N_19  and  C_20
REMARK    8  A    between atoms: C_27  and  C_28
REMARK                            x       y       z     vdW  Elec       q    Type
REMARK                         _______ _______ _______ _____ _____    ______ ____
ROOT
ATOM      1  C   UNL     1       0.378  10.156  19.151  0.00  0.00    +0.000 A 
ATOM      2  C   UNL     1      -0.707  10.376  18.303  0.00  0.00    +0.000 A 
ATOM      3  C   UNL     1      -1.288  11.638  18.208  0.00  0.00    +0.000 A 
ATOM      4  C   UNL     1      -0.775  12.705  18.944  0.00  0.00    +0.000 A 
ATOM      5  C   UNL     1       0.307  12.529  19.824  0.00  0.00    +0.000 A 
ATOM      6  C   UNL     1       0.846  11.223  19.933  0.00  0.00    +0.000 A 
ENDROOT
BRANCH   5   7
ATOM      7  C   UNL     1       0.940  13.738  20.553  0.00  0.00    +0.000 C 
ATOM      8  C   UNL     1       0.814  14.962  19.630  0.00  0.00    +0.000 C 
ATOM      9  C   UNL     1       2.061  14.929  18.772  0.00  0.00    +0.000 C 
ATOM     10  O   UNL     1       3.061  14.207  19.494  0.00  0.00    +0.000 OA
ATOM     11  C   UNL     1       2.474  13.656  20.690  0.00  0.00    +0.000 C 
BRANCH   7  12
ATOM     12  C   UNL     1       0.288  14.088  21.927  0.00  0.00    +0.000 C 
BRANCH  12  13
ATOM     13  C   UNL     1      -0.825  13.186  22.344  0.00  0.00    +0.000 A 
ATOM     14  N   UNL     1      -0.701  12.062  23.022  0.00  0.00    +0.000 NA
ATOM     15  N   UNL     1      -1.952  11.551  23.248  0.00  0.00    +0.000 NA
ATOM     16  C   UNL     1      -2.820  12.380  22.725  0.00  0.00    +0.000 A 
ATOM     17  N   UNL     1      -2.165  13.427  22.152  0.00  0.00    +0.000 N 
ATOM     18  C   UNL     1      -2.812  14.549  21.529  0.00  0.00    +0.000 C 
ENDBRANCH  12  13
ENDBRANCH   7  12
ENDBRANCH   5   7
BRANCH   1  21
ATOM     19  C   UNL     1       1.985   8.443  18.328  0.00  0.00    +0.000 C 
ATOM     20  O   UNL     1       2.371   9.032  17.320  0.00  0.00    +0.000 OA
ATOM     21  N   UNL     1       1.050   8.914  19.236  0.00  0.00    +0.000 N 
ATOM     22  H   UNL     1       0.942   8.365  20.084  0.00  0.00    +0.000 HD
BRANCH  19  26
ATOM     23  C   UNL     1       5.309   4.888  17.367  0.00  0.00    +0.000 C 
ATOM     24  C   UNL     1       4.187   5.474  18.166  0.00  0.00    +0.000 A 
ATOM     25  C   UNL     1       3.644   6.690  17.849  0.00  0.00    +0.000 A 
ATOM     26  C   UNL     1       2.610   7.121  18.657  0.00  0.00    +0.000 A 
ATOM     27  N   UNL     1       2.132   6.431  19.721  0.00  0.00    +0.000 NA
ATOM     28  C   UNL     1       2.729   5.244  19.963  0.00  0.00    +0.000 A 
ATOM     29  N   UNL     1       3.740   4.754  19.210  0.00  0.00    +0.000 NA
BRANCH  28  30
ATOM     30  C   UNL     1       2.293   4.373  21.117  0.00  0.00    +0.000 C 
ATOM     31  C   UNL     1       1.199   3.356  20.867  0.00  0.00    +0.000 C 
ATOM     32  C   UNL     1       2.585   2.900  21.207  0.00  0.00    +0.000 C 
ENDBRANCH  28  30
ENDBRANCH  19  26
ENDBRANCH   1  21
TORSDOF 6
ENDMDL
MODEL 5
REMARK VINA RESULT:      -9.0      2.586      9.194
REMARK  Name = 
REMARK  8 active torsions:
REMARK  status: ('A' for Active; 'I' for Inactive)
REMARK    1  A    between atoms: C_1  and  C_2
REMARK    2  A    between atoms: C_4  and  C_5
REMARK    3  A    between atoms: N_7  and  C_8
REMARK    4  A    between atoms: C_12  and  C_13
REMARK    5  A    between atoms: C_13  and  C_14
REMARK    6  A    between atoms: C_14  and  C_15
REMARK    7  A    between atoms: N_19  and  C_20
REMARK    8  A    between atoms: C_27  and  C_28
REMARK                            x       y       z     vdW  Elec       q    Type
REMARK                         _______ _______ _______ _____ _____    ______ ____
ROOT
ATOM      1  C   UNL     1       1.240   8.648  20.172  0.00  0.00    +0.000 A 
ATOM      2  C   UNL     1       1.348   8.901  21.538  0.00  0.00    +0.000 A 
ATOM      3  C   UNL     1       0.565   9.882  22.141  0.00  0.00    +0.000 A 
ATOM      4  C   UNL     1      -0.354  10.610  21.388  0.00  0.00    +0.000 A 
ATOM      5  C   UNL     1      -0.487  10.402  20.004  0.00  0.00    +0.000 A 
ATOM      6  C   UNL     1       0.356   9.429  19.412  0.00  0.00    +0.000 A 
ENDROOT
BRANCH   5   7
ATOM      7  C   UNL     1      -1.584  11.134  19.194  0.00  0.00    +0.000 C 
ATOM      8  C   UNL     1      -0.893  11.905  18.057  0.00  0.00    +0.000 C 
ATOM      9  C   UNL     1      -0.550  13.252  18.657  0.00  0.00    +0.000 C 
ATOM     10  O   UNL     1      -1.456  13.484  19.738  0.00  0.00    +0.000 OA
ATOM     11  C   UNL     1      -2.250  12.300  19.950  0.00  0.00    +0.000 C 
BRANCH   7  12
ATOM     12  C   UNL     1      -2.666  10.200  18.568  0.00  0.00    +0.000 C 
BRANCH  12  13
ATOM     13  C   UNL     1      -2.904  10.400  17.108  0.00  0.00    +0.000 A 
ATOM     14  N   UNL     1      -2.221   9.844  16.127  0.00  0.00    +0.000 NA
ATOM     15  N   UNL     1      -2.772  10.239  14.936  0.00  0.00    +0.000 NA
ATOM     16  C   UNL     1      -3.792  11.012  15.208  0.00  0.00    +0.000 A 
ATOM     17  N   UNL     1      -3.924  11.139  16.557  0.00  0.00    +0.000 N 
ATOM     18  C   UNL     1      -4.972  11.877  17.207  0.00  0.00    +0.000 C 
ENDBRANCH  12  13
ENDBRANCH   7  12
ENDBRANCH   5   7
BRANCH   1  21
ATOM     19  C   UNL     1       2.549   7.717  18.270  0.00  0.00    +0.000 C 
ATOM     20  O   UNL     1       2.536   8.710  17.544  0.00  0.00    +0.000 OA
ATOM     21  N   UNL     1       1.959   7.618  19.520  0.00  0.00    +0.000 N 
ATOM     22  H   UNL     1       2.175   6.775  20.044  0.00  0.00    +0.000 HD
BRANCH  19  26
ATOM     23  C   UNL     1       6.673   5.676  16.417  0.00  0.00    +0.000 C 
ATOM     24  C   UNL     1       5.270   5.597  16.933  0.00  0.00    +0.000 A 
ATOM     25  C   UNL     1       4.602   6.714  17.360  0.00  0.00    +0.000 A 
ATOM     26  C   UNL     1       3.311   6.513  17.807  0.00  0.00    +0.000 A 
ATOM     27  N   UNL     1       2.697   5.306  17.856  0.00  0.00    +0.000 NA
ATOM     28  C   UNL     1       3.431   4.260  17.419  0.00  0.00    +0.000 A 
ATOM     29  N   UNL     1       4.697   4.381  16.959  0.00  0.00    +0.000 NA
BRANCH  28  30
ATOM     30  C   UNL     1       2.868   2.858  17.418  0.00  0.00    +0.000 C 
ATOM     31  C   UNL     1       3.321   1.908  18.508  0.00  0.00    +0.000 C 
ATOM     32  C   UNL     1       1.891   2.351  18.442  0.00  0.00    +0.000 C 
ENDBRANCH  28  30
ENDBRANCH  19  26
ENDBRANCH   1  21
TORSDOF 6
ENDMDL
MODEL 6
REMARK VINA RESULT:      -9.0      2.593      9.235
REMARK  Name = 
REMARK  8 active torsions:
REMARK  status: ('A' for Active; 'I' for Inactive)
REMARK    1  A    between atoms: C_1  and  C_2
REMARK    2  A    between atoms: C_4  and  C_5
REMARK    3  A    between atoms: N_7  and  C_8
REMARK    4  A    between atoms: C_12  and  C_13
REMARK    5  A    between atoms: C_13  and  C_14
REMARK    6  A    between atoms: C_14  and  C_15
REMARK    7  A    between atoms: N_19  and  C_20
REMARK    8  A    between atoms: C_27  and  C_28
REMARK                            x       y       z     vdW  Elec       q    Type
REMARK                         _______ _______ _______ _____ _____    ______ ____
ROOT
ATOM      1  C   UNL     1       1.165   8.978  20.118  0.00  0.00    +0.000 A 
ATOM      2  C   UNL     1       1.256   9.104  21.504  0.00  0.00    +0.000 A 
ATOM      3  C   UNL     1       0.474  10.035  22.184  0.00  0.00    +0.000 A 
ATOM      4  C   UNL     1      -0.428  10.838  21.488  0.00  0.00    +0.000 A 
ATOM      5  C   UNL     1      -0.543  10.759  20.090  0.00  0.00    +0.000 A 
ATOM      6  C   UNL     1       0.299   9.835  19.422  0.00  0.00    +0.000 A 
ENDROOT
BRANCH   5   7
ATOM      7  C   UNL     1      -1.623  11.573  19.336  0.00  0.00    +0.000 C 
ATOM      8  C   UNL     1      -0.949  12.232  18.119  0.00  0.00    +0.000 C 
ATOM      9  C   UNL     1      -0.427  13.555  18.636  0.00  0.00    +0.000 C 
ATOM     10  O   UNL     1      -1.216  13.914  19.773  0.00  0.00    +0.000 OA
ATOM     11  C   UNL     1      -2.106  12.826  20.093  0.00  0.00    +0.000 C 
BRANCH   7  12
ATOM     12  C   UNL     1      -2.839  10.736  18.832  0.00  0.00    +0.000 C 
BRANCH  12  13
ATOM     13  C   UNL     1      -2.943  10.604  17.349  0.00  0.00    +0.000 A 
ATOM     14  N   UNL     1      -2.158   9.878  16.577  0.00  0.00    +0.000 NA
ATOM     15  N   UNL     1      -2.603   9.981  15.286  0.00  0.00    +0.000 NA
ATOM     16  C   UNL     1      -3.663  10.748  15.291  0.00  0.00    +0.000 A 
ATOM     17  N   UNL     1      -3.923  11.160  16.563  0.00  0.00    +0.000 N 
ATOM     18  C   UNL     1      -5.046  11.975  16.940  0.00  0.00    +0.000 C 
ENDBRANCH  12  13
ENDBRANCH   7  12
ENDBRANCH   5   7
BRANCH   1  21
ATOM     19  C   UNL     1       2.043   6.679  19.752  0.00  0.00    +0.000 C 
ATOM     20  O   UNL     1       1.586   6.151  20.764  0.00  0.00    +0.000 OA
ATOM     21  N   UNL     1       1.883   8.005  19.384  0.00  0.00    +0.000 N 
ATOM     22  H   UNL     1       2.211   8.248  18.454  0.00  0.00    +0.000 HD
BRANCH  19  26
ATOM     23  C   UNL     1       2.998   2.226  17.785  0.00  0.00    +0.000 C 
ATOM     24  C   UNL     1       3.214   3.703  17.891  0.00  0.00    +0.000 A 
ATOM     25  C   UNL     1       2.502   4.467  18.777  0.00  0.00    +0.000 A 
ATOM     26  C   UNL     1       2.796   5.817  18.785  0.00  0.00    +0.000 A 
ATOM     27  N   UNL     1       3.713   6.405  17.979  0.00  0.00    +0.000 NA
ATOM     28  C   UNL     1       4.365   5.577  17.134  0.00  0.00    +0.000 A 
ATOM     29  N   UNL     1       4.136   4.245  17.076  0.00  0.00    +0.000 NA
BRANCH  28  30
ATOM     30  C   UNL     1       5.413   6.101  16.182  0.00  0.00    +0.000 C 
ATOM     31  C   UNL     1       6.869   5.834  16.508  0.00  0.00    +0.000 C 
ATOM     32  C   UNL     1       6.246   5.221  15.291  0.00  0.00    +0.000 C 
ENDBRANCH  28  30
ENDBRANCH  19  26
ENDBRANCH   1  21
TORSDOF 6
ENDMDL
MODEL 7
REMARK VINA RESULT:      -8.9      2.554      9.266
REMARK  Name = 
REMARK  8 active torsions:
REMARK  status: ('A' for Active; 'I' for Inactive)
REMARK    1  A    between atoms: C_1  and  C_2
REMARK    2  A    between atoms: C_4  and  C_5
REMARK    3  A    between atoms: N_7  and  C_8
REMARK    4  A    between atoms: C_12  and  C_13
REMARK    5  A    between atoms: C_13  and  C_14
REMARK    6  A    between atoms: C_14  and  C_15
REMARK    7  A    between atoms: N_19  and  C_20
REMARK    8  A    between atoms: C_27  and  C_28
REMARK                            x       y       z     vdW  Elec       q    Type
REMARK                         _______ _______ _______ _____ _____    ______ ____
ROOT
ATOM      1  C   UNL     1       0.943   8.987  20.396  0.00  0.00    +0.000 A 
ATOM      2  C   UNL     1       1.019   9.178  21.775  0.00  0.00    +0.000 A 
ATOM      3  C   UNL     1       0.279  10.182  22.394  0.00  0.00    +0.000 A 
ATOM      4  C   UNL     1      -0.569  10.995  21.643  0.00  0.00    +0.000 A 
ATOM      5  C   UNL     1      -0.667  10.851  20.248  0.00  0.00    +0.000 A 
ATOM      6  C   UNL     1       0.134   9.852  19.642  0.00  0.00    +0.000 A 
ENDROOT
BRANCH   5   7
ATOM      7  C   UNL     1      -1.690  11.682  19.436  0.00  0.00    +0.000 C 
ATOM      8  C   UNL     1      -0.955  12.273  18.220  0.00  0.00    +0.000 C 
ATOM      9  C   UNL     1      -0.394  13.591  18.711  0.00  0.00    +0.000 C 
ATOM     10  O   UNL     1      -1.201  14.019  19.810  0.00  0.00    +0.000 OA
ATOM     11  C   UNL     1      -2.144  12.978  20.137  0.00  0.00    +0.000 C 
BRANCH   7  12
ATOM     12  C   UNL     1      -2.924  10.878  18.921  0.00  0.00    +0.000 C 
BRANCH  12  13
ATOM     13  C   UNL     1      -2.977  10.680  17.443  0.00  0.00    +0.000 A 
ATOM     14  N   UNL     1      -2.157   9.934  16.729  0.00  0.00    +0.000 NA
ATOM     15  N   UNL     1      -2.560   9.975  15.421  0.00  0.00    +0.000 NA
ATOM     16  C   UNL     1      -3.630  10.726  15.359  0.00  0.00    +0.000 A 
ATOM     17  N   UNL     1      -3.938  11.188  16.602  0.00  0.00    +0.000 N 
ATOM     18  C   UNL     1      -5.084  12.001  16.908  0.00  0.00    +0.000 C 
ENDBRANCH  12  13
ENDBRANCH   7  12
ENDBRANCH   5   7
BRANCH   1  21
ATOM     19  C   UNL     1       2.306   8.068  18.527  0.00  0.00    +0.000 C 
ATOM     20  O   UNL     1       2.432   9.102  17.875  0.00  0.00    +0.000 OA
ATOM     21  N   UNL     1       1.619   7.942  19.724  0.00  0.00    +0.000 N 
ATOM     22  H   UNL     1       1.723   7.050  20.201  0.00  0.00    +0.000 HD
BRANCH  19  26
ATOM     23  C   UNL     1       2.311   3.180  17.676  0.00  0.00    +0.000 C 
ATOM     24  C   UNL     1       2.954   4.532  17.653  0.00  0.00    +0.000 A 
ATOM     25  C   UNL     1       2.294   5.645  18.100  0.00  0.00    +0.000 A 
ATOM     26  C   UNL     1       2.996   6.833  18.034  0.00  0.00    +0.000 A 
ATOM     27  N   UNL     1       4.258   6.950  17.552  0.00  0.00    +0.000 NA
ATOM     28  C   UNL     1       4.830   5.802  17.130  0.00  0.00    +0.000 A 
ATOM     29  N   UNL     1       4.208   4.602  17.172  0.00  0.00    +0.000 NA
BRANCH  28  30
ATOM     30  C   UNL     1       6.233   5.790  16.571  0.00  0.00    +0.000 C 
ATOM     31  C   UNL     1       7.362   6.249  17.472  0.00  0.00    +0.000 C 
ATOM     32  C   UNL     1       7.299   4.824  17.011  0.00  0.00    +0.000 C 
ENDBRANCH  28  30
ENDBRANCH  19  26
ENDBRANCH   1  21
TORSDOF 6
ENDMDL
MODEL 8
REMARK VINA RESULT:      -8.9      1.530      1.703
REMARK  Name = 
REMARK  8 active torsions:
REMARK  status: ('A' for Active; 'I' for Inactive)
REMARK    1  A    between atoms: C_1  and  C_2
REMARK    2  A    between atoms: C_4  and  C_5
REMARK    3  A    between atoms: N_7  and  C_8
REMARK    4  A    between atoms: C_12  and  C_13
REMARK    5  A    between atoms: C_13  and  C_14
REMARK    6  A    between atoms: C_14  and  C_15
REMARK    7  A    between atoms: N_19  and  C_20
REMARK    8  A    between atoms: C_27  and  C_28
REMARK                            x       y       z     vdW  Elec       q    Type
REMARK                         _______ _______ _______ _____ _____    ______ ____
ROOT
ATOM      1  C   UNL     1       2.731   6.307  18.642  0.00  0.00    +0.000 A 
ATOM      2  C   UNL     1       2.435   5.120  19.311  0.00  0.00    +0.000 A 
ATOM      3  C   UNL     1       3.235   3.993  19.141  0.00  0.00    +0.000 A 
ATOM      4  C   UNL     1       4.357   4.044  18.316  0.00  0.00    +0.000 A 
ATOM      5  C   UNL     1       4.686   5.214  17.609  0.00  0.00    +0.000 A 
ATOM      6  C   UNL     1       3.827   6.329  17.767  0.00  0.00    +0.000 A 
ENDROOT
BRANCH   5   7
ATOM      7  C   UNL     1       5.992   5.299  16.782  0.00  0.00    +0.000 C 
ATOM      8  C   UNL     1       7.173   5.099  17.748  0.00  0.00    +0.000 C 
ATOM      9  C   UNL     1       7.498   6.488  18.254  0.00  0.00    +0.000 C 
ATOM     10  O   UNL     1       7.037   7.421  17.274  0.00  0.00    +0.000 OA
ATOM     11  C   UNL     1       6.309   6.711  16.252  0.00  0.00    +0.000 C 
BRANCH   7  12
ATOM     12  C   UNL     1       6.110   4.246  15.637  0.00  0.00    +0.000 C 
BRANCH  12  13
ATOM     13  C   UNL     1       6.858   4.708  14.430  0.00  0.00    +0.000 A 
ATOM     14  N   UNL     1       7.892   5.526  14.423  0.00  0.00    +0.000 NA
ATOM     15  N   UNL     1       8.323   5.669  13.130  0.00  0.00    +0.000 NA
ATOM     16  C   UNL     1       7.561   4.921  12.373  0.00  0.00    +0.000 A 
ATOM     17  N   UNL     1       6.630   4.291  13.140  0.00  0.00    +0.000 N 
ATOM     18  C   UNL     1       5.663   3.352  12.640  0.00  0.00    +0.000 C 
ENDBRANCH  12  13
ENDBRANCH   7  12
ENDBRANCH   5   7
BRANCH   1  21
ATOM     19  C   UNL     1       2.017   8.599  17.985  0.00  0.00    +0.000 C 
ATOM     20  O   UNL     1       2.674   8.699  16.951  0.00  0.00    +0.000 OA
ATOM     21  N   UNL     1       1.995   7.501  18.830  0.00  0.00    +0.000 N 
ATOM     22  H   UNL     1       1.299   7.527  19.570  0.00  0.00    +0.000 HD
BRANCH  19  26
ATOM     23  C   UNL     1       1.236  12.928  20.278  0.00  0.00    +0.000 C 
ATOM     24  C   UNL     1       0.786  11.765  19.451  0.00  0.00    +0.000 A 
ATOM     25  C   UNL     1       1.643  10.751  19.118  0.00  0.00    +0.000 A 
ATOM     26  C   UNL     1       1.107   9.730  18.357  0.00  0.00    +0.000 A 
ATOM     27  N   UNL     1      -0.177   9.690  17.927  0.00  0.00    +0.000 NA
ATOM     28  C   UNL     1      -0.951  10.733  18.299  0.00  0.00    +0.000 A 
ATOM     29  N   UNL     1      -0.498  11.763  19.050  0.00  0.00    +0.000 NA
BRANCH  28  30
ATOM     30  C   UNL     1      -2.402  10.813  17.889  0.00  0.00    +0.000 C 
ATOM     31  C   UNL     1      -2.716  11.087  16.432  0.00  0.00    +0.000 C 
ATOM     32  C   UNL     1      -3.090   9.773  17.048  0.00  0.00    +0.000 C 
ENDBRANCH  28  30
ENDBRANCH  19  26
ENDBRANCH   1  21
TORSDOF 6
ENDMDL
MODEL 9
REMARK VINA RESULT:      -8.8      2.893      9.387
REMARK  Name = 
REMARK  8 active torsions:
REMARK  status: ('A' for Active; 'I' for Inactive)
REMARK    1  A    between atoms: C_1  and  C_2
REMARK    2  A    between atoms: C_4  and  C_5
REMARK    3  A    between atoms: N_7  and  C_8
REMARK    4  A    between atoms: C_12  and  C_13
REMARK    5  A    between atoms: C_13  and  C_14
REMARK    6  A    between atoms: C_14  and  C_15
REMARK    7  A    between atoms: N_19  and  C_20
REMARK    8  A    between atoms: C_27  and  C_28
REMARK                            x       y       z     vdW  Elec       q    Type
REMARK                         _______ _______ _______ _____ _____    ______ ____
ROOT
ATOM      1  C   UNL     1       1.422   8.465  20.637  0.00  0.00    +0.000 A 
ATOM      2  C   UNL     1       1.231   8.629  22.008  0.00  0.00    +0.000 A 
ATOM      3  C   UNL     1       0.320   9.566  22.490  0.00  0.00    +0.000 A 
ATOM      4  C   UNL     1      -0.431  10.337  21.604  0.00  0.00    +0.000 A 
ATOM      5  C   UNL     1      -0.261  10.219  20.214  0.00  0.00    +0.000 A 
ATOM      6  C   UNL     1       0.706   9.290  19.756  0.00  0.00    +0.000 A 
ENDROOT
BRANCH   5   7
ATOM      7  C   UNL     1      -1.174  10.997  19.235  0.00  0.00    +0.000 C 
ATOM      8  C   UNL     1      -0.268  11.759  18.253  0.00  0.00    +0.000 C 
ATOM      9  C   UNL     1       0.004  13.087  18.929  0.00  0.00    +0.000 C 
ATOM     10  O   UNL     1      -1.072  13.335  19.837  0.00  0.00    +0.000 OA
ATOM     11  C   UNL     1      -1.928  12.176  19.883  0.00  0.00    +0.000 C 
BRANCH   7  12
ATOM     12  C   UNL     1      -2.156  10.108  18.410  0.00  0.00    +0.000 C 
BRANCH  12  13
ATOM     13  C   UNL     1      -3.373  10.810  17.910  0.00  0.00    +0.000 A 
ATOM     14  N   UNL     1      -4.337  11.319  18.652  0.00  0.00    +0.000 NA
ATOM     15  N   UNL     1      -5.252  11.918  17.826  0.00  0.00    +0.000 NA
ATOM     16  C   UNL     1      -4.823  11.785  16.597  0.00  0.00    +0.000 A 
ATOM     17  N   UNL     1      -3.644  11.104  16.594  0.00  0.00    +0.000 N 
ATOM     18  C   UNL     1      -2.868  10.824  15.417  0.00  0.00    +0.000 C 
ENDBRANCH  12  13
ENDBRANCH   7  12
ENDBRANCH   5   7
BRANCH   1  21
ATOM     19  C   UNL     1       2.096   6.113  20.182  0.00  0.00    +0.000 C 
ATOM     20  O   UNL     1       1.161   5.549  20.746  0.00  0.00    +0.000 OA
ATOM     21  N   UNL     1       2.282   7.483  20.091  0.00  0.00    +0.000 N 
ATOM     22  H   UNL     1       3.032   7.787  19.477  0.00  0.00    +0.000 HD
BRANCH  19  26
ATOM     23  C   UNL     1       3.409   1.815  18.080  0.00  0.00    +0.000 C 
ATOM     24  C   UNL     1       3.683   3.227  18.497  0.00  0.00    +0.000 A 
ATOM     25  C   UNL     1       2.733   3.980  19.134  0.00  0.00    +0.000 A 
ATOM     26  C   UNL     1       3.109   5.266  19.473  0.00  0.00    +0.000 A 
ATOM     27  N   UNL     1       4.323   5.804  19.205  0.00  0.00    +0.000 NA
ATOM     28  C   UNL     1       5.196   4.991  18.572  0.00  0.00    +0.000 A 
ATOM     29  N   UNL     1       4.902   3.719  18.217  0.00  0.00    +0.000 NA
BRANCH  28  30
ATOM     30  C   UNL     1       6.584   5.464  18.214  0.00  0.00    +0.000 C 
ATOM     31  C   UNL     1       6.911   5.672  16.749  0.00  0.00    +0.000 C 
ATOM     32  C   UNL     1       6.887   6.840  17.687  0.00  0.00    +0.000 C 
ENDBRANCH  28  30
ENDBRANCH  19  26
ENDBRANCH   1  21
TORSDOF 6
ENDMDL
