MODEL 1
REMARK VINA RESULT:      -8.6      0.000      0.000
REMARK  Name = 
REMARK  7 active torsions:
REMARK  status: ('A' for Active; 'I' for Inactive)
REMARK    1  A    between atoms: C_1  and  C_2
REMARK    2  A    between atoms: C_2  and  S_3
REMARK    3  A    between atoms: C_2  and  C_10
REMARK    4  A    between atoms: S_3  and  C_4
REMARK    5  A    between atoms: N_8  and  C_9
REMARK    6  A    between atoms: C_14  and  C_15
REMARK    7  A    between atoms: C_17  and  C_18
REMARK                            x       y       z     vdW  Elec       q    Type
REMARK                         _______ _______ _______ _____ _____    ______ ____
ROOT
ATOM      1  C   UNL     1       4.311   4.822  17.043  0.00  0.00    +0.000 A 
ATOM      2  C   UNL     1       4.839   3.967  16.063  0.00  0.00    +0.000 A 
ATOM      3  C   UNL     1       6.164   4.082  15.643  0.00  0.00    +0.000 A 
ATOM      4  C   UNL     1       6.988   5.070  16.181  0.00  0.00    +0.000 A 
ATOM      5  C   UNL     1       6.498   5.945  17.156  0.00  0.00    +0.000 A 
ATOM      6  C   UNL     1       5.166   5.805  17.579  0.00  0.00    +0.000 A 
ENDROOT
BRANCH   5   7
ATOM      7  C   UNL     1       7.338   6.995  17.721  0.00  0.00    +0.000 A 
ATOM      8  C   UNL     1       7.457   8.333  17.408  0.00  0.00    +0.000 A 
ATOM      9  C   UNL     1       8.384   8.881  18.335  0.00  0.00    +0.000 A 
ATOM     10  N   UNL     1       8.854   7.924  19.147  0.00  0.00    +0.000 NA
ATOM     11  N   UNL     1       8.193   6.816  18.776  0.00  0.00    +0.000 N 
ATOM     12  H   UNL     1       8.358   5.965  19.300  0.00  0.00    +0.000 HD
BRANCH   9  13
ATOM     13  C   UNL     1       8.804  10.275  18.451  0.00  0.00    +0.000 A 
ATOM     14  C   UNL     1       8.299  11.247  17.573  0.00  0.00    +0.000 A 
ATOM     15  C   UNL     1       8.697  12.581  17.686  0.00  0.00    +0.000 A 
ATOM     16  C   UNL     1       9.603  12.957  18.675  0.00  0.00    +0.000 A 
ATOM     17  C   UNL     1      10.111  12.001  19.554  0.00  0.00    +0.000 A 
ATOM     18  C   UNL     1       9.710  10.668  19.446  0.00  0.00    +0.000 A 
ENDBRANCH   9  13
ENDBRANCH   5   7
BRANCH   1  20
ATOM     19  C   UNL     1       2.617   5.490  18.854  0.00  0.00    +0.000 C 
ATOM     20  C   UNL     1       2.864   4.733  17.541  0.00  0.00    +0.000 C 
BRANCH  20  21
ATOM     21  S   UNL     1       2.402   2.957  17.728  0.00  0.00    +0.000 S 
BRANCH  21  22
ATOM     22  C   UNL     1       2.095   2.816  19.418  0.00  0.00    +0.000 A 
ATOM     23  N   UNL     1       0.947   2.942  20.043  0.00  0.00    +0.000 NA
ATOM     24  N   UNL     1       1.196   2.855  21.397  0.00  0.00    +0.000 NA
ATOM     25  C   UNL     1       2.486   2.655  21.551  0.00  0.00    +0.000 A 
ATOM     26  N   UNL     1       3.086   2.586  20.329  0.00  0.00    +0.000 N 
ATOM     27  C   UNL     1       4.478   2.332  20.079  0.00  0.00    +0.000 C 
ENDBRANCH  21  22
ENDBRANCH  20  21
ENDBRANCH   1  20
TORSDOF 5
ENDMDL
MODEL 2
REMARK VINA RESULT:      -8.3      6.142      8.026
REMARK  Name = 
REMARK  7 active torsions:
REMARK  status: ('A' for Active; 'I' for Inactive)
REMARK    1  A    between atoms: C_1  and  C_2
REMARK    2  A    between atoms: C_2  and  S_3
REMARK    3  A    between atoms: C_2  and  C_10
REMARK    4  A    between atoms: S_3  and  C_4
REMARK    5  A    between atoms: N_8  and  C_9
REMARK    6  A    between atoms: C_14  and  C_15
REMARK    7  A    between atoms: C_17  and  C_18
REMARK                            x       y       z     vdW  Elec       q    Type
REMARK                         _______ _______ _______ _____ _____    ______ ____
ROOT
ATOM      1  C   UNL     1       2.447   7.412  19.078  0.00  0.00    +0.000 A 
ATOM      2  C   UNL     1       2.373   8.007  17.809  0.00  0.00    +0.000 A 
ATOM      3  C   UNL     1       1.714   9.221  17.618  0.00  0.00    +0.000 A 
ATOM      4  C   UNL     1       1.096   9.861  18.692  0.00  0.00    +0.000 A 
ATOM      5  C   UNL     1       1.144   9.299  19.972  0.00  0.00    +0.000 A 
ATOM      6  C   UNL     1       1.824   8.084  20.150  0.00  0.00    +0.000 A 
ENDROOT
BRANCH   5   7
ATOM      7  C   UNL     1       0.492   9.945  21.106  0.00  0.00    +0.000 A 
ATOM      8  C   UNL     1      -0.267  11.094  21.187  0.00  0.00    +0.000 A 
ATOM      9  C   UNL     1      -0.695  11.198  22.538  0.00  0.00    +0.000 A 
ATOM     10  N   UNL     1      -0.186  10.194  23.268  0.00  0.00    +0.000 NA
ATOM     11  N   UNL     1       0.494   9.450  22.383  0.00  0.00    +0.000 N 
ATOM     12  H   UNL     1       0.928   8.595  22.713  0.00  0.00    +0.000 HD
BRANCH   9  13
ATOM     13  C   UNL     1      -1.568  12.215  23.116  0.00  0.00    +0.000 A 
ATOM     14  C   UNL     1      -2.886  11.899  23.482  0.00  0.00    +0.000 A 
ATOM     15  C   UNL     1      -3.721  12.871  24.039  0.00  0.00    +0.000 A 
ATOM     16  C   UNL     1      -3.248  14.166  24.235  0.00  0.00    +0.000 A 
ATOM     17  C   UNL     1      -1.940  14.493  23.878  0.00  0.00    +0.000 A 
ATOM     18  C   UNL     1      -1.103  13.521  23.325  0.00  0.00    +0.000 A 
ENDBRANCH   9  13
ENDBRANCH   5   7
BRANCH   1  20
ATOM     19  C   UNL     1       4.549   5.989  18.689  0.00  0.00    +0.000 C 
ATOM     20  C   UNL     1       3.162   6.082  19.341  0.00  0.00    +0.000 C 
BRANCH  20  21
ATOM     21  S   UNL     1       2.087   4.700  18.760  0.00  0.00    +0.000 S 
BRANCH  21  22
ATOM     22  C   UNL     1       2.055   3.640  20.119  0.00  0.00    +0.000 A 
ATOM     23  N   UNL     1       1.124   3.537  21.040  0.00  0.00    +0.000 NA
ATOM     24  N   UNL     1       1.571   2.640  21.987  0.00  0.00    +0.000 NA
ATOM     25  C   UNL     1       2.750   2.207  21.599  0.00  0.00    +0.000 A 
ATOM     26  N   UNL     1       3.077   2.783  20.409  0.00  0.00    +0.000 N 
ATOM     27  C   UNL     1       4.266   2.531  19.642  0.00  0.00    +0.000 C 
ENDBRANCH  21  22
ENDBRANCH  20  21
ENDBRANCH   1  20
TORSDOF 5
ENDMDL
MODEL 3
REMARK VINA RESULT:      -8.3      6.389      8.335
REMARK  Name = 
REMARK  7 active torsions:
REMARK  status: ('A' for Active; 'I' for Inactive)
REMARK    1  A    between atoms: C_1  and  C_2
REMARK    2  A    between atoms: C_2  and  S_3
REMARK    3  A    between atoms: C_2  and  C_10
REMARK    4  A    between atoms: S_3  and  C_4
REMARK    5  A    between atoms: N_8  and  C_9
REMARK    6  A    between atoms: C_14  and  C_15
REMARK    7  A    between atoms: C_17  and  C_18
REMARK                            x       y       z     vdW  Elec       q    Type
REMARK                         _______ _______ _______ _____ _____    ______ ____
ROOT
ATOM      1  C   UNL     1       2.274   7.490  19.350  0.00  0.00    +0.000 A 
ATOM      2  C   UNL     1       2.187   8.041  18.062  0.00  0.00    +0.000 A 
ATOM      3  C   UNL     1       1.485   9.224  17.828  0.00  0.00    +0.000 A 
ATOM      4  C   UNL     1       0.836   9.874  18.878  0.00  0.00    +0.000 A 
ATOM      5  C   UNL     1       0.895   9.355  20.175  0.00  0.00    +0.000 A 
ATOM      6  C   UNL     1       1.620   8.172  20.396  0.00  0.00    +0.000 A 
ENDROOT
BRANCH   5   7
ATOM      7  C   UNL     1       0.212  10.011  21.284  0.00  0.00    +0.000 A 
ATOM      8  C   UNL     1      -0.455  11.216  21.358  0.00  0.00    +0.000 A 
ATOM      9  C   UNL     1      -0.976  11.306  22.677  0.00  0.00    +0.000 A 
ATOM     10  N   UNL     1      -0.609  10.237  23.399  0.00  0.00    +0.000 NA
ATOM     11  N   UNL     1       0.076   9.471  22.536  0.00  0.00    +0.000 N 
ATOM     12  H   UNL     1       0.411   8.571  22.860  0.00  0.00    +0.000 HD
BRANCH   9  13
ATOM     13  C   UNL     1      -1.807  12.371  23.231  0.00  0.00    +0.000 A 
ATOM     14  C   UNL     1      -3.128  12.112  23.627  0.00  0.00    +0.000 A 
ATOM     15  C   UNL     1      -3.922  13.130  24.162  0.00  0.00    +0.000 A 
ATOM     16  C   UNL     1      -3.404  14.414  24.306  0.00  0.00    +0.000 A 
ATOM     17  C   UNL     1      -2.092  14.684  23.918  0.00  0.00    +0.000 A 
ATOM     18  C   UNL     1      -1.296  13.667  23.388  0.00  0.00    +0.000 A 
ENDBRANCH   9  13
ENDBRANCH   5   7
BRANCH   1  20
ATOM     19  C   UNL     1       3.957   5.737  18.520  0.00  0.00    +0.000 C 
ATOM     20  C   UNL     1       3.036   6.196  19.659  0.00  0.00    +0.000 C 
BRANCH  20  21
ATOM     21  S   UNL     1       1.822   4.871  20.075  0.00  0.00    +0.000 S 
BRANCH  21  22
ATOM     22  C   UNL     1       2.204   3.630  18.942  0.00  0.00    +0.000 A 
ATOM     23  N   UNL     1       1.679   3.433  17.755  0.00  0.00    +0.000 NA
ATOM     24  N   UNL     1       2.211   2.262  17.252  0.00  0.00    +0.000 NA
ATOM     25  C   UNL     1       3.060   1.798  18.142  0.00  0.00    +0.000 A 
ATOM     26  N   UNL     1       3.115   2.648  19.206  0.00  0.00    +0.000 N 
ATOM     27  C   UNL     1       3.960   2.510  20.360  0.00  0.00    +0.000 C 
ENDBRANCH  21  22
ENDBRANCH  20  21
ENDBRANCH   1  20
TORSDOF 5
ENDMDL
MODEL 4
REMARK VINA RESULT:      -8.2      6.018      8.711
REMARK  Name = 
REMARK  7 active torsions:
REMARK  status: ('A' for Active; 'I' for Inactive)
REMARK    1  A    between atoms: C_1  and  C_2
REMARK    2  A    between atoms: C_2  and  S_3
REMARK    3  A    between atoms: C_2  and  C_10
REMARK    4  A    between atoms: S_3  and  C_4
REMARK    5  A    between atoms: N_8  and  C_9
REMARK    6  A    between atoms: C_14  and  C_15
REMARK    7  A    between atoms: C_17  and  C_18
REMARK                            x       y       z     vdW  Elec       q    Type
REMARK                         _______ _______ _______ _____ _____    ______ ____
ROOT
ATOM      1  C   UNL     1       0.234  10.419  19.776  0.00  0.00    +0.000 A 
ATOM      2  C   UNL     1      -0.193  10.294  21.107  0.00  0.00    +0.000 A 
ATOM      3  C   UNL     1       0.214   9.220  21.898  0.00  0.00    +0.000 A 
ATOM      4  C   UNL     1       1.047   8.234  21.369  0.00  0.00    +0.000 A 
ATOM      5  C   UNL     1       1.491   8.320  20.045  0.00  0.00    +0.000 A 
ATOM      6  C   UNL     1       1.084   9.416  19.267  0.00  0.00    +0.000 A 
ENDROOT
BRANCH   5   7
ATOM      7  C   UNL     1       2.350   7.293  19.467  0.00  0.00    +0.000 A 
ATOM      8  C   UNL     1       2.855   7.139  18.192  0.00  0.00    +0.000 A 
ATOM      9  C   UNL     1       3.685   5.987  18.226  0.00  0.00    +0.000 A 
ATOM     10  N   UNL     1       3.657   5.425  19.444  0.00  0.00    +0.000 NA
ATOM     11  N   UNL     1       2.875   6.240  20.168  0.00  0.00    +0.000 N 
ATOM     12  H   UNL     1       2.752   6.031  21.153  0.00  0.00    +0.000 HD
BRANCH   9  13
ATOM     13  C   UNL     1       4.489   5.440  17.136  0.00  0.00    +0.000 A 
ATOM     14  C   UNL     1       4.737   4.061  17.056  0.00  0.00    +0.000 A 
ATOM     15  C   UNL     1       5.503   3.537  16.011  0.00  0.00    +0.000 A 
ATOM     16  C   UNL     1       6.027   4.384  15.038  0.00  0.00    +0.000 A 
ATOM     17  C   UNL     1       5.786   5.756  15.106  0.00  0.00    +0.000 A 
ATOM     18  C   UNL     1       5.017   6.281  16.146  0.00  0.00    +0.000 A 
ENDBRANCH   9  13
ENDBRANCH   5   7
BRANCH   1  20
ATOM     19  C   UNL     1       0.770  12.785  18.931  0.00  0.00    +0.000 C 
ATOM     20  C   UNL     1      -0.182  11.582  18.867  0.00  0.00    +0.000 C 
BRANCH  20  21
ATOM     21  S   UNL     1      -1.898  12.099  19.304  0.00  0.00    +0.000 S 
BRANCH  21  22
ATOM     22  C   UNL     1      -2.811  11.604  17.929  0.00  0.00    +0.000 A 
ATOM     23  N   UNL     1      -2.359  11.193  16.766  0.00  0.00    +0.000 NA
ATOM     24  N   UNL     1      -3.446  11.009  15.937  0.00  0.00    +0.000 NA
ATOM     25  C   UNL     1      -4.527  11.291  16.630  0.00  0.00    +0.000 A 
ATOM     26  N   UNL     1      -4.175  11.635  17.901  0.00  0.00    +0.000 N 
ATOM     27  C   UNL     1      -5.075  11.968  18.970  0.00  0.00    +0.000 C 
ENDBRANCH  21  22
ENDBRANCH  20  21
ENDBRANCH   1  20
TORSDOF 5
ENDMDL
MODEL 5
REMARK VINA RESULT:      -8.2      7.551      9.870
REMARK  Name = 
REMARK  7 active torsions:
REMARK  status: ('A' for Active; 'I' for Inactive)
REMARK    1  A    between atoms: C_1  and  C_2
REMARK    2  A    between atoms: C_2  and  S_3
REMARK    3  A    between atoms: C_2  and  C_10
REMARK    4  A    between atoms: S_3  and  C_4
REMARK    5  A    between atoms: N_8  and  C_9
REMARK    6  A    between atoms: C_14  and  C_15
REMARK    7  A    between atoms: C_17  and  C_18
REMARK                            x       y       z     vdW  Elec       q    Type
REMARK                         _______ _______ _______ _____ _____    ______ ____
ROOT
ATOM      1  C   UNL     1      -0.961  11.083  21.681  0.00  0.00    +0.000 A 
ATOM      2  C   UNL     1      -0.818  10.535  22.966  0.00  0.00    +0.000 A 
ATOM      3  C   UNL     1       0.053   9.472  23.205  0.00  0.00    +0.000 A 
ATOM      4  C   UNL     1       0.790   8.919  22.158  0.00  0.00    +0.000 A 
ATOM      5  C   UNL     1       0.672   9.434  20.862  0.00  0.00    +0.000 A 
ATOM      6  C   UNL     1      -0.198  10.514  20.642  0.00  0.00    +0.000 A 
ENDROOT
BRANCH   5   7
ATOM      7  C   UNL     1       1.422   8.861  19.750  0.00  0.00    +0.000 A 
ATOM      8  C   UNL     1       2.132   7.683  19.640  0.00  0.00    +0.000 A 
ATOM      9  C   UNL     1       2.600   7.619  18.301  0.00  0.00    +0.000 A 
ATOM     10  N   UNL     1       2.243   8.723  17.628  0.00  0.00    +0.000 NA
ATOM     11  N   UNL     1       1.520   9.432  18.509  0.00  0.00    +0.000 N 
ATOM     12  H   UNL     1       1.099  10.298  18.192  0.00  0.00    +0.000 HD
BRANCH   9  13
ATOM     13  C   UNL     1       3.356   6.538  17.675  0.00  0.00    +0.000 A 
ATOM     14  C   UNL     1       4.479   6.819  16.883  0.00  0.00    +0.000 A 
ATOM     15  C   UNL     1       5.206   5.785  16.288  0.00  0.00    +0.000 A 
ATOM     16  C   UNL     1       4.816   4.461  16.478  0.00  0.00    +0.000 A 
ATOM     17  C   UNL     1       3.702   4.168  17.265  0.00  0.00    +0.000 A 
ATOM     18  C   UNL     1       2.979   5.201  17.864  0.00  0.00    +0.000 A 
ENDBRANCH   9  13
ENDBRANCH   5   7
BRANCH   1  20
ATOM     19  C   UNL     1      -1.472  13.078  20.147  0.00  0.00    +0.000 C 
ATOM     20  C   UNL     1      -1.902  12.252  21.368  0.00  0.00    +0.000 C 
BRANCH  20  21
ATOM     21  S   UNL     1      -2.032  13.331  22.858  0.00  0.00    +0.000 S 
BRANCH  21  22
ATOM     22  C   UNL     1      -3.614  12.983  23.449  0.00  0.00    +0.000 A 
ATOM     23  N   UNL     1      -3.970  12.042  24.293  0.00  0.00    +0.000 NA
ATOM     24  N   UNL     1      -5.346  12.069  24.391  0.00  0.00    +0.000 NA
ATOM     25  C   UNL     1      -5.780  13.042  23.620  0.00  0.00    +0.000 A 
ATOM     26  N   UNL     1      -4.720  13.668  23.037  0.00  0.00    +0.000 N 
ATOM     27  C   UNL     1      -4.782  14.807  22.163  0.00  0.00    +0.000 C 
ENDBRANCH  21  22
ENDBRANCH  20  21
ENDBRANCH   1  20
TORSDOF 5
ENDMDL
MODEL 6
REMARK VINA RESULT:      -8.2      1.464      2.030
REMARK  Name = 
REMARK  7 active torsions:
REMARK  status: ('A' for Active; 'I' for Inactive)
REMARK    1  A    between atoms: C_1  and  C_2
REMARK    2  A    between atoms: C_2  and  S_3
REMARK    3  A    between atoms: C_2  and  C_10
REMARK    4  A    between atoms: S_3  and  C_4
REMARK    5  A    between atoms: N_8  and  C_9
REMARK    6  A    between atoms: C_14  and  C_15
REMARK    7  A    between atoms: C_17  and  C_18
REMARK                            x       y       z     vdW  Elec       q    Type
REMARK                         _______ _______ _______ _____ _____    ______ ____
ROOT
ATOM      1  C   UNL     1       5.018   3.971  16.834  0.00  0.00    +0.000 A 
ATOM      2  C   UNL     1       5.217   3.818  15.453  0.00  0.00    +0.000 A 
ATOM      3  C   UNL     1       6.137   4.607  14.764  0.00  0.00    +0.000 A 
ATOM      4  C   UNL     1       6.868   5.585  15.439  0.00  0.00    +0.000 A 
ATOM      5  C   UNL     1       6.695   5.773  16.814  0.00  0.00    +0.000 A 
ATOM      6  C   UNL     1       5.775   4.958  17.496  0.00  0.00    +0.000 A 
ENDROOT
BRANCH   5   7
ATOM      7  C   UNL     1       7.437   6.799  17.537  0.00  0.00    +0.000 A 
ATOM      8  C   UNL     1       7.638   8.138  17.268  0.00  0.00    +0.000 A 
ATOM      9  C   UNL     1       8.390   8.657  18.356  0.00  0.00    +0.000 A 
ATOM     10  N   UNL     1       8.685   7.682  19.228  0.00  0.00    +0.000 NA
ATOM     11  N   UNL     1       8.082   6.593  18.728  0.00  0.00    +0.000 N 
ATOM     12  H   UNL     1       8.131   5.732  19.262  0.00  0.00    +0.000 HD
BRANCH   9  13
ATOM     13  C   UNL     1       8.809  10.040  18.564  0.00  0.00    +0.000 A 
ATOM     14  C   UNL     1       9.589  10.388  19.678  0.00  0.00    +0.000 A 
ATOM     15  C   UNL     1       9.994  11.711  19.876  0.00  0.00    +0.000 A 
ATOM     16  C   UNL     1       9.623  12.697  18.965  0.00  0.00    +0.000 A 
ATOM     17  C   UNL     1       8.849  12.363  17.854  0.00  0.00    +0.000 A 
ATOM     18  C   UNL     1       8.448  11.042  17.652  0.00  0.00    +0.000 A 
ENDBRANCH   9  13
ENDBRANCH   5   7
BRANCH   1  20
ATOM     19  C   UNL     1       2.554   3.402  17.282  0.00  0.00    +0.000 C 
ATOM     20  C   UNL     1       4.022   3.126  17.637  0.00  0.00    +0.000 C 
BRANCH  20  21
ATOM     21  S   UNL     1       4.311   3.410  19.437  0.00  0.00    +0.000 S 
BRANCH  21  22
ATOM     22  C   UNL     1       3.176   4.650  19.818  0.00  0.00    +0.000 A 
ATOM     23  N   UNL     1       3.214   5.914  19.463  0.00  0.00    +0.000 NA
ATOM     24  N   UNL     1       2.160   6.553  20.084  0.00  0.00    +0.000 NA
ATOM     25  C   UNL     1       1.501   5.651  20.777  0.00  0.00    +0.000 A 
ATOM     26  N   UNL     1       2.085   4.431  20.608  0.00  0.00    +0.000 N 
ATOM     27  C   UNL     1       1.631   3.188  21.167  0.00  0.00    +0.000 C 
ENDBRANCH  21  22
ENDBRANCH  20  21
ENDBRANCH   1  20
TORSDOF 5
ENDMDL
MODEL 7
REMARK VINA RESULT:      -8.2      3.968      6.674
REMARK  Name = 
REMARK  7 active torsions:
REMARK  status: ('A' for Active; 'I' for Inactive)
REMARK    1  A    between atoms: C_1  and  C_2
REMARK    2  A    between atoms: C_2  and  S_3
REMARK    3  A    between atoms: C_2  and  C_10
REMARK    4  A    between atoms: S_3  and  C_4
REMARK    5  A    between atoms: N_8  and  C_9
REMARK    6  A    between atoms: C_14  and  C_15
REMARK    7  A    between atoms: C_17  and  C_18
REMARK                            x       y       z     vdW  Elec       q    Type
REMARK                         _______ _______ _______ _____ _____    ______ ____
ROOT
ATOM      1  C   UNL     1       4.306   4.811  16.842  0.00  0.00    +0.000 A 
ATOM      2  C   UNL     1       3.657   3.588  17.073  0.00  0.00    +0.000 A 
ATOM      3  C   UNL     1       2.548   3.507  17.916  0.00  0.00    +0.000 A 
ATOM      4  C   UNL     1       2.074   4.647  18.563  0.00  0.00    +0.000 A 
ATOM      5  C   UNL     1       2.696   5.884  18.363  0.00  0.00    +0.000 A 
ATOM      6  C   UNL     1       3.801   5.951  17.499  0.00  0.00    +0.000 A 
ENDROOT
BRANCH   5   7
ATOM      7  C   UNL     1       2.225   7.086  19.042  0.00  0.00    +0.000 A 
ATOM      8  C   UNL     1       1.924   8.344  18.563  0.00  0.00    +0.000 A 
ATOM      9  C   UNL     1       1.450   9.094  19.672  0.00  0.00    +0.000 A 
ATOM     10  N   UNL     1       1.501   8.356  20.791  0.00  0.00    +0.000 NA
ATOM     11  N   UNL     1       1.942   7.157  20.380  0.00  0.00    +0.000 N 
ATOM     12  H   UNL     1       2.010   6.413  21.066  0.00  0.00    +0.000 HD
BRANCH   9  13
ATOM     13  C   UNL     1       0.953  10.467  19.669  0.00  0.00    +0.000 A 
ATOM     14  C   UNL     1       1.386  11.378  18.693  0.00  0.00    +0.000 A 
ATOM     15  C   UNL     1       0.908  12.691  18.686  0.00  0.00    +0.000 A 
ATOM     16  C   UNL     1      -0.004  13.106  19.653  0.00  0.00    +0.000 A 
ATOM     17  C   UNL     1      -0.443  12.209  20.627  0.00  0.00    +0.000 A 
ATOM     18  C   UNL     1       0.030  10.896  20.632  0.00  0.00    +0.000 A 
ENDBRANCH   9  13
ENDBRANCH   5   7
BRANCH   1  20
ATOM     19  C   UNL     1       5.503   4.000  14.719  0.00  0.00    +0.000 C 
ATOM     20  C   UNL     1       5.524   4.953  15.923  0.00  0.00    +0.000 C 
BRANCH  20  21
ATOM     21  S   UNL     1       7.057   4.697  16.916  0.00  0.00    +0.000 S 
BRANCH  21  22
ATOM     22  C   UNL     1       7.449   6.292  17.439  0.00  0.00    +0.000 A 
ATOM     23  N   UNL     1       7.353   7.410  16.757  0.00  0.00    +0.000 NA
ATOM     24  N   UNL     1       7.877   8.420  17.537  0.00  0.00    +0.000 NA
ATOM     25  C   UNL     1       8.253   7.887  18.679  0.00  0.00    +0.000 A 
ATOM     26  N   UNL     1       7.967   6.554  18.674  0.00  0.00    +0.000 N 
ATOM     27  C   UNL     1       8.187   5.635  19.756  0.00  0.00    +0.000 C 
ENDBRANCH  21  22
ENDBRANCH  20  21
ENDBRANCH   1  20
TORSDOF 5
ENDMDL
MODEL 8
REMARK VINA RESULT:      -8.1      6.311      9.039
REMARK  Name = 
REMARK  7 active torsions:
REMARK  status: ('A' for Active; 'I' for Inactive)
REMARK    1  A    between atoms: C_1  and  C_2
REMARK    2  A    between atoms: C_2  and  S_3
REMARK    3  A    between atoms: C_2  and  C_10
REMARK    4  A    between atoms: S_3  and  C_4
REMARK    5  A    between atoms: N_8  and  C_9
REMARK    6  A    between atoms: C_14  and  C_15
REMARK    7  A    between atoms: C_17  and  C_18
REMARK                            x       y       z     vdW  Elec       q    Type
REMARK                         _______ _______ _______ _____ _____    ______ ____
ROOT
ATOM      1  C   UNL     1      -0.139  11.082  20.826  0.00  0.00    +0.000 A 
ATOM      2  C   UNL     1      -0.546  10.906  22.158  0.00  0.00    +0.000 A 
ATOM      3  C   UNL     1      -0.223   9.748  22.864  0.00  0.00    +0.000 A 
ATOM      4  C   UNL     1       0.501   8.728  22.247  0.00  0.00    +0.000 A 
ATOM      5  C   UNL     1       0.921   8.863  20.919  0.00  0.00    +0.000 A 
ATOM      6  C   UNL     1       0.601  10.043  20.228  0.00  0.00    +0.000 A 
ENDROOT
BRANCH   5   7
ATOM      7  C   UNL     1       1.666   7.803  20.250  0.00  0.00    +0.000 A 
ATOM      8  C   UNL     1       2.277   7.760  19.014  0.00  0.00    +0.000 A 
ATOM      9  C   UNL     1       2.907   6.490  18.922  0.00  0.00    +0.000 A 
ATOM     10  N   UNL     1       2.658   5.763  20.021  0.00  0.00    +0.000 NA
ATOM     11  N   UNL     1       1.939   6.581  20.805  0.00  0.00    +0.000 N 
ATOM     12  H   UNL     1       1.678   6.249  21.727  0.00  0.00    +0.000 HD
BRANCH   9  13
ATOM     13  C   UNL     1       3.730   5.985  17.826  0.00  0.00    +0.000 A 
ATOM     14  C   UNL     1       3.799   4.608  17.562  0.00  0.00    +0.000 A 
ATOM     15  C   UNL     1       4.582   4.124  16.512  0.00  0.00    +0.000 A 
ATOM     16  C   UNL     1       5.303   5.011  15.715  0.00  0.00    +0.000 A 
ATOM     17  C   UNL     1       5.242   6.381  15.966  0.00  0.00    +0.000 A 
ATOM     18  C   UNL     1       4.456   6.866  17.012  0.00  0.00    +0.000 A 
ENDBRANCH   9  13
ENDBRANCH   5   7
BRANCH   1  20
ATOM     19  C   UNL     1       0.187  13.616  20.556  0.00  0.00    +0.000 C 
ATOM     20  C   UNL     1      -0.465  12.338  20.009  0.00  0.00    +0.000 C 
BRANCH  20  21
ATOM     21  S   UNL     1      -2.297  12.538  19.925  0.00  0.00    +0.000 S 
BRANCH  21  22
ATOM     22  C   UNL     1      -2.695  11.809  18.414  0.00  0.00    +0.000 A 
ATOM     23  N   UNL     1      -1.875  11.433  17.460  0.00  0.00    +0.000 NA
ATOM     24  N   UNL     1      -2.642  11.003  16.396  0.00  0.00    +0.000 NA
ATOM     25  C   UNL     1      -3.904  11.110  16.748  0.00  0.00    +0.000 A 
ATOM     26  N   UNL     1      -3.983  11.579  18.025  0.00  0.00    +0.000 N 
ATOM     27  C   UNL     1      -5.187  11.788  18.780  0.00  0.00    +0.000 C 
ENDBRANCH  21  22
ENDBRANCH  20  21
ENDBRANCH   1  20
TORSDOF 5
ENDMDL
MODEL 9
REMARK VINA RESULT:      -8.1      3.952      7.119
REMARK  Name = 
REMARK  7 active torsions:
REMARK  status: ('A' for Active; 'I' for Inactive)
REMARK    1  A    between atoms: C_1  and  C_2
REMARK    2  A    between atoms: C_2  and  S_3
REMARK    3  A    between atoms: C_2  and  C_10
REMARK    4  A    between atoms: S_3  and  C_4
REMARK    5  A    between atoms: N_8  and  C_9
REMARK    6  A    between atoms: C_14  and  C_15
REMARK    7  A    between atoms: C_17  and  C_18
REMARK                            x       y       z     vdW  Elec       q    Type
REMARK                         _______ _______ _______ _____ _____    ______ ____
ROOT
ATOM      1  C   UNL     1       4.435   4.774  16.786  0.00  0.00    +0.000 A 
ATOM      2  C   UNL     1       3.822   3.551  17.102  0.00  0.00    +0.000 A 
ATOM      3  C   UNL     1       2.678   3.501  17.899  0.00  0.00    +0.000 A 
ATOM      4  C   UNL     1       2.131   4.676  18.414  0.00  0.00    +0.000 A 
ATOM      5  C   UNL     1       2.714   5.914  18.126  0.00  0.00    +0.000 A 
ATOM      6  C   UNL     1       3.856   5.948  17.309  0.00  0.00    +0.000 A 
ENDROOT
BRANCH   5   7
ATOM      7  C   UNL     1       2.166   7.153  18.666  0.00  0.00    +0.000 A 
ATOM      8  C   UNL     1       1.419   7.400  19.800  0.00  0.00    +0.000 A 
ATOM      9  C   UNL     1       1.224   8.806  19.853  0.00  0.00    +0.000 A 
ATOM     10  N   UNL     1       1.776   9.396  18.783  0.00  0.00    +0.000 NA
ATOM     11  N   UNL     1       2.353   8.389  18.108  0.00  0.00    +0.000 N 
ATOM     12  H   UNL     1       2.882   8.616  17.273  0.00  0.00    +0.000 HD
BRANCH   9  13
ATOM     13  C   UNL     1       0.541   9.568  20.895  0.00  0.00    +0.000 A 
ATOM     14  C   UNL     1       0.397   9.039  22.187  0.00  0.00    +0.000 A 
ATOM     15  C   UNL     1      -0.252   9.769  23.185  0.00  0.00    +0.000 A 
ATOM     16  C   UNL     1      -0.764  11.034  22.903  0.00  0.00    +0.000 A 
ATOM     17  C   UNL     1      -0.626  11.571  21.623  0.00  0.00    +0.000 A 
ATOM     18  C   UNL     1       0.027  10.845  20.626  0.00  0.00    +0.000 A 
ENDBRANCH   9  13
ENDBRANCH   5   7
BRANCH   1  20
ATOM     19  C   UNL     1       5.716   3.884  14.746  0.00  0.00    +0.000 C 
ATOM     20  C   UNL     1       5.690   4.882  15.912  0.00  0.00    +0.000 C 
BRANCH  20  21
ATOM     21  S   UNL     1       7.181   4.663  16.976  0.00  0.00    +0.000 S 
BRANCH  21  22
ATOM     22  C   UNL     1       7.539   6.275  17.473  0.00  0.00    +0.000 A 
ATOM     23  N   UNL     1       7.464   7.374  16.758  0.00  0.00    +0.000 NA
ATOM     24  N   UNL     1       7.947   8.409  17.532  0.00  0.00    +0.000 NA
ATOM     25  C   UNL     1       8.278   7.908  18.702  0.00  0.00    +0.000 A 
ATOM     26  N   UNL     1       8.003   6.574  18.721  0.00  0.00    +0.000 N 
ATOM     27  C   UNL     1       8.184   5.685  19.835  0.00  0.00    +0.000 C 
ENDBRANCH  21  22
ENDBRANCH  20  21
ENDBRANCH   1  20
TORSDOF 5
ENDMDL
