MODEL 1
REMARK VINA RESULT:      -9.4      0.000      0.000
REMARK  Name = 
REMARK  11 active torsions:
REMARK  status: ('A' for Active; 'I' for Inactive)
REMARK    1  A    between atoms: C_1  and  N_2
REMARK    2  A    between atoms: N_2  and  S_3
REMARK    3  A    between atoms: S_3  and  C_6
REMARK    4  A    between atoms: C_8  and  C_9
REMARK    5  A    between atoms: N_11  and  C_12
REMARK    6  A    between atoms: C_16  and  C_17
REMARK    7  A    between atoms: C_17  and  C_18
REMARK    8  A    between atoms: C_17  and  C_19
REMARK    9  A    between atoms: C_19  and  C_20
REMARK   10  A    between atoms: N_24  and  C_25
REMARK   11  A    between atoms: C_28  and  C_29
REMARK                            x       y       z     vdW  Elec       q    Type
REMARK                         _______ _______ _______ _____ _____    ______ ____
ROOT
ATOM      1  C   UNL     1       2.753   7.477  18.433  0.00  0.00    +0.000 C 
ATOM      2  O   UNL     1       2.730   8.404  17.622  0.00  0.00    +0.000 OA
ATOM      3  N   UNL     1       2.156   7.451  19.687  0.00  0.00    +0.000 N 
ATOM      4  H   UNL     1       2.368   6.646  20.271  0.00  0.00    +0.000 HD
ENDROOT
BRANCH   1   7
ATOM      5  C   UNL     1       5.449   5.241  17.094  0.00  0.00    +0.000 A 
ATOM      6  C   UNL     1       4.775   6.403  17.455  0.00  0.00    +0.000 A 
ATOM      7  C   UNL     1       3.532   6.262  18.057  0.00  0.00    +0.000 A 
ATOM      8  N   UNL     1       2.963   5.063  18.328  0.00  0.00    +0.000 NA
ATOM      9  C   UNL     1       3.651   3.935  17.979  0.00  0.00    +0.000 A 
ATOM     10  C   UNL     1       4.896   3.987  17.351  0.00  0.00    +0.000 A 
BRANCH   9  11
ATOM     11  C   UNL     1       3.029   2.586  18.313  0.00  0.00    +0.000 C 
ATOM     12  F   UNL     1       2.501   1.956  17.226  0.00  0.00    +0.000 F 
ATOM     13  F   UNL     1       3.926   1.714  18.853  0.00  0.00    +0.000 F 
ATOM     14  F   UNL     1       2.013   2.690  19.214  0.00  0.00    +0.000 F 
ENDBRANCH   9  11
BRANCH   5  15
ATOM     15  S   UNL     1       7.045   5.388  16.323  0.00  0.00    +0.000 S 
ATOM     16  O   UNL     1       7.792   4.191  16.631  0.00  0.00    +0.000 OA
ATOM     17  O   UNL     1       7.530   6.711  16.634  0.00  0.00    +0.000 OA
BRANCH  15  19
ATOM     18  C   UNL     1       6.261   4.058  14.126  0.00  0.00    +0.000 C 
ATOM     19  N   UNL     1       6.640   5.353  14.686  0.00  0.00    +0.000 NA
ATOM     20  H   UNL     1       6.067   6.147  14.399  0.00  0.00    +0.000 HD
ENDBRANCH  15  19
ENDBRANCH   5  15
ENDBRANCH   1   7
BRANCH   3  21
ATOM     21  C   UNL     1       1.394   8.509  20.242  0.00  0.00    +0.000 A 
ATOM     22  C   UNL     1       1.057   8.532  21.598  0.00  0.00    +0.000 A 
ATOM     23  C   UNL     1       0.277   9.555  22.127  0.00  0.00    +0.000 A 
ATOM     24  C   UNL     1      -0.190  10.567  21.300  0.00  0.00    +0.000 A 
ATOM     25  C   UNL     1       0.117  10.574  19.929  0.00  0.00    +0.000 A 
ATOM     26  C   UNL     1       0.950   9.553  19.418  0.00  0.00    +0.000 A 
BRANCH  25  27
ATOM     27  C   UNL     1      -0.484  11.628  19.002  0.00  0.00    +0.000 C 
ATOM     28  C   UNL     1       0.244  12.971  19.148  0.00  0.00    +0.000 C 
BRANCH  27  29
ATOM     29  C   UNL     1      -2.008  11.762  19.242  0.00  0.00    +0.000 C 
BRANCH  29  30
ATOM     30  C   UNL     1      -2.808  11.527  18.003  0.00  0.00    +0.000 A 
ATOM     31  N   UNL     1      -2.331  11.189  16.821  0.00  0.00    +0.000 NA
ATOM     32  N   UNL     1      -3.390  11.034  15.958  0.00  0.00    +0.000 NA
ATOM     33  C   UNL     1      -4.487  11.298  16.625  0.00  0.00    +0.000 A 
ATOM     34  N   UNL     1      -4.171  11.619  17.907  0.00  0.00    +0.000 N 
ATOM     35  C   UNL     1      -5.098  11.976  18.946  0.00  0.00    +0.000 C 
ENDBRANCH  29  30
ENDBRANCH  27  29
ENDBRANCH  25  27
ENDBRANCH   3  21
TORSDOF 8
ENDMDL
MODEL 2
REMARK VINA RESULT:      -9.4      0.842      1.126
REMARK  Name = 
REMARK  11 active torsions:
REMARK  status: ('A' for Active; 'I' for Inactive)
REMARK    1  A    between atoms: C_1  and  N_2
REMARK    2  A    between atoms: N_2  and  S_3
REMARK    3  A    between atoms: S_3  and  C_6
REMARK    4  A    between atoms: C_8  and  C_9
REMARK    5  A    between atoms: N_11  and  C_12
REMARK    6  A    between atoms: C_16  and  C_17
REMARK    7  A    between atoms: C_17  and  C_18
REMARK    8  A    between atoms: C_17  and  C_19
REMARK    9  A    between atoms: C_19  and  C_20
REMARK   10  A    between atoms: N_24  and  C_25
REMARK   11  A    between atoms: C_28  and  C_29
REMARK                            x       y       z     vdW  Elec       q    Type
REMARK                         _______ _______ _______ _____ _____    ______ ____
ROOT
ATOM      1  C   UNL     1       2.533   7.483  18.644  0.00  0.00    +0.000 C 
ATOM      2  O   UNL     1       2.631   8.373  17.798  0.00  0.00    +0.000 OA
ATOM      3  N   UNL     1       1.872   7.558  19.863  0.00  0.00    +0.000 N 
ATOM      4  H   UNL     1       1.985   6.765  20.488  0.00  0.00    +0.000 HD
ENDROOT
BRANCH   1   7
ATOM      5  C   UNL     1       5.122   4.977  17.604  0.00  0.00    +0.000 A 
ATOM      6  C   UNL     1       4.531   6.204  17.886  0.00  0.00    +0.000 A 
ATOM      7  C   UNL     1       3.226   6.192  18.358  0.00  0.00    +0.000 A 
ATOM      8  N   UNL     1       2.518   5.058  18.577  0.00  0.00    +0.000 NA
ATOM      9  C   UNL     1       3.125   3.864  18.308  0.00  0.00    +0.000 A 
ATOM     10  C   UNL     1       4.427   3.786  17.811  0.00  0.00    +0.000 A 
BRANCH   9  11
ATOM     11  C   UNL     1       2.345   2.586  18.585  0.00  0.00    +0.000 C 
ATOM     12  F   UNL     1       2.288   2.268  19.909  0.00  0.00    +0.000 F 
ATOM     13  F   UNL     1       1.053   2.657  18.159  0.00  0.00    +0.000 F 
ATOM     14  F   UNL     1       2.889   1.501  17.965  0.00  0.00    +0.000 F 
ENDBRANCH   9  11
BRANCH   5  15
ATOM     15  S   UNL     1       6.794   4.958  16.999  0.00  0.00    +0.000 S 
ATOM     16  O   UNL     1       7.637   4.450  18.057  0.00  0.00    +0.000 OA
ATOM     17  O   UNL     1       7.018   6.239  16.372  0.00  0.00    +0.000 OA
BRANCH  15  19
ATOM     18  C   UNL     1       6.392   4.259  14.438  0.00  0.00    +0.000 C 
ATOM     19  N   UNL     1       6.708   3.791  15.785  0.00  0.00    +0.000 NA
ATOM     20  H   UNL     1       7.447   3.090  15.851  0.00  0.00    +0.000 HD
ENDBRANCH  15  19
ENDBRANCH   5  15
ENDBRANCH   1   7
BRANCH   3  21
ATOM     21  C   UNL     1       1.174   8.699  20.335  0.00  0.00    +0.000 A 
ATOM     22  C   UNL     1       0.960   8.910  21.700  0.00  0.00    +0.000 A 
ATOM     23  C   UNL     1       0.242  10.012  22.152  0.00  0.00    +0.000 A 
ATOM     24  C   UNL     1      -0.285  10.915  21.240  0.00  0.00    +0.000 A 
ATOM     25  C   UNL     1      -0.103  10.732  19.859  0.00  0.00    +0.000 A 
ATOM     26  C   UNL     1       0.670   9.633  19.419  0.00  0.00    +0.000 A 
BRANCH  25  27
ATOM     27  C   UNL     1      -0.772  11.667  18.854  0.00  0.00    +0.000 C 
ATOM     28  C   UNL     1      -0.491  13.136  19.194  0.00  0.00    +0.000 C 
BRANCH  27  29
ATOM     29  C   UNL     1      -2.290  11.371  18.760  0.00  0.00    +0.000 C 
BRANCH  29  30
ATOM     30  C   UNL     1      -2.710  10.949  17.391  0.00  0.00    +0.000 A 
ATOM     31  N   UNL     1      -1.978  10.273  16.526  0.00  0.00    +0.000 NA
ATOM     32  N   UNL     1      -2.736  10.053  15.400  0.00  0.00    +0.000 NA
ATOM     33  C   UNL     1      -3.906  10.614  15.593  0.00  0.00    +0.000 A 
ATOM     34  N   UNL     1      -3.932  11.193  16.823  0.00  0.00    +0.000 N 
ATOM     35  C   UNL     1      -5.036  11.911  17.399  0.00  0.00    +0.000 C 
ENDBRANCH  29  30
ENDBRANCH  27  29
ENDBRANCH  25  27
ENDBRANCH   3  21
TORSDOF 8
ENDMDL
MODEL 3
REMARK VINA RESULT:      -9.3      1.640      2.192
REMARK  Name = 
REMARK  11 active torsions:
REMARK  status: ('A' for Active; 'I' for Inactive)
REMARK    1  A    between atoms: C_1  and  N_2
REMARK    2  A    between atoms: N_2  and  S_3
REMARK    3  A    between atoms: S_3  and  C_6
REMARK    4  A    between atoms: C_8  and  C_9
REMARK    5  A    between atoms: N_11  and  C_12
REMARK    6  A    between atoms: C_16  and  C_17
REMARK    7  A    between atoms: C_17  and  C_18
REMARK    8  A    between atoms: C_17  and  C_19
REMARK    9  A    between atoms: C_19  and  C_20
REMARK   10  A    between atoms: N_24  and  C_25
REMARK   11  A    between atoms: C_28  and  C_29
REMARK                            x       y       z     vdW  Elec       q    Type
REMARK                         _______ _______ _______ _____ _____    ______ ____
ROOT
ATOM      1  C   UNL     1       2.380   7.366  18.788  0.00  0.00    +0.000 C 
ATOM      2  O   UNL     1       2.074   7.390  19.981  0.00  0.00    +0.000 OA
ATOM      3  N   UNL     1       1.995   8.272  17.808  0.00  0.00    +0.000 N 
ATOM      4  H   UNL     1       2.249   8.039  16.852  0.00  0.00    +0.000 HD
ENDROOT
BRANCH   1   7
ATOM      5  C   UNL     1       5.172   5.386  17.256  0.00  0.00    +0.000 A 
ATOM      6  C   UNL     1       4.436   6.480  17.698  0.00  0.00    +0.000 A 
ATOM      7  C   UNL     1       3.224   6.226  18.324  0.00  0.00    +0.000 A 
ATOM      8  N   UNL     1       2.742   4.980  18.545  0.00  0.00    +0.000 NA
ATOM      9  C   UNL     1       3.489   3.919  18.117  0.00  0.00    +0.000 A 
ATOM     10  C   UNL     1       4.709   4.086  17.459  0.00  0.00    +0.000 A 
BRANCH   9  11
ATOM     11  C   UNL     1       2.966   2.516  18.392  0.00  0.00    +0.000 C 
ATOM     12  F   UNL     1       2.474   1.900  17.281  0.00  0.00    +0.000 F 
ATOM     13  F   UNL     1       3.926   1.687  18.888  0.00  0.00    +0.000 F 
ATOM     14  F   UNL     1       1.953   2.509  19.303  0.00  0.00    +0.000 F 
ENDBRANCH   9  11
BRANCH   5  15
ATOM     15  S   UNL     1       6.731   5.678  16.450  0.00  0.00    +0.000 S 
ATOM     16  O   UNL     1       7.601   4.567  16.764  0.00  0.00    +0.000 OA
ATOM     17  O   UNL     1       7.086   7.049  16.730  0.00  0.00    +0.000 OA
BRANCH  15  19
ATOM     18  C   UNL     1       6.477   4.273  14.176  0.00  0.00    +0.000 C 
ATOM     19  N   UNL     1       6.302   5.571  14.823  0.00  0.00    +0.000 NA
ATOM     20  H   UNL     1       5.435   6.064  14.605  0.00  0.00    +0.000 HD
ENDBRANCH  15  19
ENDBRANCH   5  15
ENDBRANCH   1   7
BRANCH   3  21
ATOM     21  C   UNL     1       1.177   9.408  18.035  0.00  0.00    +0.000 A 
ATOM     22  C   UNL     1       1.686  10.567  18.625  0.00  0.00    +0.000 A 
ATOM     23  C   UNL     1       0.868  11.663  18.877  0.00  0.00    +0.000 A 
ATOM     24  C   UNL     1      -0.481  11.608  18.555  0.00  0.00    +0.000 A 
ATOM     25  C   UNL     1      -1.034  10.456  17.972  0.00  0.00    +0.000 A 
ATOM     26  C   UNL     1      -0.178   9.370  17.678  0.00  0.00    +0.000 A 
BRANCH  25  27
ATOM     27  C   UNL     1      -2.536  10.358  17.715  0.00  0.00    +0.000 C 
ATOM     28  C   UNL     1      -2.822   9.757  16.333  0.00  0.00    +0.000 C 
BRANCH  27  29
ATOM     29  C   UNL     1      -3.214  11.738  17.902  0.00  0.00    +0.000 C 
BRANCH  29  30
ATOM     30  C   UNL     1      -4.618  11.626  18.398  0.00  0.00    +0.000 A 
ATOM     31  N   UNL     1      -5.626  11.061  17.761  0.00  0.00    +0.000 NA
ATOM     32  N   UNL     1      -6.738  11.133  18.567  0.00  0.00    +0.000 NA
ATOM     33  C   UNL     1      -6.391  11.755  19.668  0.00  0.00    +0.000 A 
ATOM     34  N   UNL     1      -5.075  12.088  19.604  0.00  0.00    +0.000 N 
ATOM     35  C   UNL     1      -4.325  12.785  20.614  0.00  0.00    +0.000 C 
ENDBRANCH  29  30
ENDBRANCH  27  29
ENDBRANCH  25  27
ENDBRANCH   3  21
TORSDOF 8
ENDMDL
MODEL 4
REMARK VINA RESULT:      -9.3      1.510      1.827
REMARK  Name = 
REMARK  11 active torsions:
REMARK  status: ('A' for Active; 'I' for Inactive)
REMARK    1  A    between atoms: C_1  and  N_2
REMARK    2  A    between atoms: N_2  and  S_3
REMARK    3  A    between atoms: S_3  and  C_6
REMARK    4  A    between atoms: C_8  and  C_9
REMARK    5  A    between atoms: N_11  and  C_12
REMARK    6  A    between atoms: C_16  and  C_17
REMARK    7  A    between atoms: C_17  and  C_18
REMARK    8  A    between atoms: C_17  and  C_19
REMARK    9  A    between atoms: C_19  and  C_20
REMARK   10  A    between atoms: N_24  and  C_25
REMARK   11  A    between atoms: C_28  and  C_29
REMARK                            x       y       z     vdW  Elec       q    Type
REMARK                         _______ _______ _______ _____ _____    ______ ____
ROOT
ATOM      1  C   UNL     1       2.235   6.543  19.619  0.00  0.00    +0.000 C 
ATOM      2  O   UNL     1       1.702   6.103  20.638  0.00  0.00    +0.000 OA
ATOM      3  N   UNL     1       2.134   7.834  19.115  0.00  0.00    +0.000 N 
ATOM      4  H   UNL     1       2.551   7.996  18.202  0.00  0.00    +0.000 HD
ENDROOT
BRANCH   1   7
ATOM      5  C   UNL     1       4.545   5.137  17.020  0.00  0.00    +0.000 A 
ATOM      6  C   UNL     1       3.830   6.068  17.766  0.00  0.00    +0.000 A 
ATOM      7  C   UNL     1       3.048   5.590  18.808  0.00  0.00    +0.000 A 
ATOM      8  N   UNL     1       2.969   4.280  19.145  0.00  0.00    +0.000 NA
ATOM      9  C   UNL     1       3.693   3.386  18.409  0.00  0.00    +0.000 A 
ATOM     10  C   UNL     1       4.487   3.779  17.332  0.00  0.00    +0.000 A 
BRANCH   9  11
ATOM     11  C   UNL     1       3.632   1.917  18.806  0.00  0.00    +0.000 C 
ATOM     12  F   UNL     1       2.411   1.538  19.276  0.00  0.00    +0.000 F 
ATOM     13  F   UNL     1       3.910   1.081  17.767  0.00  0.00    +0.000 F 
ATOM     14  F   UNL     1       4.523   1.607  19.789  0.00  0.00    +0.000 F 
ENDBRANCH   9  11
BRANCH   5  15
ATOM     15  S   UNL     1       5.557   5.719  15.679  0.00  0.00    +0.000 S 
ATOM     16  O   UNL     1       5.118   7.054  15.345  0.00  0.00    +0.000 OA
ATOM     17  O   UNL     1       5.606   4.650  14.710  0.00  0.00    +0.000 OA
BRANCH  15  19
ATOM     18  C   UNL     1       7.301   6.971  17.291  0.00  0.00    +0.000 C 
ATOM     19  N   UNL     1       7.072   5.827  16.413  0.00  0.00    +0.000 NA
ATOM     20  H   UNL     1       7.416   4.928  16.753  0.00  0.00    +0.000 HD
ENDBRANCH  15  19
ENDBRANCH   5  15
ENDBRANCH   1   7
BRANCH   3  21
ATOM     21  C   UNL     1       1.393   8.881  19.718  0.00  0.00    +0.000 A 
ATOM     22  C   UNL     1       1.273   8.983  21.107  0.00  0.00    +0.000 A 
ATOM     23  C   UNL     1       0.512   9.992  21.689  0.00  0.00    +0.000 A 
ATOM     24  C   UNL     1      -0.153  10.908  20.886  0.00  0.00    +0.000 A 
ATOM     25  C   UNL     1      -0.067  10.831  19.486  0.00  0.00    +0.000 A 
ATOM     26  C   UNL     1       0.748   9.830  18.912  0.00  0.00    +0.000 A 
BRANCH  25  27
ATOM     27  C   UNL     1      -0.883  11.774  18.604  0.00  0.00    +0.000 C 
ATOM     28  C   UNL     1      -0.746  13.227  19.073  0.00  0.00    +0.000 C 
BRANCH  27  29
ATOM     29  C   UNL     1      -2.363  11.319  18.542  0.00  0.00    +0.000 C 
BRANCH  29  30
ATOM     30  C   UNL     1      -2.768  10.864  17.178  0.00  0.00    +0.000 A 
ATOM     31  N   UNL     1      -2.049  10.119  16.360  0.00  0.00    +0.000 NA
ATOM     32  N   UNL     1      -2.787   9.892  15.223  0.00  0.00    +0.000 NA
ATOM     33  C   UNL     1      -3.932  10.516  15.362  0.00  0.00    +0.000 A 
ATOM     34  N   UNL     1      -3.962  11.144  16.567  0.00  0.00    +0.000 N 
ATOM     35  C   UNL     1      -5.042  11.938  17.085  0.00  0.00    +0.000 C 
ENDBRANCH  29  30
ENDBRANCH  27  29
ENDBRANCH  25  27
ENDBRANCH   3  21
TORSDOF 8
ENDMDL
MODEL 5
REMARK VINA RESULT:      -9.2      1.863      2.598
REMARK  Name = 
REMARK  11 active torsions:
REMARK  status: ('A' for Active; 'I' for Inactive)
REMARK    1  A    between atoms: C_1  and  N_2
REMARK    2  A    between atoms: N_2  and  S_3
REMARK    3  A    between atoms: S_3  and  C_6
REMARK    4  A    between atoms: C_8  and  C_9
REMARK    5  A    between atoms: N_11  and  C_12
REMARK    6  A    between atoms: C_16  and  C_17
REMARK    7  A    between atoms: C_17  and  C_18
REMARK    8  A    between atoms: C_17  and  C_19
REMARK    9  A    between atoms: C_19  and  C_20
REMARK   10  A    between atoms: N_24  and  C_25
REMARK   11  A    between atoms: C_28  and  C_29
REMARK                            x       y       z     vdW  Elec       q    Type
REMARK                         _______ _______ _______ _____ _____    ______ ____
ROOT
ATOM      1  C   UNL     1       2.382   7.402  18.744  0.00  0.00    +0.000 C 
ATOM      2  O   UNL     1       2.105   7.432  19.944  0.00  0.00    +0.000 OA
ATOM      3  N   UNL     1       1.973   8.305  17.770  0.00  0.00    +0.000 N 
ATOM      4  H   UNL     1       2.203   8.067  16.809  0.00  0.00    +0.000 HD
ENDROOT
BRANCH   1   7
ATOM      5  C   UNL     1       5.146   5.414  17.172  0.00  0.00    +0.000 A 
ATOM      6  C   UNL     1       4.422   6.510  17.628  0.00  0.00    +0.000 A 
ATOM      7  C   UNL     1       3.214   6.260  18.265  0.00  0.00    +0.000 A 
ATOM      8  N   UNL     1       2.725   5.015  18.482  0.00  0.00    +0.000 NA
ATOM      9  C   UNL     1       3.462   3.953  18.039  0.00  0.00    +0.000 A 
ATOM     10  C   UNL     1       4.676   4.116  17.371  0.00  0.00    +0.000 A 
BRANCH   9  11
ATOM     11  C   UNL     1       2.932   2.551  18.310  0.00  0.00    +0.000 C 
ATOM     12  F   UNL     1       1.946   2.523  19.251  0.00  0.00    +0.000 F 
ATOM     13  F   UNL     1       2.408   1.965  17.198  0.00  0.00    +0.000 F 
ATOM     14  F   UNL     1       3.902   1.708  18.761  0.00  0.00    +0.000 F 
ENDBRANCH   9  11
BRANCH   5  15
ATOM     15  S   UNL     1       6.699   5.701  16.353  0.00  0.00    +0.000 S 
ATOM     16  O   UNL     1       6.445   5.737  14.931  0.00  0.00    +0.000 OA
ATOM     17  O   UNL     1       7.651   4.797  16.952  0.00  0.00    +0.000 OA
BRANCH  15  19
ATOM     18  C   UNL     1       7.934   7.390  18.036  0.00  0.00    +0.000 C 
ATOM     19  N   UNL     1       7.072   7.265  16.863  0.00  0.00    +0.000 NA
ATOM     20  H   UNL     1       7.277   7.899  16.090  0.00  0.00    +0.000 HD
ENDBRANCH  15  19
ENDBRANCH   5  15
ENDBRANCH   1   7
BRANCH   3  21
ATOM     21  C   UNL     1       1.161   9.441  18.012  0.00  0.00    +0.000 A 
ATOM     22  C   UNL     1       1.689  10.610  18.566  0.00  0.00    +0.000 A 
ATOM     23  C   UNL     1       0.878  11.707  18.835  0.00  0.00    +0.000 A 
ATOM     24  C   UNL     1      -0.481  11.645  18.564  0.00  0.00    +0.000 A 
ATOM     25  C   UNL     1      -1.053  10.484  18.017  0.00  0.00    +0.000 A 
ATOM     26  C   UNL     1      -0.206   9.396  17.706  0.00  0.00    +0.000 A 
BRANCH  25  27
ATOM     27  C   UNL     1      -2.564  10.379  17.818  0.00  0.00    +0.000 C 
ATOM     28  C   UNL     1      -2.899   9.671  16.500  0.00  0.00    +0.000 C 
BRANCH  27  29
ATOM     29  C   UNL     1      -3.225  11.776  17.913  0.00  0.00    +0.000 C 
BRANCH  29  30
ATOM     30  C   UNL     1      -4.636  11.712  18.398  0.00  0.00    +0.000 A 
ATOM     31  N   UNL     1      -5.671  11.248  17.724  0.00  0.00    +0.000 NA
ATOM     32  N   UNL     1      -6.782  11.330  18.530  0.00  0.00    +0.000 NA
ATOM     33  C   UNL     1      -6.407  11.858  19.670  0.00  0.00    +0.000 A 
ATOM     34  N   UNL     1      -5.074  12.120  19.631  0.00  0.00    +0.000 N 
ATOM     35  C   UNL     1      -4.292  12.706  20.685  0.00  0.00    +0.000 C 
ENDBRANCH  29  30
ENDBRANCH  27  29
ENDBRANCH  25  27
ENDBRANCH   3  21
TORSDOF 8
ENDMDL
MODEL 6
REMARK VINA RESULT:      -9.2      2.720      3.590
REMARK  Name = 
REMARK  11 active torsions:
REMARK  status: ('A' for Active; 'I' for Inactive)
REMARK    1  A    between atoms: C_1  and  N_2
REMARK    2  A    between atoms: N_2  and  S_3
REMARK    3  A    between atoms: S_3  and  C_6
REMARK    4  A    between atoms: C_8  and  C_9
REMARK    5  A    between atoms: N_11  and  C_12
REMARK    6  A    between atoms: C_16  and  C_17
REMARK    7  A    between atoms: C_17  and  C_18
REMARK    8  A    between atoms: C_17  and  C_19
REMARK    9  A    between atoms: C_19  and  C_20
REMARK   10  A    between atoms: N_24  and  C_25
REMARK   11  A    between atoms: C_28  and  C_29
REMARK                            x       y       z     vdW  Elec       q    Type
REMARK                         _______ _______ _______ _____ _____    ______ ____
ROOT
ATOM      1  C   UNL     1       2.671   7.754  18.000  0.00  0.00    +0.000 C 
ATOM      2  O   UNL     1       2.928   8.592  17.134  0.00  0.00    +0.000 OA
ATOM      3  N   UNL     1       1.856   7.925  19.112  0.00  0.00    +0.000 N 
ATOM      4  H   UNL     1       1.843   7.162  19.783  0.00  0.00    +0.000 HD
ENDROOT
BRANCH   1   7
ATOM      5  C   UNL     1       5.235   5.083  17.402  0.00  0.00    +0.000 A 
ATOM      6  C   UNL     1       4.675   6.348  17.539  0.00  0.00    +0.000 A 
ATOM      7  C   UNL     1       3.330   6.421  17.874  0.00  0.00    +0.000 A 
ATOM      8  N   UNL     1       2.553   5.333  18.096  0.00  0.00    +0.000 NA
ATOM      9  C   UNL     1       3.129   4.100  17.972  0.00  0.00    +0.000 A 
ATOM     10  C   UNL     1       4.469   3.937  17.617  0.00  0.00    +0.000 A 
BRANCH   9  11
ATOM     11  C   UNL     1       2.269   2.876  18.253  0.00  0.00    +0.000 C 
ATOM     12  F   UNL     1       0.932   3.143  18.228  0.00  0.00    +0.000 F 
ATOM     13  F   UNL     1       2.470   1.875  17.351  0.00  0.00    +0.000 F 
ATOM     14  F   UNL     1       2.518   2.336  19.479  0.00  0.00    +0.000 F 
ENDBRANCH   9  11
BRANCH   5  15
ATOM     15  S   UNL     1       6.957   4.956  16.975  0.00  0.00    +0.000 S 
ATOM     16  O   UNL     1       7.653   4.410  18.117  0.00  0.00    +0.000 OA
ATOM     17  O   UNL     1       7.322   6.214  16.369  0.00  0.00    +0.000 OA
BRANCH  15  19
ATOM     18  C   UNL     1       6.464   4.208  14.444  0.00  0.00    +0.000 C 
ATOM     19  N   UNL     1       6.925   3.784  15.763  0.00  0.00    +0.000 NA
ATOM     20  H   UNL     1       7.745   3.176  15.775  0.00  0.00    +0.000 HD
ENDBRANCH  15  19
ENDBRANCH   5  15
ENDBRANCH   1   7
BRANCH   3  21
ATOM     21  C   UNL     1       1.160   9.119  19.427  0.00  0.00    +0.000 A 
ATOM     22  C   UNL     1       0.934  10.107  18.465  0.00  0.00    +0.000 A 
ATOM     23  C   UNL     1       0.283  11.291  18.792  0.00  0.00    +0.000 A 
ATOM     24  C   UNL     1      -0.141  11.511  20.095  0.00  0.00    +0.000 A 
ATOM     25  C   UNL     1       0.078  10.547  21.094  0.00  0.00    +0.000 A 
ATOM     26  C   UNL     1       0.698   9.329  20.734  0.00  0.00    +0.000 A 
BRANCH  25  27
ATOM     27  C   UNL     1      -0.294  10.834  22.547  0.00  0.00    +0.000 C 
ATOM     28  C   UNL     1      -0.298   9.546  23.380  0.00  0.00    +0.000 C 
BRANCH  27  29
ATOM     29  C   UNL     1      -1.647  11.583  22.627  0.00  0.00    +0.000 C 
BRANCH  29  30
ATOM     30  C   UNL     1      -1.521  12.929  23.262  0.00  0.00    +0.000 A 
ATOM     31  N   UNL     1      -0.431  13.671  23.307  0.00  0.00    +0.000 NA
ATOM     32  N   UNL     1      -0.738  14.849  23.945  0.00  0.00    +0.000 NA
ATOM     33  C   UNL     1      -2.001  14.796  24.292  0.00  0.00    +0.000 A 
ATOM     34  N   UNL     1      -2.531  13.610  23.891  0.00  0.00    +0.000 N 
ATOM     35  C   UNL     1      -3.885  13.173  24.092  0.00  0.00    +0.000 C 
ENDBRANCH  29  30
ENDBRANCH  27  29
ENDBRANCH  25  27
ENDBRANCH   3  21
TORSDOF 8
ENDMDL
MODEL 7
REMARK VINA RESULT:      -9.2      1.091      1.279
REMARK  Name = 
REMARK  11 active torsions:
REMARK  status: ('A' for Active; 'I' for Inactive)
REMARK    1  A    between atoms: C_1  and  N_2
REMARK    2  A    between atoms: N_2  and  S_3
REMARK    3  A    between atoms: S_3  and  C_6
REMARK    4  A    between atoms: C_8  and  C_9
REMARK    5  A    between atoms: N_11  and  C_12
REMARK    6  A    between atoms: C_16  and  C_17
REMARK    7  A    between atoms: C_17  and  C_18
REMARK    8  A    between atoms: C_17  and  C_19
REMARK    9  A    between atoms: C_19  and  C_20
REMARK   10  A    between atoms: N_24  and  C_25
REMARK   11  A    between atoms: C_28  and  C_29
REMARK                            x       y       z     vdW  Elec       q    Type
REMARK                         _______ _______ _______ _____ _____    ______ ____
ROOT
ATOM      1  C   UNL     1       2.448   7.247  18.783  0.00  0.00    +0.000 C 
ATOM      2  O   UNL     1       2.251   8.002  17.831  0.00  0.00    +0.000 OA
ATOM      3  N   UNL     1       2.049   7.441  20.099  0.00  0.00    +0.000 N 
ATOM      4  H   UNL     1       2.392   6.768  20.779  0.00  0.00    +0.000 HD
ENDROOT
BRANCH   1   7
ATOM      5  C   UNL     1       5.223   4.916  17.819  0.00  0.00    +0.000 A 
ATOM      6  C   UNL     1       4.546   6.101  18.085  0.00  0.00    +0.000 A 
ATOM      7  C   UNL     1       3.231   6.004  18.516  0.00  0.00    +0.000 A 
ATOM      8  N   UNL     1       2.591   4.826  18.712  0.00  0.00    +0.000 NA
ATOM      9  C   UNL     1       3.282   3.675  18.461  0.00  0.00    +0.000 A 
ATOM     10  C   UNL     1       4.600   3.682  18.004  0.00  0.00    +0.000 A 
BRANCH   9  11
ATOM     11  C   UNL     1       2.578   2.348  18.712  0.00  0.00    +0.000 C 
ATOM     12  F   UNL     1       3.268   1.275  18.231  0.00  0.00    +0.000 F 
ATOM     13  F   UNL     1       2.377   2.103  20.037  0.00  0.00    +0.000 F 
ATOM     14  F   UNL     1       1.348   2.293  18.127  0.00  0.00    +0.000 F 
ENDBRANCH   9  11
BRANCH   5  15
ATOM     15  S   UNL     1       6.911   5.006  17.266  0.00  0.00    +0.000 S 
ATOM     16  O   UNL     1       7.037   4.160  16.101  0.00  0.00    +0.000 OA
ATOM     17  O   UNL     1       7.736   4.844  18.439  0.00  0.00    +0.000 OA
BRANCH  15  19
ATOM     18  C   UNL     1       7.755   7.528  17.642  0.00  0.00    +0.000 C 
ATOM     19  N   UNL     1       7.024   6.614  16.767  0.00  0.00    +0.000 NA
ATOM     20  H   UNL     1       7.209   6.710  15.768  0.00  0.00    +0.000 HD
ENDBRANCH  15  19
ENDBRANCH   5  15
ENDBRANCH   1   7
BRANCH   3  21
ATOM     21  C   UNL     1       1.319   8.563  20.565  0.00  0.00    +0.000 A 
ATOM     22  C   UNL     1       1.011   8.722  21.919  0.00  0.00    +0.000 A 
ATOM     23  C   UNL     1       0.263   9.807  22.363  0.00  0.00    +0.000 A 
ATOM     24  C   UNL     1      -0.201  10.746  21.452  0.00  0.00    +0.000 A 
ATOM     25  C   UNL     1       0.077  10.616  20.081  0.00  0.00    +0.000 A 
ATOM     26  C   UNL     1       0.879   9.533  19.654  0.00  0.00    +0.000 A 
BRANCH  25  27
ATOM     27  C   UNL     1      -0.522  11.590  19.069  0.00  0.00    +0.000 C 
ATOM     28  C   UNL     1       0.187  12.949  19.124  0.00  0.00    +0.000 C 
BRANCH  27  29
ATOM     29  C   UNL     1      -2.051  11.722  19.278  0.00  0.00    +0.000 C 
BRANCH  29  30
ATOM     30  C   UNL     1      -2.823  11.519  18.016  0.00  0.00    +0.000 A 
ATOM     31  N   UNL     1      -2.320  11.210  16.836  0.00  0.00    +0.000 NA
ATOM     32  N   UNL     1      -3.360  11.077  15.946  0.00  0.00    +0.000 NA
ATOM     33  C   UNL     1      -4.472  11.325  16.595  0.00  0.00    +0.000 A 
ATOM     34  N   UNL     1      -4.185  11.613  17.892  0.00  0.00    +0.000 N 
ATOM     35  C   UNL     1      -5.134  11.945  18.918  0.00  0.00    +0.000 C 
ENDBRANCH  29  30
ENDBRANCH  27  29
ENDBRANCH  25  27
ENDBRANCH   3  21
TORSDOF 8
ENDMDL
MODEL 8
REMARK VINA RESULT:      -9.2      0.989      1.326
REMARK  Name = 
REMARK  11 active torsions:
REMARK  status: ('A' for Active; 'I' for Inactive)
REMARK    1  A    between atoms: C_1  and  N_2
REMARK    2  A    between atoms: N_2  and  S_3
REMARK    3  A    between atoms: S_3  and  C_6
REMARK    4  A    between atoms: C_8  and  C_9
REMARK    5  A    between atoms: N_11  and  C_12
REMARK    6  A    between atoms: C_16  and  C_17
REMARK    7  A    between atoms: C_17  and  C_18
REMARK    8  A    between atoms: C_17  and  C_19
REMARK    9  A    between atoms: C_19  and  C_20
REMARK   10  A    between atoms: N_24  and  C_25
REMARK   11  A    between atoms: C_28  and  C_29
REMARK                            x       y       z     vdW  Elec       q    Type
REMARK                         _______ _______ _______ _____ _____    ______ ____
ROOT
ATOM      1  C   UNL     1       2.652   7.354  18.788  0.00  0.00    +0.000 C 
ATOM      2  O   UNL     1       2.403   8.066  17.815  0.00  0.00    +0.000 OA
ATOM      3  N   UNL     1       2.180   7.517  20.085  0.00  0.00    +0.000 N 
ATOM      4  H   UNL     1       2.575   6.900  20.790  0.00  0.00    +0.000 HD
ENDROOT
BRANCH   1   7
ATOM      5  C   UNL     1       5.531   5.280  17.575  0.00  0.00    +0.000 A 
ATOM      6  C   UNL     1       4.705   6.382  17.769  0.00  0.00    +0.000 A 
ATOM      7  C   UNL     1       3.589   6.212  18.575  0.00  0.00    +0.000 A 
ATOM      8  N   UNL     1       3.281   5.047  19.193  0.00  0.00    +0.000 NA
ATOM      9  C   UNL     1       4.115   3.982  19.002  0.00  0.00    +0.000 A 
ATOM     10  C   UNL     1       5.248   4.060  18.190  0.00  0.00    +0.000 A 
BRANCH   9  11
ATOM     11  C   UNL     1       3.792   2.679  19.722  0.00  0.00    +0.000 C 
ATOM     12  F   UNL     1       3.075   2.863  20.866  0.00  0.00    +0.000 F 
ATOM     13  F   UNL     1       3.061   1.824  18.954  0.00  0.00    +0.000 F 
ATOM     14  F   UNL     1       4.912   1.996  20.088  0.00  0.00    +0.000 F 
ENDBRANCH   9  11
BRANCH   5  15
ATOM     15  S   UNL     1       6.971   5.465  16.549  0.00  0.00    +0.000 S 
ATOM     16  O   UNL     1       7.797   4.295  16.737  0.00  0.00    +0.000 OA
ATOM     17  O   UNL     1       7.460   6.806  16.766  0.00  0.00    +0.000 OA
BRANCH  15  19
ATOM     18  C   UNL     1       7.131   4.820  13.947  0.00  0.00    +0.000 C 
ATOM     19  N   UNL     1       6.303   5.398  15.002  0.00  0.00    +0.000 NA
ATOM     20  H   UNL     1       5.322   5.116  15.003  0.00  0.00    +0.000 HD
ENDBRANCH  15  19
ENDBRANCH   5  15
ENDBRANCH   1   7
BRANCH   3  21
ATOM     21  C   UNL     1       1.303   8.549  20.501  0.00  0.00    +0.000 A 
ATOM     22  C   UNL     1       1.108   8.838  21.855  0.00  0.00    +0.000 A 
ATOM     23  C   UNL     1       0.217   9.827  22.256  0.00  0.00    +0.000 A 
ATOM     24  C   UNL     1      -0.504  10.536  21.306  0.00  0.00    +0.000 A 
ATOM     25  C   UNL     1      -0.345  10.268  19.936  0.00  0.00    +0.000 A 
ATOM     26  C   UNL     1       0.599   9.292  19.544  0.00  0.00    +0.000 A 
BRANCH  25  27
ATOM     27  C   UNL     1      -1.216  10.973  18.898  0.00  0.00    +0.000 C 
ATOM     28  C   UNL     1      -1.703  12.331  19.418  0.00  0.00    +0.000 C 
BRANCH  27  29
ATOM     29  C   UNL     1      -2.389  10.063  18.459  0.00  0.00    +0.000 C 
BRANCH  29  30
ATOM     30  C   UNL     1      -2.770  10.267  17.029  0.00  0.00    +0.000 A 
ATOM     31  N   UNL     1      -2.144   9.773  15.978  0.00  0.00    +0.000 NA
ATOM     32  N   UNL     1      -2.827  10.160  14.849  0.00  0.00    +0.000 NA
ATOM     33  C   UNL     1      -3.843  10.895  15.232  0.00  0.00    +0.000 A 
ATOM     34  N   UNL     1      -3.844  10.995  16.588  0.00  0.00    +0.000 N 
ATOM     35  C   UNL     1      -4.793  11.721  17.385  0.00  0.00    +0.000 C 
ENDBRANCH  29  30
ENDBRANCH  27  29
ENDBRANCH  25  27
ENDBRANCH   3  21
TORSDOF 8
ENDMDL
MODEL 9
REMARK VINA RESULT:      -9.2      1.430      1.449
REMARK  Name = 
REMARK  11 active torsions:
REMARK  status: ('A' for Active; 'I' for Inactive)
REMARK    1  A    between atoms: C_1  and  N_2
REMARK    2  A    between atoms: N_2  and  S_3
REMARK    3  A    between atoms: S_3  and  C_6
REMARK    4  A    between atoms: C_8  and  C_9
REMARK    5  A    between atoms: N_11  and  C_12
REMARK    6  A    between atoms: C_16  and  C_17
REMARK    7  A    between atoms: C_17  and  C_18
REMARK    8  A    between atoms: C_17  and  C_19
REMARK    9  A    between atoms: C_19  and  C_20
REMARK   10  A    between atoms: N_24  and  C_25
REMARK   11  A    between atoms: C_28  and  C_29
REMARK                            x       y       z     vdW  Elec       q    Type
REMARK                         _______ _______ _______ _____ _____    ______ ____
ROOT
ATOM      1  C   UNL     1       2.102   6.312  20.221  0.00  0.00    +0.000 C 
ATOM      2  O   UNL     1       1.306   5.835  21.032  0.00  0.00    +0.000 OA
ATOM      3  N   UNL     1       2.193   7.639  19.822  0.00  0.00    +0.000 N 
ATOM      4  H   UNL     1       2.836   7.839  19.061  0.00  0.00    +0.000 HD
ENDROOT
BRANCH   1   7
ATOM      5  C   UNL     1       5.181   4.876  18.634  0.00  0.00    +0.000 A 
ATOM      6  C   UNL     1       4.344   5.782  19.277  0.00  0.00    +0.000 A 
ATOM      7  C   UNL     1       3.051   5.367  19.562  0.00  0.00    +0.000 A 
ATOM      8  N   UNL     1       2.578   4.131  19.271  0.00  0.00    +0.000 NA
ATOM      9  C   UNL     1       3.423   3.253  18.654  0.00  0.00    +0.000 A 
ATOM     10  C   UNL     1       4.732   3.595  18.312  0.00  0.00    +0.000 A 
BRANCH   9  11
ATOM     11  C   UNL     1       2.907   1.852  18.355  0.00  0.00    +0.000 C 
ATOM     12  F   UNL     1       2.351   1.739  17.115  0.00  0.00    +0.000 F 
ATOM     13  F   UNL     1       3.886   0.908  18.415  0.00  0.00    +0.000 F 
ATOM     14  F   UNL     1       1.943   1.455  19.232  0.00  0.00    +0.000 F 
ENDBRANCH   9  11
BRANCH   5  15
ATOM     15  S   UNL     1       6.845   5.376  18.256  0.00  0.00    +0.000 S 
ATOM     16  O   UNL     1       7.667   5.067  19.404  0.00  0.00    +0.000 OA
ATOM     17  O   UNL     1       6.757   6.703  17.696  0.00  0.00    +0.000 OA
BRANCH  15  19
ATOM     18  C   UNL     1       6.975   4.751  15.648  0.00  0.00    +0.000 C 
ATOM     19  N   UNL     1       7.250   4.310  17.013  0.00  0.00    +0.000 NA
ATOM     20  H   UNL     1       8.149   3.849  17.160  0.00  0.00    +0.000 HD
ENDBRANCH  15  19
ENDBRANCH   5  15
ENDBRANCH   1   7
BRANCH   3  21
ATOM     21  C   UNL     1       1.370   8.687  20.307  0.00  0.00    +0.000 A 
ATOM     22  C   UNL     1       1.052   8.795  21.664  0.00  0.00    +0.000 A 
ATOM     23  C   UNL     1       0.214   9.804  22.126  0.00  0.00    +0.000 A 
ATOM     24  C   UNL     1      -0.330  10.715  21.232  0.00  0.00    +0.000 A 
ATOM     25  C   UNL     1      -0.044  10.633  19.859  0.00  0.00    +0.000 A 
ATOM     26  C   UNL     1       0.847   9.631  19.413  0.00  0.00    +0.000 A 
BRANCH  25  27
ATOM     27  C   UNL     1      -0.727  11.569  18.864  0.00  0.00    +0.000 C 
ATOM     28  C   UNL     1       0.090  12.851  18.662  0.00  0.00    +0.000 C 
BRANCH  27  29
ATOM     29  C   UNL     1      -2.181  11.869  19.305  0.00  0.00    +0.000 C 
BRANCH  29  30
ATOM     30  C   UNL     1      -3.170  11.663  18.205  0.00  0.00    +0.000 A 
ATOM     31  N   UNL     1      -2.896  11.271  16.975  0.00  0.00    +0.000 NA
ATOM     32  N   UNL     1      -4.079  11.169  16.283  0.00  0.00    +0.000 NA
ATOM     33  C   UNL     1      -5.047  11.516  17.096  0.00  0.00    +0.000 A 
ATOM     34  N   UNL     1      -4.524  11.840  18.309  0.00  0.00    +0.000 N 
ATOM     35  C   UNL     1      -5.262  12.277  19.462  0.00  0.00    +0.000 C 
ENDBRANCH  29  30
ENDBRANCH  27  29
ENDBRANCH  25  27
ENDBRANCH   3  21
TORSDOF 8
ENDMDL
