MODEL 1
REMARK VINA RESULT:     -10.3      0.000      0.000
REMARK  Name = 
REMARK  7 active torsions:
REMARK  status: ('A' for Active; 'I' for Inactive)
REMARK    1  A    between atoms: C_1  and  N_2
REMARK    2  A    between atoms: C_6  and  C_7
REMARK    3  A    between atoms: C_7  and  C_10
REMARK    4  A    between atoms: C_10  and  C_11
REMARK    5  A    between atoms: C_10  and  C_13
REMARK    6  A    between atoms: C_17  and  N_18
REMARK    7  A    between atoms: C_25  and  C_26
REMARK                            x       y       z     vdW  Elec       q    Type
REMARK                         _______ _______ _______ _____ _____    ______ ____
ROOT
ATOM      1  C   UNL     1       4.824   5.100  18.047  0.00  0.00    +0.000 A 
ATOM      2  C   UNL     1       4.455   3.956  18.768  0.00  0.00    +0.000 A 
ATOM      3  C   UNL     1       3.351   3.970  19.635  0.00  0.00    +0.000 A 
ATOM      4  C   UNL     1       2.582   5.125  19.805  0.00  0.00    +0.000 A 
ATOM      5  C   UNL     1       2.948   6.297  19.153  0.00  0.00    +0.000 A 
ATOM      6  C   UNL     1       4.094   6.263  18.325  0.00  0.00    +0.000 A 
ENDROOT
BRANCH   5   7
ATOM      7  N   UNL     1       2.207   7.500  19.245  0.00  0.00    +0.000 N 
ATOM      8  C   UNL     1       1.528   7.823  20.483  0.00  0.00    +0.000 C 
ATOM      9  C   UNL     1       0.979   9.178  20.265  0.00  0.00    +0.000 A 
ATOM     10  C   UNL     1       1.313   9.614  18.987  0.00  0.00    +0.000 A 
ATOM     11  C   UNL     1       0.933  10.864  18.540  0.00  0.00    +0.000 A 
ATOM     12  C   UNL     1       0.203  11.676  19.421  0.00  0.00    +0.000 A 
ATOM     13  C   UNL     1      -0.129  11.229  20.716  0.00  0.00    +0.000 A 
ATOM     14  C   UNL     1       0.256   9.958  21.162  0.00  0.00    +0.000 A 
ATOM     15  C   UNL     1       2.101   8.554  18.319  0.00  0.00    +0.000 C 
ATOM     16  O   UNL     1       2.530   8.661  17.187  0.00  0.00    +0.000 OA
BRANCH  14  17
ATOM     17  C   UNL     1      -0.091   9.472  22.546  0.00  0.00    +0.000 C 
ATOM     18  F   UNL     1      -0.778  10.378  23.297  0.00  0.00    +0.000 F 
ATOM     19  F   UNL     1      -0.846   8.343  22.540  0.00  0.00    +0.000 F 
ATOM     20  F   UNL     1       1.016   9.181  23.285  0.00  0.00    +0.000 F 
ENDBRANCH  14  17
ENDBRANCH   5   7
BRANCH   1  21
ATOM     21  C   UNL     1       5.992   5.182  17.043  0.00  0.00    +0.000 C 
ATOM     22  C   UNL     1       7.311   4.703  17.689  0.00  0.00    +0.000 C 
ATOM     23  F   UNL     1       6.203   6.506  16.706  0.00  0.00    +0.000 F 
BRANCH  21  24
ATOM     24  C   UNL     1       5.840   4.392  15.691  0.00  0.00    +0.000 C 
ATOM     25  F   UNL     1       4.545   4.517  15.260  0.00  0.00    +0.000 F 
ATOM     26  F   UNL     1       5.978   3.052  15.963  0.00  0.00    +0.000 F 
BRANCH  24  32
ATOM     27  C   UNL     1       5.778   3.389  12.650  0.00  0.00    +0.000 C 
ATOM     28  N   UNL     1       6.695   4.313  13.262  0.00  0.00    +0.000 N 
ATOM     29  C   UNL     1       7.677   4.973  12.584  0.00  0.00    +0.000 A 
ATOM     30  N   UNL     1       8.356   5.726  13.411  0.00  0.00    +0.000 NA
ATOM     31  N   UNL     1       7.794   5.582  14.654  0.00  0.00    +0.000 NA
ATOM     32  C   UNL     1       6.781   4.734  14.572  0.00  0.00    +0.000 A 
ENDBRANCH  24  32
ENDBRANCH  21  24
ENDBRANCH   1  21
TORSDOF 5
ENDMDL
MODEL 2
REMARK VINA RESULT:      -9.8      1.747      2.754
REMARK  Name = 
REMARK  7 active torsions:
REMARK  status: ('A' for Active; 'I' for Inactive)
REMARK    1  A    between atoms: C_1  and  N_2
REMARK    2  A    between atoms: C_6  and  C_7
REMARK    3  A    between atoms: C_7  and  C_10
REMARK    4  A    between atoms: C_10  and  C_11
REMARK    5  A    between atoms: C_10  and  C_13
REMARK    6  A    between atoms: C_17  and  N_18
REMARK    7  A    between atoms: C_25  and  C_26
REMARK                            x       y       z     vdW  Elec       q    Type
REMARK                         _______ _______ _______ _____ _____    ______ ____
ROOT
ATOM      1  C   UNL     1       4.400   4.897  17.966  0.00  0.00    +0.000 A 
ATOM      2  C   UNL     1       4.197   3.874  18.903  0.00  0.00    +0.000 A 
ATOM      3  C   UNL     1       3.307   4.039  19.976  0.00  0.00    +0.000 A 
ATOM      4  C   UNL     1       2.593   5.229  20.143  0.00  0.00    +0.000 A 
ATOM      5  C   UNL     1       2.807   6.289  19.269  0.00  0.00    +0.000 A 
ATOM      6  C   UNL     1       3.747   6.108  18.228  0.00  0.00    +0.000 A 
ENDROOT
BRANCH   5   7
ATOM      7  N   UNL     1       2.103   7.516  19.349  0.00  0.00    +0.000 N 
ATOM      8  C   UNL     1       1.442   7.876  20.586  0.00  0.00    +0.000 C 
ATOM      9  C   UNL     1       0.932   9.244  20.352  0.00  0.00    +0.000 A 
ATOM     10  C   UNL     1       1.271   9.651  19.066  0.00  0.00    +0.000 A 
ATOM     11  C   UNL     1       0.925  10.906  18.603  0.00  0.00    +0.000 A 
ATOM     12  C   UNL     1       0.225  11.751  19.476  0.00  0.00    +0.000 A 
ATOM     13  C   UNL     1      -0.112  11.333  20.780  0.00  0.00    +0.000 A 
ATOM     14  C   UNL     1       0.238  10.058  21.242  0.00  0.00    +0.000 A 
ATOM     15  C   UNL     1       2.023   8.559  18.408  0.00  0.00    +0.000 C 
ATOM     16  O   UNL     1       2.448   8.637  17.273  0.00  0.00    +0.000 OA
BRANCH  14  17
ATOM     17  C   UNL     1      -0.114   9.602  22.634  0.00  0.00    +0.000 C 
ATOM     18  F   UNL     1       0.965   9.285  23.404  0.00  0.00    +0.000 F 
ATOM     19  F   UNL     1      -0.815  10.529  23.337  0.00  0.00    +0.000 F 
ATOM     20  F   UNL     1      -0.879   8.474  22.632  0.00  0.00    +0.000 F 
ENDBRANCH  14  17
ENDBRANCH   5   7
BRANCH   1  21
ATOM     21  C   UNL     1       5.323   4.805  16.733  0.00  0.00    +0.000 C 
ATOM     22  C   UNL     1       4.923   5.846  15.664  0.00  0.00    +0.000 C 
ATOM     23  F   UNL     1       5.150   3.572  16.132  0.00  0.00    +0.000 F 
BRANCH  21  24
ATOM     24  C   UNL     1       6.868   4.975  16.973  0.00  0.00    +0.000 C 
ATOM     25  F   UNL     1       7.525   4.642  15.817  0.00  0.00    +0.000 F 
ATOM     26  F   UNL     1       7.266   4.018  17.876  0.00  0.00    +0.000 F 
BRANCH  24  32
ATOM     27  C   UNL     1       8.095   5.715  19.837  0.00  0.00    +0.000 C 
ATOM     28  N   UNL     1       7.919   6.575  18.696  0.00  0.00    +0.000 N 
ATOM     29  C   UNL     1       8.329   7.875  18.653  0.00  0.00    +0.000 A 
ATOM     30  N   UNL     1       8.015   8.398  17.495  0.00  0.00    +0.000 NA
ATOM     31  N   UNL     1       7.412   7.418  16.750  0.00  0.00    +0.000 NA
ATOM     32  C   UNL     1       7.357   6.306  17.467  0.00  0.00    +0.000 A 
ENDBRANCH  24  32
ENDBRANCH  21  24
ENDBRANCH   1  21
TORSDOF 5
ENDMDL
MODEL 3
REMARK VINA RESULT:      -9.2      1.214      1.601
REMARK  Name = 
REMARK  7 active torsions:
REMARK  status: ('A' for Active; 'I' for Inactive)
REMARK    1  A    between atoms: C_1  and  N_2
REMARK    2  A    between atoms: C_6  and  C_7
REMARK    3  A    between atoms: C_7  and  C_10
REMARK    4  A    between atoms: C_10  and  C_11
REMARK    5  A    between atoms: C_10  and  C_13
REMARK    6  A    between atoms: C_17  and  N_18
REMARK    7  A    between atoms: C_25  and  C_26
REMARK                            x       y       z     vdW  Elec       q    Type
REMARK                         _______ _______ _______ _____ _____    ______ ____
ROOT
ATOM      1  C   UNL     1       5.188   5.381  18.835  0.00  0.00    +0.000 A 
ATOM      2  C   UNL     1       4.713   4.142  19.288  0.00  0.00    +0.000 A 
ATOM      3  C   UNL     1       3.412   4.005  19.793  0.00  0.00    +0.000 A 
ATOM      4  C   UNL     1       2.545   5.100  19.860  0.00  0.00    +0.000 A 
ATOM      5  C   UNL     1       2.995   6.358  19.474  0.00  0.00    +0.000 A 
ATOM      6  C   UNL     1       4.328   6.471  19.016  0.00  0.00    +0.000 A 
ENDROOT
BRANCH   5   7
ATOM      7  N   UNL     1       2.173   7.512  19.480  0.00  0.00    +0.000 N 
ATOM      8  C   UNL     1       1.471   7.877  20.693  0.00  0.00    +0.000 C 
ATOM      9  C   UNL     1       0.832   9.172  20.378  0.00  0.00    +0.000 A 
ATOM     10  C   UNL     1       1.137   9.535  19.070  0.00  0.00    +0.000 A 
ATOM     11  C   UNL     1       0.674  10.720  18.534  0.00  0.00    +0.000 A 
ATOM     12  C   UNL     1      -0.112  11.542  19.354  0.00  0.00    +0.000 A 
ATOM     13  C   UNL     1      -0.415  11.170  20.680  0.00  0.00    +0.000 A 
ATOM     14  C   UNL     1       0.055   9.965  21.217  0.00  0.00    +0.000 A 
ATOM     15  C   UNL     1       1.998   8.485  18.479  0.00  0.00    +0.000 C 
ATOM     16  O   UNL     1       2.420   8.538  17.342  0.00  0.00    +0.000 OA
BRANCH  14  17
ATOM     17  C   UNL     1      -0.261   9.559  22.634  0.00  0.00    +0.000 C 
ATOM     18  F   UNL     1      -1.007  10.471  23.320  0.00  0.00    +0.000 F 
ATOM     19  F   UNL     1      -0.941   8.385  22.713  0.00  0.00    +0.000 F 
ATOM     20  F   UNL     1       0.862   9.395  23.388  0.00  0.00    +0.000 F 
ENDBRANCH  14  17
ENDBRANCH   5   7
BRANCH   1  21
ATOM     21  C   UNL     1       6.584   5.633  18.228  0.00  0.00    +0.000 C 
ATOM     22  C   UNL     1       7.383   4.316  18.113  0.00  0.00    +0.000 C 
ATOM     23  F   UNL     1       7.311   6.434  19.089  0.00  0.00    +0.000 F 
BRANCH  21  24
ATOM     24  C   UNL     1       6.645   6.322  16.815  0.00  0.00    +0.000 C 
ATOM     25  F   UNL     1       7.729   7.159  16.788  0.00  0.00    +0.000 F 
ATOM     26  F   UNL     1       5.564   7.164  16.706  0.00  0.00    +0.000 F 
BRANCH  24  32
ATOM     27  C   UNL     1       4.420   4.234  15.840  0.00  0.00    +0.000 C 
ATOM     28  N   UNL     1       5.660   4.577  15.196  0.00  0.00    +0.000 N 
ATOM     29  C   UNL     1       6.052   4.083  13.987  0.00  0.00    +0.000 A 
ATOM     30  N   UNL     1       7.228   4.562  13.674  0.00  0.00    +0.000 NA
ATOM     31  N   UNL     1       7.608   5.411  14.681  0.00  0.00    +0.000 NA
ATOM     32  C   UNL     1       6.660   5.433  15.604  0.00  0.00    +0.000 A 
ENDBRANCH  24  32
ENDBRANCH  21  24
ENDBRANCH   1  21
TORSDOF 5
ENDMDL
MODEL 4
REMARK VINA RESULT:      -9.1      4.298      8.781
REMARK  Name = 
REMARK  7 active torsions:
REMARK  status: ('A' for Active; 'I' for Inactive)
REMARK    1  A    between atoms: C_1  and  N_2
REMARK    2  A    between atoms: C_6  and  C_7
REMARK    3  A    between atoms: C_7  and  C_10
REMARK    4  A    between atoms: C_10  and  C_11
REMARK    5  A    between atoms: C_10  and  C_13
REMARK    6  A    between atoms: C_17  and  N_18
REMARK    7  A    between atoms: C_25  and  C_26
REMARK                            x       y       z     vdW  Elec       q    Type
REMARK                         _______ _______ _______ _____ _____    ______ ____
ROOT
ATOM      1  C   UNL     1      -0.093  11.095  20.619  0.00  0.00    +0.000 A 
ATOM      2  C   UNL     1      -0.326  11.043  22.000  0.00  0.00    +0.000 A 
ATOM      3  C   UNL     1       0.096   9.945  22.766  0.00  0.00    +0.000 A 
ATOM      4  C   UNL     1       0.765   8.868  22.175  0.00  0.00    +0.000 A 
ATOM      5  C   UNL     1       0.966   8.855  20.799  0.00  0.00    +0.000 A 
ATOM      6  C   UNL     1       0.484   9.954  20.050  0.00  0.00    +0.000 A 
ENDROOT
BRANCH   5   7
ATOM      7  N   UNL     1       1.661   7.820  20.126  0.00  0.00    +0.000 N 
ATOM      8  C   UNL     1       1.565   6.462  20.621  0.00  0.00    +0.000 C 
ATOM      9  C   UNL     1       2.293   5.650  19.623  0.00  0.00    +0.000 A 
ATOM     10  C   UNL     1       2.781   6.478  18.618  0.00  0.00    +0.000 A 
ATOM     11  C   UNL     1       3.486   5.960  17.549  0.00  0.00    +0.000 A 
ATOM     12  C   UNL     1       3.688   4.573  17.514  0.00  0.00    +0.000 A 
ATOM     13  C   UNL     1       3.187   3.738  18.534  0.00  0.00    +0.000 A 
ATOM     14  C   UNL     1       2.477   4.270  19.618  0.00  0.00    +0.000 A 
ATOM     15  C   UNL     1       2.385   7.872  18.921  0.00  0.00    +0.000 C 
ATOM     16  O   UNL     1       2.676   8.813  18.210  0.00  0.00    +0.000 OA
BRANCH  14  17
ATOM     17  C   UNL     1       1.934   3.388  20.712  0.00  0.00    +0.000 C 
ATOM     18  F   UNL     1       2.460   3.644  21.944  0.00  0.00    +0.000 F 
ATOM     19  F   UNL     1       0.586   3.485  20.855  0.00  0.00    +0.000 F 
ATOM     20  F   UNL     1       2.196   2.069  20.492  0.00  0.00    +0.000 F 
ENDBRANCH  14  17
ENDBRANCH   5   7
BRANCH   1  21
ATOM     21  C   UNL     1      -0.480  12.268  19.694  0.00  0.00    +0.000 C 
ATOM     22  C   UNL     1      -2.008  12.321  19.478  0.00  0.00    +0.000 C 
ATOM     23  F   UNL     1       0.065  12.052  18.443  0.00  0.00    +0.000 F 
BRANCH  21  24
ATOM     24  C   UNL     1      -0.038  13.712  20.134  0.00  0.00    +0.000 C 
ATOM     25  F   UNL     1      -0.971  14.204  21.009  0.00  0.00    +0.000 F 
ATOM     26  F   UNL     1      -0.132  14.538  19.040  0.00  0.00    +0.000 F 
BRANCH  24  32
ATOM     27  C   UNL     1       2.797  13.468  18.664  0.00  0.00    +0.000 C 
ATOM     28  N   UNL     1       2.535  13.804  20.039  0.00  0.00    +0.000 N 
ATOM     29  C   UNL     1       3.503  14.143  20.937  0.00  0.00    +0.000 A 
ATOM     30  N   UNL     1       2.960  14.375  22.104  0.00  0.00    +0.000 NA
ATOM     31  N   UNL     1       1.605  14.214  21.968  0.00  0.00    +0.000 NA
ATOM     32  C   UNL     1       1.337  13.875  20.717  0.00  0.00    +0.000 A 
ENDBRANCH  24  32
ENDBRANCH  21  24
ENDBRANCH   1  21
TORSDOF 5
ENDMDL
MODEL 5
REMARK VINA RESULT:      -9.1      2.003      2.912
REMARK  Name = 
REMARK  7 active torsions:
REMARK  status: ('A' for Active; 'I' for Inactive)
REMARK    1  A    between atoms: C_1  and  N_2
REMARK    2  A    between atoms: C_6  and  C_7
REMARK    3  A    between atoms: C_7  and  C_10
REMARK    4  A    between atoms: C_10  and  C_11
REMARK    5  A    between atoms: C_10  and  C_13
REMARK    6  A    between atoms: C_17  and  N_18
REMARK    7  A    between atoms: C_25  and  C_26
REMARK                            x       y       z     vdW  Elec       q    Type
REMARK                         _______ _______ _______ _____ _____    ______ ____
ROOT
ATOM      1  C   UNL     1       3.241   3.928  18.927  0.00  0.00    +0.000 A 
ATOM      2  C   UNL     1       3.009   3.153  20.071  0.00  0.00    +0.000 A 
ATOM      3  C   UNL     1       2.354   3.689  21.190  0.00  0.00    +0.000 A 
ATOM      4  C   UNL     1       1.908   5.014  21.199  0.00  0.00    +0.000 A 
ATOM      5  C   UNL     1       2.168   5.834  20.107  0.00  0.00    +0.000 A 
ATOM      6  C   UNL     1       2.874   5.277  19.015  0.00  0.00    +0.000 A 
ENDROOT
BRANCH   5   7
ATOM      7  N   UNL     1       1.724   7.177  20.021  0.00  0.00    +0.000 N 
ATOM      8  C   UNL     1       1.053   7.776  21.156  0.00  0.00    +0.000 C 
ATOM      9  C   UNL     1       0.854   9.189  20.766  0.00  0.00    +0.000 A 
ATOM     10  C   UNL     1       1.371   9.396  19.492  0.00  0.00    +0.000 A 
ATOM     11  C   UNL     1       1.327  10.644  18.902  0.00  0.00    +0.000 A 
ATOM     12  C   UNL     1       0.746  11.690  19.633  0.00  0.00    +0.000 A 
ATOM     13  C   UNL     1       0.227  11.473  20.926  0.00  0.00    +0.000 A 
ATOM     14  C   UNL     1       0.271  10.205  21.518  0.00  0.00    +0.000 A 
ATOM     15  C   UNL     1       1.935   8.120  18.998  0.00  0.00    +0.000 C 
ATOM     16  O   UNL     1       2.457   8.004  17.908  0.00  0.00    +0.000 OA
BRANCH  14  17
ATOM     17  C   UNL     1      -0.278   9.962  22.901  0.00  0.00    +0.000 C 
ATOM     18  F   UNL     1      -1.217   8.976  22.960  0.00  0.00    +0.000 F 
ATOM     19  F   UNL     1       0.680   9.619  23.801  0.00  0.00    +0.000 F 
ATOM     20  F   UNL     1      -0.899  11.062  23.411  0.00  0.00    +0.000 F 
ENDBRANCH  14  17
ENDBRANCH   5   7
BRANCH   1  21
ATOM     21  C   UNL     1       3.916   3.428  17.633  0.00  0.00    +0.000 C 
ATOM     22  C   UNL     1       2.881   3.253  16.501  0.00  0.00    +0.000 C 
ATOM     23  F   UNL     1       4.438   2.168  17.857  0.00  0.00    +0.000 F 
BRANCH  21  24
ATOM     24  C   UNL     1       5.085   4.301  17.044  0.00  0.00    +0.000 C 
ATOM     25  F   UNL     1       4.538   5.351  16.356  0.00  0.00    +0.000 F 
ATOM     26  F   UNL     1       5.725   3.560  16.079  0.00  0.00    +0.000 F 
BRANCH  24  32
ATOM     27  C   UNL     1       7.261   6.606  16.586  0.00  0.00    +0.000 C 
ATOM     28  N   UNL     1       7.019   5.836  17.778  0.00  0.00    +0.000 N 
ATOM     29  C   UNL     1       7.675   6.033  18.957  0.00  0.00    +0.000 A 
ATOM     30  N   UNL     1       7.253   5.171  19.846  0.00  0.00    +0.000 NA
ATOM     31  N   UNL     1       6.281   4.408  19.251  0.00  0.00    +0.000 NA
ATOM     32  C   UNL     1       6.127   4.809  17.999  0.00  0.00    +0.000 A 
ENDBRANCH  24  32
ENDBRANCH  21  24
ENDBRANCH   1  21
TORSDOF 5
ENDMDL
MODEL 6
REMARK VINA RESULT:      -9.0      2.900      4.264
REMARK  Name = 
REMARK  7 active torsions:
REMARK  status: ('A' for Active; 'I' for Inactive)
REMARK    1  A    between atoms: C_1  and  N_2
REMARK    2  A    between atoms: C_6  and  C_7
REMARK    3  A    between atoms: C_7  and  C_10
REMARK    4  A    between atoms: C_10  and  C_11
REMARK    5  A    between atoms: C_10  and  C_13
REMARK    6  A    between atoms: C_17  and  N_18
REMARK    7  A    between atoms: C_25  and  C_26
REMARK                            x       y       z     vdW  Elec       q    Type
REMARK                         _______ _______ _______ _____ _____    ______ ____
ROOT
ATOM      1  C   UNL     1       2.788   6.086  18.940  0.00  0.00    +0.000 A 
ATOM      2  C   UNL     1       3.398   6.558  17.770  0.00  0.00    +0.000 A 
ATOM      3  C   UNL     1       3.245   7.890  17.358  0.00  0.00    +0.000 A 
ATOM      4  C   UNL     1       2.479   8.792  18.104  0.00  0.00    +0.000 A 
ATOM      5  C   UNL     1       1.810   8.350  19.240  0.00  0.00    +0.000 A 
ATOM      6  C   UNL     1       1.946   6.989  19.600  0.00  0.00    +0.000 A 
ENDROOT
BRANCH   5   7
ATOM      7  N   UNL     1       1.040   9.203  20.069  0.00  0.00    +0.000 N 
ATOM      8  C   UNL     1       0.073  10.096  19.465  0.00  0.00    +0.000 C 
ATOM      9  C   UNL     1      -0.619  10.725  20.610  0.00  0.00    +0.000 A 
ATOM     10  C   UNL     1      -0.089  10.235  21.798  0.00  0.00    +0.000 A 
ATOM     11  C   UNL     1      -0.578  10.652  23.021  0.00  0.00    +0.000 A 
ATOM     12  C   UNL     1      -1.627  11.583  23.018  0.00  0.00    +0.000 A 
ATOM     13  C   UNL     1      -2.162  12.074  21.809  0.00  0.00    +0.000 A 
ATOM     14  C   UNL     1      -1.658  11.650  20.573  0.00  0.00    +0.000 A 
ATOM     15  C   UNL     1       0.974   9.257  21.473  0.00  0.00    +0.000 C 
ATOM     16  O   UNL     1       1.613   8.666  22.321  0.00  0.00    +0.000 OA
BRANCH  14  17
ATOM     17  C   UNL     1      -2.224  12.165  19.275  0.00  0.00    +0.000 C 
ATOM     18  F   UNL     1      -2.583  11.185  18.398  0.00  0.00    +0.000 F 
ATOM     19  F   UNL     1      -3.330  12.936  19.445  0.00  0.00    +0.000 F 
ATOM     20  F   UNL     1      -1.332  12.932  18.589  0.00  0.00    +0.000 F 
ENDBRANCH  14  17
ENDBRANCH   5   7
BRANCH   1  21
ATOM     21  C   UNL     1       2.922   4.654  19.500  0.00  0.00    +0.000 C 
ATOM     22  C   UNL     1       1.605   3.867  19.330  0.00  0.00    +0.000 C 
ATOM     23  F   UNL     1       3.140   4.724  20.864  0.00  0.00    +0.000 F 
BRANCH  21  24
ATOM     24  C   UNL     1       4.067   3.751  18.908  0.00  0.00    +0.000 C 
ATOM     25  F   UNL     1       3.665   3.292  17.681  0.00  0.00    +0.000 F 
ATOM     26  F   UNL     1       4.156   2.618  19.681  0.00  0.00    +0.000 F 
BRANCH  24  32
ATOM     27  C   UNL     1       5.883   4.132  16.298  0.00  0.00    +0.000 C 
ATOM     28  N   UNL     1       6.175   4.531  17.650  0.00  0.00    +0.000 N 
ATOM     29  C   UNL     1       7.294   5.218  18.016  0.00  0.00    +0.000 A 
ATOM     30  N   UNL     1       7.286   5.418  19.309  0.00  0.00    +0.000 NA
ATOM     31  N   UNL     1       6.126   4.879  19.802  0.00  0.00    +0.000 NA
ATOM     32  C   UNL     1       5.442   4.346  18.802  0.00  0.00    +0.000 A 
ENDBRANCH  24  32
ENDBRANCH  21  24
ENDBRANCH   1  21
TORSDOF 5
ENDMDL
MODEL 7
REMARK VINA RESULT:      -8.9      2.148      2.655
REMARK  Name = 
REMARK  7 active torsions:
REMARK  status: ('A' for Active; 'I' for Inactive)
REMARK    1  A    between atoms: C_1  and  N_2
REMARK    2  A    between atoms: C_6  and  C_7
REMARK    3  A    between atoms: C_7  and  C_10
REMARK    4  A    between atoms: C_10  and  C_11
REMARK    5  A    between atoms: C_10  and  C_13
REMARK    6  A    between atoms: C_17  and  N_18
REMARK    7  A    between atoms: C_25  and  C_26
REMARK                            x       y       z     vdW  Elec       q    Type
REMARK                         _______ _______ _______ _____ _____    ______ ____
ROOT
ATOM      1  C   UNL     1       4.381   5.281  16.923  0.00  0.00    +0.000 A 
ATOM      2  C   UNL     1       3.733   4.047  16.777  0.00  0.00    +0.000 A 
ATOM      3  C   UNL     1       2.556   3.758  17.484  0.00  0.00    +0.000 A 
ATOM      4  C   UNL     1       1.990   4.693  18.355  0.00  0.00    +0.000 A 
ATOM      5  C   UNL     1       2.632   5.907  18.572  0.00  0.00    +0.000 A 
ATOM      6  C   UNL     1       3.843   6.148  17.882  0.00  0.00    +0.000 A 
ENDROOT
BRANCH   5   7
ATOM      7  N   UNL     1       2.111   6.921  19.413  0.00  0.00    +0.000 N 
ATOM      8  C   UNL     1       1.865   8.240  18.867  0.00  0.00    +0.000 C 
ATOM      9  C   UNL     1       1.217   8.984  19.968  0.00  0.00    +0.000 A 
ATOM     10  C   UNL     1       1.096   8.157  21.079  0.00  0.00    +0.000 A 
ATOM     11  C   UNL     1       0.504   8.610  22.242  0.00  0.00    +0.000 A 
ATOM     12  C   UNL     1       0.028   9.929  22.259  0.00  0.00    +0.000 A 
ATOM     13  C   UNL     1       0.150  10.761  21.127  0.00  0.00    +0.000 A 
ATOM     14  C   UNL     1       0.756  10.297  19.952  0.00  0.00    +0.000 A 
ATOM     15  C   UNL     1       1.661   6.830  20.744  0.00  0.00    +0.000 C 
ATOM     16  O   UNL     1       1.690   5.905  21.529  0.00  0.00    +0.000 OA
BRANCH  14  17
ATOM     17  C   UNL     1       0.889  11.176  18.736  0.00  0.00    +0.000 C 
ATOM     18  F   UNL     1       2.135  11.175  18.183  0.00  0.00    +0.000 F 
ATOM     19  F   UNL     1       0.037  10.833  17.734  0.00  0.00    +0.000 F 
ATOM     20  F   UNL     1       0.636  12.486  19.013  0.00  0.00    +0.000 F 
ENDBRANCH  14  17
ENDBRANCH   5   7
BRANCH   1  21
ATOM     21  C   UNL     1       5.656   5.713  16.168  0.00  0.00    +0.000 C 
ATOM     22  C   UNL     1       6.565   6.578  17.067  0.00  0.00    +0.000 C 
ATOM     23  F   UNL     1       5.296   6.528  15.110  0.00  0.00    +0.000 F 
BRANCH  21  24
ATOM     24  C   UNL     1       6.562   4.575  15.570  0.00  0.00    +0.000 C 
ATOM     25  F   UNL     1       5.848   3.406  15.574  0.00  0.00    +0.000 F 
ATOM     26  F   UNL     1       7.592   4.346  16.451  0.00  0.00    +0.000 F 
BRANCH  24  32
ATOM     27  C   UNL     1       5.614   3.390  12.750  0.00  0.00    +0.000 C 
ATOM     28  N   UNL     1       6.695   4.304  13.012  0.00  0.00    +0.000 N 
ATOM     29  C   UNL     1       7.466   4.870  12.040  0.00  0.00    +0.000 A 
ATOM     30  N   UNL     1       8.373   5.637  12.587  0.00  0.00    +0.000 NA
ATOM     31  N   UNL     1       8.181   5.599  13.944  0.00  0.00    +0.000 NA
ATOM     32  C   UNL     1       7.160   4.799  14.210  0.00  0.00    +0.000 A 
ENDBRANCH  24  32
ENDBRANCH  21  24
ENDBRANCH   1  21
TORSDOF 5
ENDMDL
MODEL 8
REMARK VINA RESULT:      -8.8      4.340      8.948
REMARK  Name = 
REMARK  7 active torsions:
REMARK  status: ('A' for Active; 'I' for Inactive)
REMARK    1  A    between atoms: C_1  and  N_2
REMARK    2  A    between atoms: C_6  and  C_7
REMARK    3  A    between atoms: C_7  and  C_10
REMARK    4  A    between atoms: C_10  and  C_11
REMARK    5  A    between atoms: C_10  and  C_13
REMARK    6  A    between atoms: C_17  and  N_18
REMARK    7  A    between atoms: C_25  and  C_26
REMARK                            x       y       z     vdW  Elec       q    Type
REMARK                         _______ _______ _______ _____ _____    ______ ____
ROOT
ATOM      1  C   UNL     1       0.162  11.397  21.181  0.00  0.00    +0.000 A 
ATOM      2  C   UNL     1      -0.565  11.084  22.337  0.00  0.00    +0.000 A 
ATOM      3  C   UNL     1      -0.621   9.770  22.826  0.00  0.00    +0.000 A 
ATOM      4  C   UNL     1       0.049   8.730  22.176  0.00  0.00    +0.000 A 
ATOM      5  C   UNL     1       0.736   8.986  20.994  0.00  0.00    +0.000 A 
ATOM      6  C   UNL     1       0.732  10.312  20.502  0.00  0.00    +0.000 A 
ENDROOT
BRANCH   5   7
ATOM      7  N   UNL     1       1.467   7.998  20.291  0.00  0.00    +0.000 N 
ATOM      8  C   UNL     1       1.484   6.638  20.789  0.00  0.00    +0.000 C 
ATOM      9  C   UNL     1       2.219   5.873  19.759  0.00  0.00    +0.000 A 
ATOM     10  C   UNL     1       2.606   6.728  18.733  0.00  0.00    +0.000 A 
ATOM     11  C   UNL     1       3.295   6.255  17.634  0.00  0.00    +0.000 A 
ATOM     12  C   UNL     1       3.586   4.884  17.590  0.00  0.00    +0.000 A 
ATOM     13  C   UNL     1       3.188   4.021  18.632  0.00  0.00    +0.000 A 
ATOM     14  C   UNL     1       2.493   4.508  19.746  0.00  0.00    +0.000 A 
ATOM     15  C   UNL     1       2.132   8.094  19.054  0.00  0.00    +0.000 C 
ATOM     16  O   UNL     1       2.328   9.050  18.331  0.00  0.00    +0.000 OA
BRANCH  14  17
ATOM     17  C   UNL     1       2.059   3.595  20.864  0.00  0.00    +0.000 C 
ATOM     18  F   UNL     1       2.474   3.994  22.099  0.00  0.00    +0.000 F 
ATOM     19  F   UNL     1       0.710   3.461  20.949  0.00  0.00    +0.000 F 
ATOM     20  F   UNL     1       2.555   2.334  20.724  0.00  0.00    +0.000 F 
ENDBRANCH  14  17
ENDBRANCH   5   7
BRANCH   1  21
ATOM     21  C   UNL     1       0.320  12.810  20.581  0.00  0.00    +0.000 C 
ATOM     22  C   UNL     1       1.810  13.168  20.393  0.00  0.00    +0.000 C 
ATOM     23  F   UNL     1      -0.175  13.737  21.480  0.00  0.00    +0.000 F 
BRANCH  21  24
ATOM     24  C   UNL     1      -0.390  13.095  19.206  0.00  0.00    +0.000 C 
ATOM     25  F   UNL     1       0.504  12.845  18.198  0.00  0.00    +0.000 F 
ATOM     26  F   UNL     1      -0.625  14.447  19.122  0.00  0.00    +0.000 F 
BRANCH  24  32
ATOM     27  C   UNL     1      -3.187  13.356  20.743  0.00  0.00    +0.000 C 
ATOM     28  N   UNL     1      -2.880  12.556  19.586  0.00  0.00    +0.000 N 
ATOM     29  C   UNL     1      -3.799  11.809  18.911  0.00  0.00    +0.000 A 
ATOM     30  N   UNL     1      -3.217  11.182  17.921  0.00  0.00    +0.000 NA
ATOM     31  N   UNL     1      -1.894  11.545  17.925  0.00  0.00    +0.000 NA
ATOM     32  C   UNL     1      -1.682  12.384  18.926  0.00  0.00    +0.000 A 
ENDBRANCH  24  32
ENDBRANCH  21  24
ENDBRANCH   1  21
TORSDOF 5
ENDMDL
MODEL 9
REMARK VINA RESULT:      -8.8      4.210      8.994
REMARK  Name = 
REMARK  7 active torsions:
REMARK  status: ('A' for Active; 'I' for Inactive)
REMARK    1  A    between atoms: C_1  and  N_2
REMARK    2  A    between atoms: C_6  and  C_7
REMARK    3  A    between atoms: C_7  and  C_10
REMARK    4  A    between atoms: C_10  and  C_11
REMARK    5  A    between atoms: C_10  and  C_13
REMARK    6  A    between atoms: C_17  and  N_18
REMARK    7  A    between atoms: C_25  and  C_26
REMARK                            x       y       z     vdW  Elec       q    Type
REMARK                         _______ _______ _______ _____ _____    ______ ____
ROOT
ATOM      1  C   UNL     1       0.315  10.892  20.423  0.00  0.00    +0.000 A 
ATOM      2  C   UNL     1      -0.023  10.837  21.782  0.00  0.00    +0.000 A 
ATOM      3  C   UNL     1       0.254   9.697  22.552  0.00  0.00    +0.000 A 
ATOM      4  C   UNL     1       0.878   8.581  21.989  0.00  0.00    +0.000 A 
ATOM      5  C   UNL     1       1.179   8.572  20.632  0.00  0.00    +0.000 A 
ATOM      6  C   UNL     1       0.842   9.717  19.873  0.00  0.00    +0.000 A 
ENDROOT
BRANCH   5   7
ATOM      7  N   UNL     1       1.839   7.496  19.990  0.00  0.00    +0.000 N 
ATOM      8  C   UNL     1       1.678   6.153  20.508  0.00  0.00    +0.000 C 
ATOM      9  C   UNL     1       2.386   5.292  19.537  0.00  0.00    +0.000 A 
ATOM     10  C   UNL     1       2.924   6.079  18.524  0.00  0.00    +0.000 A 
ATOM     11  C   UNL     1       3.623   5.511  17.477  0.00  0.00    +0.000 A 
ATOM     12  C   UNL     1       3.765   4.116  17.471  0.00  0.00    +0.000 A 
ATOM     13  C   UNL     1       3.214   3.323  18.499  0.00  0.00    +0.000 A 
ATOM     14  C   UNL     1       2.510   3.906  19.560  0.00  0.00    +0.000 A 
ATOM     15  C   UNL     1       2.584   7.494  18.795  0.00  0.00    +0.000 C 
ATOM     16  O   UNL     1       2.926   8.408  18.072  0.00  0.00    +0.000 OA
BRANCH  14  17
ATOM     17  C   UNL     1       1.913   3.069  20.662  0.00  0.00    +0.000 C 
ATOM     18  F   UNL     1       1.905   1.731  20.401  0.00  0.00    +0.000 F 
ATOM     19  F   UNL     1       2.558   3.212  21.849  0.00  0.00    +0.000 F 
ATOM     20  F   UNL     1       0.609   3.381  20.902  0.00  0.00    +0.000 F 
ENDBRANCH  14  17
ENDBRANCH   5   7
BRANCH   1  21
ATOM     21  C   UNL     1       0.090  12.106  19.497  0.00  0.00    +0.000 C 
ATOM     22  C   UNL     1       1.342  12.385  18.637  0.00  0.00    +0.000 C 
ATOM     23  F   UNL     1      -0.086  13.237  20.274  0.00  0.00    +0.000 F 
BRANCH  21  24
ATOM     24  C   UNL     1      -1.132  12.045  18.509  0.00  0.00    +0.000 C 
ATOM     25  F   UNL     1      -1.070  10.865  17.816  0.00  0.00    +0.000 F 
ATOM     26  F   UNL     1      -0.951  13.011  17.548  0.00  0.00    +0.000 F 
BRANCH  24  32
ATOM     27  C   UNL     1      -3.965  11.426  17.150  0.00  0.00    +0.000 C 
ATOM     28  N   UNL     1      -3.704  11.902  18.482  0.00  0.00    +0.000 N 
ATOM     29  C   UNL     1      -4.672  12.108  19.420  0.00  0.00    +0.000 A 
ATOM     30  N   UNL     1      -4.130  12.559  20.522  0.00  0.00    +0.000 NA
ATOM     31  N   UNL     1      -2.776  12.626  20.318  0.00  0.00    +0.000 NA
ATOM     32  C   UNL     1      -2.507  12.222  19.086  0.00  0.00    +0.000 A 
ENDBRANCH  24  32
ENDBRANCH  21  24
ENDBRANCH   1  21
TORSDOF 5
ENDMDL
