MODEL 1
REMARK VINA RESULT:      -8.6      0.000      0.000
REMARK  Name = 
REMARK  9 active torsions:
REMARK  status: ('A' for Active; 'I' for Inactive)
REMARK    1  A    between atoms: C_1  and  C_2
REMARK    2  A    between atoms: C_4  and  C_5
REMARK    3  A    between atoms: N_7  and  C_8
REMARK    4  A    between atoms: C_12  and  C_13
REMARK    5  A    between atoms: C_13  and  C_14
REMARK    6  A    between atoms: C_13  and  C_15
REMARK    7  A    between atoms: C_15  and  C_16
REMARK    8  A    between atoms: N_20  and  C_21
REMARK    9  A    between atoms: C_24  and  C_25
REMARK                            x       y       z     vdW  Elec       q    Type
REMARK                         _______ _______ _______ _____ _____    ______ ____
ROOT
ATOM      1  C   UNL     1       2.267   8.023  18.322  0.00  0.00    +0.000 C 
ATOM      2  O   UNL     1       2.855   8.355  17.294  0.00  0.00    +0.000 OA
ATOM      3  N   UNL     1       2.176   6.742  18.844  0.00  0.00    +0.000 N 
ATOM      4  H   UNL     1       1.533   6.624  19.622  0.00  0.00    +0.000 HD
ENDROOT
BRANCH   1   8
ATOM      5  C   UNL     1       0.214  12.557  18.622  0.00  0.00    +0.000 C 
ATOM      6  C   UNL     1       0.572  11.218  19.195  0.00  0.00    +0.000 A 
ATOM      7  C   UNL     1       1.254  10.284  18.451  0.00  0.00    +0.000 A 
ATOM      8  C   UNL     1       1.523   9.082  19.078  0.00  0.00    +0.000 A 
ATOM      9  N   UNL     1       1.153   8.785  20.345  0.00  0.00    +0.000 NA
ATOM     10  C   UNL     1       0.492   9.762  21.011  0.00  0.00    +0.000 A 
ATOM     11  N   UNL     1       0.192  10.972  20.464  0.00  0.00    +0.000 NA
BRANCH  10  12
ATOM     12  C   UNL     1       0.053   9.506  22.459  0.00  0.00    +0.000 C 
ATOM     13  F   UNL     1      -0.748   8.404  22.598  0.00  0.00    +0.000 F 
ATOM     14  F   UNL     1       1.102   9.298  23.309  0.00  0.00    +0.000 F 
ATOM     15  F   UNL     1      -0.661  10.541  22.995  0.00  0.00    +0.000 F 
ENDBRANCH  10  12
ENDBRANCH   1   8
BRANCH   3  16
ATOM     16  C   UNL     1       2.748   5.580  18.272  0.00  0.00    +0.000 A 
ATOM     17  C   UNL     1       2.302   4.295  18.592  0.00  0.00    +0.000 A 
ATOM     18  C   UNL     1       2.929   3.171  18.063  0.00  0.00    +0.000 A 
ATOM     19  C   UNL     1       4.033   3.313  17.225  0.00  0.00    +0.000 A 
ATOM     20  C   UNL     1       4.511   4.587  16.887  0.00  0.00    +0.000 A 
ATOM     21  C   UNL     1       3.825   5.719  17.380  0.00  0.00    +0.000 A 
BRANCH  20  22
ATOM     22  C   UNL     1       5.800   4.747  16.078  0.00  0.00    +0.000 C 
ATOM     23  C   UNL     1       5.893   3.700  14.959  0.00  0.00    +0.000 C 
BRANCH  22  24
ATOM     24  C   UNL     1       7.033   4.695  17.018  0.00  0.00    +0.000 C 
BRANCH  24  25
ATOM     25  C   UNL     1       7.501   6.051  17.438  0.00  0.00    +0.000 A 
ATOM     26  N   UNL     1       7.565   7.118  16.664  0.00  0.00    +0.000 NA
ATOM     27  N   UNL     1       8.045   8.165  17.413  0.00  0.00    +0.000 NA
ATOM     28  C   UNL     1       8.254   7.725  18.630  0.00  0.00    +0.000 A 
ATOM     29  N   UNL     1       7.918   6.407  18.697  0.00  0.00    +0.000 N 
ATOM     30  C   UNL     1       7.992   5.592  19.880  0.00  0.00    +0.000 C 
ENDBRANCH  24  25
ENDBRANCH  22  24
ENDBRANCH  20  22
ENDBRANCH   3  16
TORSDOF 6
ENDMDL
MODEL 2
REMARK VINA RESULT:      -8.5      0.758      1.446
REMARK  Name = 
REMARK  9 active torsions:
REMARK  status: ('A' for Active; 'I' for Inactive)
REMARK    1  A    between atoms: C_1  and  C_2
REMARK    2  A    between atoms: C_4  and  C_5
REMARK    3  A    between atoms: N_7  and  C_8
REMARK    4  A    between atoms: C_12  and  C_13
REMARK    5  A    between atoms: C_13  and  C_14
REMARK    6  A    between atoms: C_13  and  C_15
REMARK    7  A    between atoms: C_15  and  C_16
REMARK    8  A    between atoms: N_20  and  C_21
REMARK    9  A    between atoms: C_24  and  C_25
REMARK                            x       y       z     vdW  Elec       q    Type
REMARK                         _______ _______ _______ _____ _____    ______ ____
ROOT
ATOM      1  C   UNL     1       2.269   8.209  18.293  0.00  0.00    +0.000 C 
ATOM      2  O   UNL     1       2.564   8.484  17.131  0.00  0.00    +0.000 OA
ATOM      3  N   UNL     1       2.486   7.001  18.936  0.00  0.00    +0.000 N 
ATOM      4  H   UNL     1       2.051   6.899  19.850  0.00  0.00    +0.000 HD
ENDROOT
BRANCH   1   8
ATOM      5  C   UNL     1       0.431  12.811  18.853  0.00  0.00    +0.000 C 
ATOM      6  C   UNL     1       0.706  11.419  19.340  0.00  0.00    +0.000 A 
ATOM      7  C   UNL     1       1.364  10.504  18.552  0.00  0.00    +0.000 A 
ATOM      8  C   UNL     1       1.555   9.251  19.101  0.00  0.00    +0.000 A 
ATOM      9  N   UNL     1       1.132   8.887  20.334  0.00  0.00    +0.000 NA
ATOM     10  C   UNL     1       0.500   9.849  21.048  0.00  0.00    +0.000 A 
ATOM     11  N   UNL     1       0.276  11.107  20.578  0.00  0.00    +0.000 NA
BRANCH  10  12
ATOM     12  C   UNL     1       0.005   9.517  22.462  0.00  0.00    +0.000 C 
ATOM     13  F   UNL     1      -0.626  10.564  23.078  0.00  0.00    +0.000 F 
ATOM     14  F   UNL     1      -0.893   8.488  22.489  0.00  0.00    +0.000 F 
ATOM     15  F   UNL     1       1.013   9.154  23.311  0.00  0.00    +0.000 F 
ENDBRANCH  10  12
ENDBRANCH   1   8
BRANCH   3  16
ATOM     16  C   UNL     1       3.090   5.859  18.356  0.00  0.00    +0.000 A 
ATOM     17  C   UNL     1       2.889   4.572  18.862  0.00  0.00    +0.000 A 
ATOM     18  C   UNL     1       3.549   3.478  18.309  0.00  0.00    +0.000 A 
ATOM     19  C   UNL     1       4.443   3.657  17.257  0.00  0.00    +0.000 A 
ATOM     20  C   UNL     1       4.673   4.936  16.727  0.00  0.00    +0.000 A 
ATOM     21  C   UNL     1       3.948   6.027  17.256  0.00  0.00    +0.000 A 
BRANCH  20  22
ATOM     22  C   UNL     1       5.751   5.157  15.664  0.00  0.00    +0.000 C 
ATOM     23  C   UNL     1       5.359   4.514  14.327  0.00  0.00    +0.000 C 
BRANCH  22  24
ATOM     24  C   UNL     1       7.121   4.638  16.173  0.00  0.00    +0.000 C 
BRANCH  24  25
ATOM     25  C   UNL     1       7.468   5.149  17.534  0.00  0.00    +0.000 A 
ATOM     26  N   UNL     1       7.706   4.407  18.598  0.00  0.00    +0.000 NA
ATOM     27  N   UNL     1       7.986   5.241  19.653  0.00  0.00    +0.000 NA
ATOM     28  C   UNL     1       7.926   6.475  19.213  0.00  0.00    +0.000 A 
ATOM     29  N   UNL     1       7.615   6.468  17.888  0.00  0.00    +0.000 N 
ATOM     30  C   UNL     1       7.487   7.637  17.060  0.00  0.00    +0.000 C 
ENDBRANCH  24  25
ENDBRANCH  22  24
ENDBRANCH  20  22
ENDBRANCH   3  16
TORSDOF 6
ENDMDL
MODEL 3
REMARK VINA RESULT:      -8.5      4.035      9.035
REMARK  Name = 
REMARK  9 active torsions:
REMARK  status: ('A' for Active; 'I' for Inactive)
REMARK    1  A    between atoms: C_1  and  C_2
REMARK    2  A    between atoms: C_4  and  C_5
REMARK    3  A    between atoms: N_7  and  C_8
REMARK    4  A    between atoms: C_12  and  C_13
REMARK    5  A    between atoms: C_13  and  C_14
REMARK    6  A    between atoms: C_13  and  C_15
REMARK    7  A    between atoms: C_15  and  C_16
REMARK    8  A    between atoms: N_20  and  C_21
REMARK    9  A    between atoms: C_24  and  C_25
REMARK                            x       y       z     vdW  Elec       q    Type
REMARK                         _______ _______ _______ _____ _____    ______ ____
ROOT
ATOM      1  C   UNL     1       2.661   6.834  19.054  0.00  0.00    +0.000 C 
ATOM      2  O   UNL     1       2.203   7.238  17.987  0.00  0.00    +0.000 OA
ATOM      3  N   UNL     1       2.319   7.280  20.321  0.00  0.00    +0.000 N 
ATOM      4  H   UNL     1       2.897   6.937  21.084  0.00  0.00    +0.000 HD
ENDROOT
BRANCH   1   8
ATOM      5  C   UNL     1       4.328   2.224  19.968  0.00  0.00    +0.000 C 
ATOM      6  C   UNL     1       4.496   3.622  19.451  0.00  0.00    +0.000 A 
ATOM      7  C   UNL     1       3.472   4.536  19.520  0.00  0.00    +0.000 A 
ATOM      8  C   UNL     1       3.737   5.791  19.006  0.00  0.00    +0.000 A 
ATOM      9  N   UNL     1       4.916   6.152  18.449  0.00  0.00    +0.000 NA
ATOM     10  C   UNL     1       5.875   5.195  18.427  0.00  0.00    +0.000 A 
ATOM     11  N   UNL     1       5.692   3.937  18.915  0.00  0.00    +0.000 NA
BRANCH  10  12
ATOM     12  C   UNL     1       7.245   5.533  17.825  0.00  0.00    +0.000 C 
ATOM     13  F   UNL     1       8.071   6.200  18.691  0.00  0.00    +0.000 F 
ATOM     14  F   UNL     1       7.948   4.428  17.435  0.00  0.00    +0.000 F 
ATOM     15  F   UNL     1       7.163   6.332  16.719  0.00  0.00    +0.000 F 
ENDBRANCH  10  12
ENDBRANCH   1   8
BRANCH   3  16
ATOM     16  C   UNL     1       1.373   8.293  20.607  0.00  0.00    +0.000 A 
ATOM     17  C   UNL     1       0.604   8.288  21.774  0.00  0.00    +0.000 A 
ATOM     18  C   UNL     1      -0.365   9.263  21.995  0.00  0.00    +0.000 A 
ATOM     19  C   UNL     1      -0.599  10.247  21.037  0.00  0.00    +0.000 A 
ATOM     20  C   UNL     1       0.150  10.280  19.851  0.00  0.00    +0.000 A 
ATOM     21  C   UNL     1       1.172   9.322  19.670  0.00  0.00    +0.000 A 
BRANCH  20  22
ATOM     22  C   UNL     1      -0.194  11.274  18.740  0.00  0.00    +0.000 C 
ATOM     23  C   UNL     1       0.844  12.401  18.656  0.00  0.00    +0.000 C 
BRANCH  22  24
ATOM     24  C   UNL     1      -1.629  11.827  18.939  0.00  0.00    +0.000 C 
BRANCH  24  25
ATOM     25  C   UNL     1      -2.535  11.522  17.790  0.00  0.00    +0.000 A 
ATOM     26  N   UNL     1      -2.152  11.103  16.598  0.00  0.00    +0.000 NA
ATOM     27  N   UNL     1      -3.272  10.938  15.819  0.00  0.00    +0.000 NA
ATOM     28  C   UNL     1      -4.317  11.247  16.550  0.00  0.00    +0.000 A 
ATOM     29  N   UNL     1      -3.905  11.609  17.796  0.00  0.00    +0.000 N 
ATOM     30  C   UNL     1      -4.773  11.991  18.877  0.00  0.00    +0.000 C 
ENDBRANCH  24  25
ENDBRANCH  22  24
ENDBRANCH  20  22
ENDBRANCH   3  16
TORSDOF 6
ENDMDL
MODEL 4
REMARK VINA RESULT:      -8.4      4.192      8.971
REMARK  Name = 
REMARK  9 active torsions:
REMARK  status: ('A' for Active; 'I' for Inactive)
REMARK    1  A    between atoms: C_1  and  C_2
REMARK    2  A    between atoms: C_4  and  C_5
REMARK    3  A    between atoms: N_7  and  C_8
REMARK    4  A    between atoms: C_12  and  C_13
REMARK    5  A    between atoms: C_13  and  C_14
REMARK    6  A    between atoms: C_13  and  C_15
REMARK    7  A    between atoms: C_15  and  C_16
REMARK    8  A    between atoms: N_20  and  C_21
REMARK    9  A    between atoms: C_24  and  C_25
REMARK                            x       y       z     vdW  Elec       q    Type
REMARK                         _______ _______ _______ _____ _____    ______ ____
ROOT
ATOM      1  C   UNL     1       2.716   6.766  19.153  0.00  0.00    +0.000 C 
ATOM      2  O   UNL     1       2.242   7.091  18.066  0.00  0.00    +0.000 OA
ATOM      3  N   UNL     1       2.409   7.320  20.386  0.00  0.00    +0.000 N 
ATOM      4  H   UNL     1       2.998   7.029  21.163  0.00  0.00    +0.000 HD
ENDROOT
BRANCH   1   8
ATOM      5  C   UNL     1       4.166   2.051  19.884  0.00  0.00    +0.000 C 
ATOM      6  C   UNL     1       4.428   3.484  19.524  0.00  0.00    +0.000 A 
ATOM      7  C   UNL     1       3.417   4.416  19.524  0.00  0.00    +0.000 A 
ATOM      8  C   UNL     1       3.772   5.702  19.169  0.00  0.00    +0.000 A 
ATOM      9  N   UNL     1       5.026   6.078  18.823  0.00  0.00    +0.000 NA
ATOM     10  C   UNL     1       5.964   5.101  18.855  0.00  0.00    +0.000 A 
ATOM     11  N   UNL     1       5.694   3.812  19.197  0.00  0.00    +0.000 NA
BRANCH  10  12
ATOM     12  C   UNL     1       7.413   5.454  18.491  0.00  0.00    +0.000 C 
ATOM     13  F   UNL     1       8.008   4.531  17.674  0.00  0.00    +0.000 F 
ATOM     14  F   UNL     1       7.526   6.645  17.832  0.00  0.00    +0.000 F 
ATOM     15  F   UNL     1       8.231   5.552  19.581  0.00  0.00    +0.000 F 
ENDBRANCH  10  12
ENDBRANCH   1   8
BRANCH   3  16
ATOM     16  C   UNL     1       1.486   8.370  20.607  0.00  0.00    +0.000 A 
ATOM     17  C   UNL     1       1.058   8.729  21.888  0.00  0.00    +0.000 A 
ATOM     18  C   UNL     1       0.101   9.724  22.067  0.00  0.00    +0.000 A 
ATOM     19  C   UNL     1      -0.465  10.358  20.965  0.00  0.00    +0.000 A 
ATOM     20  C   UNL     1      -0.063  10.021  19.664  0.00  0.00    +0.000 A 
ATOM     21  C   UNL     1       0.955   9.055  19.501  0.00  0.00    +0.000 A 
BRANCH  20  22
ATOM     22  C   UNL     1      -0.775  10.617  18.448  0.00  0.00    +0.000 C 
ATOM     23  C   UNL     1      -0.994  12.127  18.612  0.00  0.00    +0.000 C 
BRANCH  22  24
ATOM     24  C   UNL     1      -2.108   9.867  18.185  0.00  0.00    +0.000 C 
BRANCH  24  25
ATOM     25  C   UNL     1      -2.716  10.208  16.864  0.00  0.00    +0.000 A 
ATOM     26  N   UNL     1      -2.312   9.759  15.691  0.00  0.00    +0.000 NA
ATOM     27  N   UNL     1      -3.120  10.299  14.720  0.00  0.00    +0.000 NA
ATOM     28  C   UNL     1      -4.009  11.057  15.316  0.00  0.00    +0.000 A 
ATOM     29  N   UNL     1      -3.803  11.023  16.661  0.00  0.00    +0.000 N 
ATOM     30  C   UNL     1      -4.599  11.714  17.640  0.00  0.00    +0.000 C 
ENDBRANCH  24  25
ENDBRANCH  22  24
ENDBRANCH  20  22
ENDBRANCH   3  16
TORSDOF 6
ENDMDL
MODEL 5
REMARK VINA RESULT:      -8.4      4.174      9.180
REMARK  Name = 
REMARK  9 active torsions:
REMARK  status: ('A' for Active; 'I' for Inactive)
REMARK    1  A    between atoms: C_1  and  C_2
REMARK    2  A    between atoms: C_4  and  C_5
REMARK    3  A    between atoms: N_7  and  C_8
REMARK    4  A    between atoms: C_12  and  C_13
REMARK    5  A    between atoms: C_13  and  C_14
REMARK    6  A    between atoms: C_13  and  C_15
REMARK    7  A    between atoms: C_15  and  C_16
REMARK    8  A    between atoms: N_20  and  C_21
REMARK    9  A    between atoms: C_24  and  C_25
REMARK                            x       y       z     vdW  Elec       q    Type
REMARK                         _______ _______ _______ _____ _____    ______ ____
ROOT
ATOM      1  C   UNL     1       2.850   7.287  18.284  0.00  0.00    +0.000 C 
ATOM      2  O   UNL     1       2.966   8.233  17.507  0.00  0.00    +0.000 OA
ATOM      3  N   UNL     1       2.179   7.292  19.498  0.00  0.00    +0.000 N 
ATOM      4  H   UNL     1       2.304   6.466  20.078  0.00  0.00    +0.000 HD
ENDROOT
BRANCH   1   8
ATOM      5  C   UNL     1       2.823   2.338  17.670  0.00  0.00    +0.000 C 
ATOM      6  C   UNL     1       3.499   3.678  17.657  0.00  0.00    +0.000 A 
ATOM      7  C   UNL     1       2.816   4.824  17.987  0.00  0.00    +0.000 A 
ATOM      8  C   UNL     1       3.537   6.001  17.932  0.00  0.00    +0.000 A 
ATOM      9  N   UNL     1       4.840   6.081  17.573  0.00  0.00    +0.000 NA
ATOM     10  C   UNL     1       5.440   4.905  17.271  0.00  0.00    +0.000 A 
ATOM     11  N   UNL     1       4.799   3.704  17.303  0.00  0.00    +0.000 NA
BRANCH  10  12
ATOM     12  C   UNL     1       6.921   4.912  16.870  0.00  0.00    +0.000 C 
ATOM     13  F   UNL     1       7.164   4.296  15.671  0.00  0.00    +0.000 F 
ATOM     14  F   UNL     1       7.437   6.171  16.740  0.00  0.00    +0.000 F 
ATOM     15  F   UNL     1       7.725   4.273  17.772  0.00  0.00    +0.000 F 
ENDBRANCH  10  12
ENDBRANCH   1   8
BRANCH   3  16
ATOM     16  C   UNL     1       1.507   8.404  20.059  0.00  0.00    +0.000 A 
ATOM     17  C   UNL     1       1.237   8.499  21.427  0.00  0.00    +0.000 A 
ATOM     18  C   UNL     1       0.517   9.574  21.939  0.00  0.00    +0.000 A 
ATOM     19  C   UNL     1       0.030  10.561  21.085  0.00  0.00    +0.000 A 
ATOM     20  C   UNL     1       0.278  10.497  19.706  0.00  0.00    +0.000 A 
ATOM     21  C   UNL     1       1.065   9.433  19.210  0.00  0.00    +0.000 A 
BRANCH  20  22
ATOM     22  C   UNL     1      -0.365  11.503  18.749  0.00  0.00    +0.000 C 
ATOM     23  C   UNL     1       0.408  12.828  18.727  0.00  0.00    +0.000 C 
BRANCH  22  24
ATOM     24  C   UNL     1      -1.858  11.713  19.117  0.00  0.00    +0.000 C 
BRANCH  24  25
ATOM     25  C   UNL     1      -2.776  11.516  17.955  0.00  0.00    +0.000 A 
ATOM     26  N   UNL     1      -2.412  11.162  16.737  0.00  0.00    +0.000 NA
ATOM     27  N   UNL     1      -3.539  11.087  15.954  0.00  0.00    +0.000 NA
ATOM     28  C   UNL     1      -4.570  11.384  16.709  0.00  0.00    +0.000 A 
ATOM     29  N   UNL     1      -4.143  11.650  17.974  0.00  0.00    +0.000 N 
ATOM     30  C   UNL     1      -4.994  11.990  19.082  0.00  0.00    +0.000 C 
ENDBRANCH  24  25
ENDBRANCH  22  24
ENDBRANCH  20  22
ENDBRANCH   3  16
TORSDOF 6
ENDMDL
MODEL 6
REMARK VINA RESULT:      -8.3      3.699      8.878
REMARK  Name = 
REMARK  9 active torsions:
REMARK  status: ('A' for Active; 'I' for Inactive)
REMARK    1  A    between atoms: C_1  and  C_2
REMARK    2  A    between atoms: C_4  and  C_5
REMARK    3  A    between atoms: N_7  and  C_8
REMARK    4  A    between atoms: C_12  and  C_13
REMARK    5  A    between atoms: C_13  and  C_14
REMARK    6  A    between atoms: C_13  and  C_15
REMARK    7  A    between atoms: C_15  and  C_16
REMARK    8  A    between atoms: N_20  and  C_21
REMARK    9  A    between atoms: C_24  and  C_25
REMARK                            x       y       z     vdW  Elec       q    Type
REMARK                         _______ _______ _______ _____ _____    ______ ____
ROOT
ATOM      1  C   UNL     1       3.006   7.027  18.282  0.00  0.00    +0.000 C 
ATOM      2  O   UNL     1       3.442   8.006  17.679  0.00  0.00    +0.000 OA
ATOM      3  N   UNL     1       2.132   7.041  19.358  0.00  0.00    +0.000 N 
ATOM      4  H   UNL     1       1.987   6.150  19.825  0.00  0.00    +0.000 HD
ENDROOT
BRANCH   1   8
ATOM      5  C   UNL     1       6.001   4.097  15.578  0.00  0.00    +0.000 C 
ATOM      6  C   UNL     1       4.907   4.319  16.581  0.00  0.00    +0.000 A 
ATOM      7  C   UNL     1       4.503   5.587  16.926  0.00  0.00    +0.000 A 
ATOM      8  C   UNL     1       3.494   5.672  17.865  0.00  0.00    +0.000 A 
ATOM      9  N   UNL     1       2.906   4.602  18.450  0.00  0.00    +0.000 NA
ATOM     10  C   UNL     1       3.357   3.390  18.049  0.00  0.00    +0.000 A 
ATOM     11  N   UNL     1       4.345   3.224  17.127  0.00  0.00    +0.000 NA
BRANCH  10  12
ATOM     12  C   UNL     1       2.728   2.128  18.655  0.00  0.00    +0.000 C 
ATOM     13  F   UNL     1       2.571   2.197  20.013  0.00  0.00    +0.000 F 
ATOM     14  F   UNL     1       1.483   1.859  18.162  0.00  0.00    +0.000 F 
ATOM     15  F   UNL     1       3.468   1.000  18.434  0.00  0.00    +0.000 F 
ENDBRANCH  10  12
ENDBRANCH   1   8
BRANCH   3  16
ATOM     16  C   UNL     1       1.586   8.202  19.956  0.00  0.00    +0.000 A 
ATOM     17  C   UNL     1       1.452   8.333  21.341  0.00  0.00    +0.000 A 
ATOM     18  C   UNL     1       0.852   9.460  21.896  0.00  0.00    +0.000 A 
ATOM     19  C   UNL     1       0.351  10.465  21.071  0.00  0.00    +0.000 A 
ATOM     20  C   UNL     1       0.464  10.365  19.677  0.00  0.00    +0.000 A 
ATOM     21  C   UNL     1       1.132   9.246  19.132  0.00  0.00    +0.000 A 
BRANCH  20  22
ATOM     22  C   UNL     1      -0.202  11.397  18.764  0.00  0.00    +0.000 C 
ATOM     23  C   UNL     1       0.539  12.740  18.804  0.00  0.00    +0.000 C 
BRANCH  22  24
ATOM     24  C   UNL     1      -1.700  11.555  19.136  0.00  0.00    +0.000 C 
BRANCH  24  25
ATOM     25  C   UNL     1      -2.608  11.423  17.957  0.00  0.00    +0.000 A 
ATOM     26  N   UNL     1      -2.245  11.060  16.741  0.00  0.00    +0.000 NA
ATOM     27  N   UNL     1      -3.361  11.059  15.940  0.00  0.00    +0.000 NA
ATOM     28  C   UNL     1      -4.385  11.410  16.679  0.00  0.00    +0.000 A 
ATOM     29  N   UNL     1      -3.964  11.638  17.954  0.00  0.00    +0.000 N 
ATOM     30  C   UNL     1      -4.813  12.018  19.051  0.00  0.00    +0.000 C 
ENDBRANCH  24  25
ENDBRANCH  22  24
ENDBRANCH  20  22
ENDBRANCH   3  16
TORSDOF 6
ENDMDL
MODEL 7
REMARK VINA RESULT:      -8.3      4.157      9.064
REMARK  Name = 
REMARK  9 active torsions:
REMARK  status: ('A' for Active; 'I' for Inactive)
REMARK    1  A    between atoms: C_1  and  C_2
REMARK    2  A    between atoms: C_4  and  C_5
REMARK    3  A    between atoms: N_7  and  C_8
REMARK    4  A    between atoms: C_12  and  C_13
REMARK    5  A    between atoms: C_13  and  C_14
REMARK    6  A    between atoms: C_13  and  C_15
REMARK    7  A    between atoms: C_15  and  C_16
REMARK    8  A    between atoms: N_20  and  C_21
REMARK    9  A    between atoms: C_24  and  C_25
REMARK                            x       y       z     vdW  Elec       q    Type
REMARK                         _______ _______ _______ _____ _____    ______ ____
ROOT
ATOM      1  C   UNL     1       2.005   6.288  19.862  0.00  0.00    +0.000 C 
ATOM      2  O   UNL     1       1.309   5.778  20.738  0.00  0.00    +0.000 OA
ATOM      3  N   UNL     1       2.069   7.634  19.536  0.00  0.00    +0.000 N 
ATOM      4  H   UNL     1       2.588   7.863  18.693  0.00  0.00    +0.000 HD
ENDROOT
BRANCH   1   8
ATOM      5  C   UNL     1       3.656   1.748  18.625  0.00  0.00    +0.000 C 
ATOM      6  C   UNL     1       3.604   3.238  18.454  0.00  0.00    +0.000 A 
ATOM      7  C   UNL     1       2.816   4.021  19.264  0.00  0.00    +0.000 A 
ATOM      8  C   UNL     1       2.840   5.379  19.010  0.00  0.00    +0.000 A 
ATOM      9  N   UNL     1       3.570   5.957  18.029  0.00  0.00    +0.000 NA
ATOM     10  C   UNL     1       4.324   5.116  17.281  0.00  0.00    +0.000 A 
ATOM     11  N   UNL     1       4.356   3.768  17.470  0.00  0.00    +0.000 NA
BRANCH  10  12
ATOM     12  C   UNL     1       5.192   5.699  16.158  0.00  0.00    +0.000 C 
ATOM     13  F   UNL     1       6.499   5.885  16.521  0.00  0.00    +0.000 F 
ATOM     14  F   UNL     1       5.236   4.907  15.046  0.00  0.00    +0.000 F 
ATOM     15  F   UNL     1       4.760   6.922  15.726  0.00  0.00    +0.000 F 
ENDBRANCH  10  12
ENDBRANCH   1   8
BRANCH   3  16
ATOM     16  C   UNL     1       1.330   8.665  20.164  0.00  0.00    +0.000 A 
ATOM     17  C   UNL     1       1.200   8.749  21.553  0.00  0.00    +0.000 A 
ATOM     18  C   UNL     1       0.413   9.738  22.138  0.00  0.00    +0.000 A 
ATOM     19  C   UNL     1      -0.281  10.644  21.339  0.00  0.00    +0.000 A 
ATOM     20  C   UNL     1      -0.179  10.586  19.941  0.00  0.00    +0.000 A 
ATOM     21  C   UNL     1       0.674   9.618  19.366  0.00  0.00    +0.000 A 
BRANCH  20  22
ATOM     22  C   UNL     1      -1.041  11.490  19.058  0.00  0.00    +0.000 C 
ATOM     23  C   UNL     1      -1.164  12.900  19.651  0.00  0.00    +0.000 C 
BRANCH  22  24
ATOM     24  C   UNL     1      -2.430  10.841  18.822  0.00  0.00    +0.000 C 
BRANCH  24  25
ATOM     25  C   UNL     1      -2.734  10.628  17.374  0.00  0.00    +0.000 A 
ATOM     26  N   UNL     1      -1.995   9.937  16.526  0.00  0.00    +0.000 NA
ATOM     27  N   UNL     1      -2.604   9.974  15.295  0.00  0.00    +0.000 NA
ATOM     28  C   UNL     1      -3.706  10.673  15.414  0.00  0.00    +0.000 A 
ATOM     29  N   UNL     1      -3.836  11.096  16.702  0.00  0.00    +0.000 N 
ATOM     30  C   UNL     1      -4.935  11.870  17.214  0.00  0.00    +0.000 C 
ENDBRANCH  24  25
ENDBRANCH  22  24
ENDBRANCH  20  22
ENDBRANCH   3  16
TORSDOF 6
ENDMDL
MODEL 8
REMARK VINA RESULT:      -8.3      3.465      8.884
REMARK  Name = 
REMARK  9 active torsions:
REMARK  status: ('A' for Active; 'I' for Inactive)
REMARK    1  A    between atoms: C_1  and  C_2
REMARK    2  A    between atoms: C_4  and  C_5
REMARK    3  A    between atoms: N_7  and  C_8
REMARK    4  A    between atoms: C_12  and  C_13
REMARK    5  A    between atoms: C_13  and  C_14
REMARK    6  A    between atoms: C_13  and  C_15
REMARK    7  A    between atoms: C_15  and  C_16
REMARK    8  A    between atoms: N_20  and  C_21
REMARK    9  A    between atoms: C_24  and  C_25
REMARK                            x       y       z     vdW  Elec       q    Type
REMARK                         _______ _______ _______ _____ _____    ______ ____
ROOT
ATOM      1  C   UNL     1       1.865   7.724  19.795  0.00  0.00    +0.000 C 
ATOM      2  O   UNL     1       2.124   8.604  18.977  0.00  0.00    +0.000 OA
ATOM      3  N   UNL     1       1.073   7.853  20.925  0.00  0.00    +0.000 N 
ATOM      4  H   UNL     1       1.081   7.065  21.567  0.00  0.00    +0.000 HD
ENDROOT
BRANCH   1   8
ATOM      5  C   UNL     1       5.264   4.752  17.676  0.00  0.00    +0.000 C 
ATOM      6  C   UNL     1       4.101   5.005  18.591  0.00  0.00    +0.000 A 
ATOM      7  C   UNL     1       3.562   6.262  18.728  0.00  0.00    +0.000 A 
ATOM      8  C   UNL     1       2.500   6.379  19.603  0.00  0.00    +0.000 A 
ATOM      9  N   UNL     1       1.984   5.350  20.317  0.00  0.00    +0.000 NA
ATOM     10  C   UNL     1       2.568   4.144  20.117  0.00  0.00    +0.000 A 
ATOM     11  N   UNL     1       3.616   3.948  19.271  0.00  0.00    +0.000 NA
BRANCH  10  12
ATOM     12  C   UNL     1       2.028   2.926  20.879  0.00  0.00    +0.000 C 
ATOM     13  F   UNL     1       2.857   2.499  21.881  0.00  0.00    +0.000 F 
ATOM     14  F   UNL     1       0.824   3.160  21.482  0.00  0.00    +0.000 F 
ATOM     15  F   UNL     1       1.837   1.834  20.079  0.00  0.00    +0.000 F 
ENDBRANCH  10  12
ENDBRANCH   1   8
BRANCH   3  16
ATOM     16  C   UNL     1       0.420   9.040  21.337  0.00  0.00    +0.000 A 
ATOM     17  C   UNL     1       0.032   9.254  22.662  0.00  0.00    +0.000 A 
ATOM     18  C   UNL     1      -0.667  10.403  23.024  0.00  0.00    +0.000 A 
ATOM     19  C   UNL     1      -1.014  11.345  22.058  0.00  0.00    +0.000 A 
ATOM     20  C   UNL     1      -0.645  11.160  20.717  0.00  0.00    +0.000 A 
ATOM     21  C   UNL     1       0.119  10.021  20.377  0.00  0.00    +0.000 A 
BRANCH  20  22
ATOM     22  C   UNL     1      -1.137  12.121  19.633  0.00  0.00    +0.000 C 
ATOM     23  C   UNL     1      -0.832  13.580  19.998  0.00  0.00    +0.000 C 
BRANCH  22  24
ATOM     24  C   UNL     1      -2.649  11.899  19.365  0.00  0.00    +0.000 C 
BRANCH  24  25
ATOM     25  C   UNL     1      -2.938  11.510  17.952  0.00  0.00    +0.000 A 
ATOM     26  N   UNL     1      -2.039  11.323  17.005  0.00  0.00    +0.000 NA
ATOM     27  N   UNL     1      -2.695  10.978  15.848  0.00  0.00    +0.000 NA
ATOM     28  C   UNL     1      -3.980  10.948  16.111  0.00  0.00    +0.000 A 
ATOM     29  N   UNL     1      -4.180  11.265  17.420  0.00  0.00    +0.000 N 
ATOM     30  C   UNL     1      -5.460  11.310  18.075  0.00  0.00    +0.000 C 
ENDBRANCH  24  25
ENDBRANCH  22  24
ENDBRANCH  20  22
ENDBRANCH   3  16
TORSDOF 6
ENDMDL
MODEL 9
REMARK VINA RESULT:      -8.2      3.611      9.092
REMARK  Name = 
REMARK  9 active torsions:
REMARK  status: ('A' for Active; 'I' for Inactive)
REMARK    1  A    between atoms: C_1  and  C_2
REMARK    2  A    between atoms: C_4  and  C_5
REMARK    3  A    between atoms: N_7  and  C_8
REMARK    4  A    between atoms: C_12  and  C_13
REMARK    5  A    between atoms: C_13  and  C_14
REMARK    6  A    between atoms: C_13  and  C_15
REMARK    7  A    between atoms: C_15  and  C_16
REMARK    8  A    between atoms: N_20  and  C_21
REMARK    9  A    between atoms: C_24  and  C_25
REMARK                            x       y       z     vdW  Elec       q    Type
REMARK                         _______ _______ _______ _____ _____    ______ ____
ROOT
ATOM      1  C   UNL     1       2.285   7.740  18.756  0.00  0.00    +0.000 C 
ATOM      2  O   UNL     1       1.968   7.758  19.944  0.00  0.00    +0.000 OA
ATOM      3  N   UNL     1       2.113   8.766  17.840  0.00  0.00    +0.000 N 
ATOM      4  H   UNL     1       2.301   8.531  16.869  0.00  0.00    +0.000 HD
ENDROOT
BRANCH   1   8
ATOM      5  C   UNL     1       5.760   5.308  16.135  0.00  0.00    +0.000 C 
ATOM      6  C   UNL     1       4.511   5.358  16.965  0.00  0.00    +0.000 A 
ATOM      7  C   UNL     1       4.022   6.549  17.446  0.00  0.00    +0.000 A 
ATOM      8  C   UNL     1       2.871   6.475  18.205  0.00  0.00    +0.000 A 
ATOM      9  N   UNL     1       2.224   5.322  18.497  0.00  0.00    +0.000 NA
ATOM     10  C   UNL     1       2.767   4.194  17.978  0.00  0.00    +0.000 A 
ATOM     11  N   UNL     1       3.897   4.186  17.219  0.00  0.00    +0.000 NA
BRANCH  10  12
ATOM     12  C   UNL     1       2.082   2.849  18.252  0.00  0.00    +0.000 C 
ATOM     13  F   UNL     1       0.720   2.942  18.350  0.00  0.00    +0.000 F 
ATOM     14  F   UNL     1       2.310   1.921  17.275  0.00  0.00    +0.000 F 
ATOM     15  F   UNL     1       2.489   2.267  19.420  0.00  0.00    +0.000 F 
ENDBRANCH  10  12
ENDBRANCH   1   8
BRANCH   3  16
ATOM     16  C   UNL     1       1.532  10.027  18.120  0.00  0.00    +0.000 A 
ATOM     17  C   UNL     1       2.298  11.189  18.243  0.00  0.00    +0.000 A 
ATOM     18  C   UNL     1       1.704  12.402  18.582  0.00  0.00    +0.000 A 
ATOM     19  C   UNL     1       0.335  12.466  18.832  0.00  0.00    +0.000 A 
ATOM     20  C   UNL     1      -0.463  11.318  18.723  0.00  0.00    +0.000 A 
ATOM     21  C   UNL     1       0.143  10.109  18.316  0.00  0.00    +0.000 A 
BRANCH  20  22
ATOM     22  C   UNL     1      -1.939  11.353  19.126  0.00  0.00    +0.000 C 
ATOM     23  C   UNL     1      -2.853  11.059  17.929  0.00  0.00    +0.000 C 
BRANCH  22  24
ATOM     24  C   UNL     1      -2.281  12.712  19.791  0.00  0.00    +0.000 C 
BRANCH  24  25
ATOM     25  C   UNL     1      -2.877  12.559  21.153  0.00  0.00    +0.000 A 
ATOM     26  N   UNL     1      -4.161  12.648  21.446  0.00  0.00    +0.000 NA
ATOM     27  N   UNL     1      -4.310  12.451  22.797  0.00  0.00    +0.000 NA
ATOM     28  C   UNL     1      -3.120  12.234  23.303  0.00  0.00    +0.000 A 
ATOM     29  N   UNL     1      -2.191  12.282  22.309  0.00  0.00    +0.000 N 
ATOM     30  C   UNL     1      -0.779  12.067  22.482  0.00  0.00    +0.000 C 
ENDBRANCH  24  25
ENDBRANCH  22  24
ENDBRANCH  20  22
ENDBRANCH   3  16
TORSDOF 6
ENDMDL
