MODEL 1
REMARK VINA RESULT:      -9.2      0.000      0.000
REMARK  Name = 
REMARK  9 active torsions:
REMARK  status: ('A' for Active; 'I' for Inactive)
REMARK    1  A    between atoms: C_1  and  C_2
REMARK    2  A    between atoms: C_2  and  C_3
REMARK    3  A    between atoms: C_2  and  C_10
REMARK    4  A    between atoms: C_3  and  C_4
REMARK    5  A    between atoms: N_8  and  C_9
REMARK    6  A    between atoms: C_14  and  N_15
REMARK    7  A    between atoms: C_16  and  C_18
REMARK    8  A    between atoms: C_20  and  C_21
REMARK    9  A    between atoms: C_27  and  O_28
REMARK                            x       y       z     vdW  Elec       q    Type
REMARK                         _______ _______ _______ _____ _____    ______ ____
ROOT
ATOM      1  N   UNL     1       2.038   7.057  18.937  0.00  0.00    +0.000 N 
ATOM      2  C   UNL     1       2.004   8.311  18.364  0.00  0.00    +0.000 C 
ATOM      3  O   UNL     1       2.334   8.602  17.214  0.00  0.00    +0.000 OA
ATOM      4  H   UNL     1       1.595   6.976  19.847  0.00  0.00    +0.000 HD
ENDROOT
BRANCH   1   9
ATOM      5  C   UNL     1       4.416   4.814  17.160  0.00  0.00    +0.000 A 
ATOM      6  C   UNL     1       3.662   3.634  17.095  0.00  0.00    +0.000 A 
ATOM      7  C   UNL     1       2.388   3.574  17.644  0.00  0.00    +0.000 A 
ATOM      8  C   UNL     1       1.840   4.696  18.260  0.00  0.00    +0.000 A 
ATOM      9  C   UNL     1       2.557   5.892  18.332  0.00  0.00    +0.000 A 
ATOM     10  C   UNL     1       3.836   5.949  17.767  0.00  0.00    +0.000 A 
BRANCH   5  12
ATOM     11  C   UNL     1       6.924   4.617  17.611  0.00  0.00    +0.000 C 
ATOM     12  C   UNL     1       5.823   4.916  16.580  0.00  0.00    +0.000 C 
BRANCH  12  13
ATOM     13  C   UNL     1       5.933   4.007  15.338  0.00  0.00    +0.000 C 
BRANCH  13  14
ATOM     14  C   UNL     1       6.832   4.577  14.293  0.00  0.00    +0.000 A 
ATOM     15  N   UNL     1       7.744   5.511  14.479  0.00  0.00    +0.000 NA
ATOM     16  N   UNL     1       8.356   5.761  13.275  0.00  0.00    +0.000 NA
ATOM     17  C   UNL     1       7.801   4.981  12.377  0.00  0.00    +0.000 A 
ATOM     18  N   UNL     1       6.842   4.220  12.969  0.00  0.00    +0.000 N 
ATOM     19  C   UNL     1       6.012   3.247  12.312  0.00  0.00    +0.000 C 
ENDBRANCH  13  14
ENDBRANCH  12  13
ENDBRANCH   5  12
ENDBRANCH   1   9
BRANCH   2  20
ATOM     20  C   UNL     1       1.470   9.395  19.234  0.00  0.00    +0.000 A 
ATOM     21  C   UNL     1       1.331  10.656  18.673  0.00  0.00    +0.000 A 
ATOM     22  C   UNL     1       0.772  11.668  19.435  0.00  0.00    +0.000 A 
ATOM     23  C   UNL     1       0.455  11.412  20.769  0.00  0.00    +0.000 A 
ATOM     24  C   UNL     1       0.667  10.129  21.262  0.00  0.00    +0.000 A 
ATOM     25  N   UNL     1       1.144   9.100  20.521  0.00  0.00    +0.000 NA
BRANCH  22  26
ATOM     26  C   UNL     1       0.651  13.043  18.883  0.00  0.00    +0.000 C 
ATOM     27  O   UNL     1      -0.299  13.279  18.142  0.00  0.00    +0.000 OA
ATOM     28  N   UNL     1       1.566  14.016  19.267  0.00  0.00    +0.000 N 
ATOM     29  C   UNL     1       1.336  15.420  18.950  0.00  0.00    +0.000 C 
ATOM     30  C   UNL     1       2.703  15.967  18.586  0.00  0.00    +0.000 C 
ATOM     31  F   UNL     1       2.955  15.697  17.269  0.00  0.00    +0.000 F 
ATOM     32  C   UNL     1       3.671  15.149  19.433  0.00  0.00    +0.000 C 
ATOM     33  C   UNL     1       2.971  13.797  19.612  0.00  0.00    +0.000 C 
BRANCH  32  34
ATOM     34  O   UNL     1       4.929  15.003  18.782  0.00  0.00    +0.000 OA
ATOM     35  H   UNL     1       4.743  14.588  17.915  0.00  0.00    +0.000 HD
ENDBRANCH  32  34
ENDBRANCH  22  26
ENDBRANCH   2  20
TORSDOF 7
ENDMDL
MODEL 2
REMARK VINA RESULT:      -8.8      1.260      1.332
REMARK  Name = 
REMARK  9 active torsions:
REMARK  status: ('A' for Active; 'I' for Inactive)
REMARK    1  A    between atoms: C_1  and  C_2
REMARK    2  A    between atoms: C_2  and  C_3
REMARK    3  A    between atoms: C_2  and  C_10
REMARK    4  A    between atoms: C_3  and  C_4
REMARK    5  A    between atoms: N_8  and  C_9
REMARK    6  A    between atoms: C_14  and  N_15
REMARK    7  A    between atoms: C_16  and  C_18
REMARK    8  A    between atoms: C_20  and  C_21
REMARK    9  A    between atoms: C_27  and  O_28
REMARK                            x       y       z     vdW  Elec       q    Type
REMARK                         _______ _______ _______ _____ _____    ______ ____
ROOT
ATOM      1  N   UNL     1       2.293   7.339  19.041  0.00  0.00    +0.000 N 
ATOM      2  C   UNL     1       1.685   7.270  20.277  0.00  0.00    +0.000 C 
ATOM      3  O   UNL     1       1.597   6.275  20.997  0.00  0.00    +0.000 OA
ATOM      4  H   UNL     1       2.398   8.271  18.652  0.00  0.00    +0.000 HD
ENDROOT
BRANCH   1   9
ATOM      5  C   UNL     1       4.723   5.328  17.068  0.00  0.00    +0.000 A 
ATOM      6  C   UNL     1       4.002   4.137  16.901  0.00  0.00    +0.000 A 
ATOM      7  C   UNL     1       2.732   3.993  17.446  0.00  0.00    +0.000 A 
ATOM      8  C   UNL     1       2.157   5.041  18.160  0.00  0.00    +0.000 A 
ATOM      9  C   UNL     1       2.841   6.247  18.334  0.00  0.00    +0.000 A 
ATOM     10  C   UNL     1       4.115   6.388  17.774  0.00  0.00    +0.000 A 
BRANCH   5  12
ATOM     11  C   UNL     1       7.188   5.773  17.576  0.00  0.00    +0.000 C 
ATOM     12  C   UNL     1       6.125   5.519  16.496  0.00  0.00    +0.000 C 
BRANCH  12  13
ATOM     13  C   UNL     1       6.484   4.311  15.605  0.00  0.00    +0.000 C 
BRANCH  13  14
ATOM     14  C   UNL     1       7.075   4.723  14.299  0.00  0.00    +0.000 A 
ATOM     15  N   UNL     1       8.070   5.572  14.130  0.00  0.00    +0.000 NA
ATOM     16  N   UNL     1       8.317   5.685  12.784  0.00  0.00    +0.000 NA
ATOM     17  C   UNL     1       7.464   4.910  12.157  0.00  0.00    +0.000 A 
ATOM     18  N   UNL     1       6.666   4.286  13.066  0.00  0.00    +0.000 N 
ATOM     19  C   UNL     1       5.608   3.361  12.765  0.00  0.00    +0.000 C 
ENDBRANCH  13  14
ENDBRANCH  12  13
ENDBRANCH   5  12
ENDBRANCH   1   9
BRANCH   2  20
ATOM     20  C   UNL     1       1.123   8.552  20.783  0.00  0.00    +0.000 A 
ATOM     21  C   UNL     1       0.982   9.591  19.877  0.00  0.00    +0.000 A 
ATOM     22  C   UNL     1       0.398  10.773  20.300  0.00  0.00    +0.000 A 
ATOM     23  C   UNL     1       0.059  10.914  21.646  0.00  0.00    +0.000 A 
ATOM     24  C   UNL     1       0.275   9.834  22.496  0.00  0.00    +0.000 A 
ATOM     25  N   UNL     1       0.777   8.641  22.095  0.00  0.00    +0.000 NA
BRANCH  22  26
ATOM     26  C   UNL     1       0.273  11.926  19.369  0.00  0.00    +0.000 C 
ATOM     27  O   UNL     1      -0.466  11.795  18.397  0.00  0.00    +0.000 OA
ATOM     28  N   UNL     1       0.937  13.112  19.656  0.00  0.00    +0.000 N 
ATOM     29  C   UNL     1       0.642  14.329  18.912  0.00  0.00    +0.000 C 
ATOM     30  C   UNL     1       1.985  15.008  18.725  0.00  0.00    +0.000 C 
ATOM     31  F   UNL     1       2.607  14.472  17.631  0.00  0.00    +0.000 F 
ATOM     32  C   UNL     1       2.780  14.613  19.965  0.00  0.00    +0.000 C 
ATOM     33  C   UNL     1       2.215  13.243  20.357  0.00  0.00    +0.000 C 
BRANCH  32  34
ATOM     34  O   UNL     1       4.174  14.542  19.683  0.00  0.00    +0.000 OA
ATOM     35  H   UNL     1       4.494  13.711  20.091  0.00  0.00    +0.000 HD
ENDBRANCH  32  34
ENDBRANCH  22  26
ENDBRANCH   2  20
TORSDOF 7
ENDMDL
MODEL 3
REMARK VINA RESULT:      -8.7      2.817      3.847
REMARK  Name = 
REMARK  9 active torsions:
REMARK  status: ('A' for Active; 'I' for Inactive)
REMARK    1  A    between atoms: C_1  and  C_2
REMARK    2  A    between atoms: C_2  and  C_3
REMARK    3  A    between atoms: C_2  and  C_10
REMARK    4  A    between atoms: C_3  and  C_4
REMARK    5  A    between atoms: N_8  and  C_9
REMARK    6  A    between atoms: C_14  and  N_15
REMARK    7  A    between atoms: C_16  and  C_18
REMARK    8  A    between atoms: C_20  and  C_21
REMARK    9  A    between atoms: C_27  and  O_28
REMARK                            x       y       z     vdW  Elec       q    Type
REMARK                         _______ _______ _______ _____ _____    ______ ____
ROOT
ATOM      1  N   UNL     1       2.200   7.124  18.753  0.00  0.00    +0.000 N 
ATOM      2  C   UNL     1       1.818   7.256  20.072  0.00  0.00    +0.000 C 
ATOM      3  O   UNL     1       1.956   6.419  20.964  0.00  0.00    +0.000 OA
ATOM      4  H   UNL     1       2.141   7.967  18.190  0.00  0.00    +0.000 HD
ENDROOT
BRANCH   1   9
ATOM      5  C   UNL     1       4.639   4.847  17.107  0.00  0.00    +0.000 A 
ATOM      6  C   UNL     1       3.864   3.686  16.973  0.00  0.00    +0.000 A 
ATOM      7  C   UNL     1       2.554   3.650  17.434  0.00  0.00    +0.000 A 
ATOM      8  C   UNL     1       1.992   4.777  18.029  0.00  0.00    +0.000 A 
ATOM      9  C   UNL     1       2.731   5.955  18.166  0.00  0.00    +0.000 A 
ATOM     10  C   UNL     1       4.047   5.988  17.691  0.00  0.00    +0.000 A 
BRANCH   5  12
ATOM     11  C   UNL     1       7.109   4.691  17.748  0.00  0.00    +0.000 C 
ATOM     12  C   UNL     1       6.085   4.922  16.625  0.00  0.00    +0.000 C 
BRANCH  12  13
ATOM     13  C   UNL     1       6.285   3.942  15.450  0.00  0.00    +0.000 C 
BRANCH  13  14
ATOM     14  C   UNL     1       6.997   4.570  14.299  0.00  0.00    +0.000 A 
ATOM     15  N   UNL     1       7.913   5.515  14.376  0.00  0.00    +0.000 NA
ATOM     16  N   UNL     1       8.321   5.824  13.101  0.00  0.00    +0.000 NA
ATOM     17  C   UNL     1       7.641   5.068  12.272  0.00  0.00    +0.000 A 
ATOM     18  N   UNL     1       6.799   4.265  12.978  0.00  0.00    +0.000 N 
ATOM     19  C   UNL     1       5.889   3.301  12.422  0.00  0.00    +0.000 C 
ENDBRANCH  13  14
ENDBRANCH  12  13
ENDBRANCH   5  12
ENDBRANCH   1   9
BRANCH   2  20
ATOM     20  C   UNL     1       1.220   8.571  20.433  0.00  0.00    +0.000 A 
ATOM     21  C   UNL     1       0.603   9.293  19.423  0.00  0.00    +0.000 A 
ATOM     22  C   UNL     1      -0.023  10.486  19.741  0.00  0.00    +0.000 A 
ATOM     23  C   UNL     1       0.069  10.969  21.046  0.00  0.00    +0.000 A 
ATOM     24  C   UNL     1       0.744  10.200  21.987  0.00  0.00    +0.000 A 
ATOM     25  N   UNL     1       1.304   8.995  21.723  0.00  0.00    +0.000 NA
BRANCH  22  26
ATOM     26  C   UNL     1      -0.654  11.311  18.676  0.00  0.00    +0.000 C 
ATOM     27  O   UNL     1      -0.164  12.412  18.444  0.00  0.00    +0.000 OA
ATOM     28  N   UNL     1      -1.720  10.792  17.951  0.00  0.00    +0.000 N 
ATOM     29  C   UNL     1      -2.196  11.461  16.747  0.00  0.00    +0.000 C 
ATOM     30  C   UNL     1      -3.706  11.327  16.797  0.00  0.00    +0.000 C 
ATOM     31  F   UNL     1      -4.218  12.329  17.573  0.00  0.00    +0.000 F 
ATOM     32  C   UNL     1      -3.940  10.002  17.515  0.00  0.00    +0.000 C 
ATOM     33  C   UNL     1      -2.730   9.855  18.444  0.00  0.00    +0.000 C 
BRANCH  32  34
ATOM     34  O   UNL     1      -5.161  10.022  18.248  0.00  0.00    +0.000 OA
ATOM     35  H   UNL     1      -5.487   9.099  18.263  0.00  0.00    +0.000 HD
ENDBRANCH  32  34
ENDBRANCH  22  26
ENDBRANCH   2  20
TORSDOF 7
ENDMDL
MODEL 4
REMARK VINA RESULT:      -8.7      3.003      4.043
REMARK  Name = 
REMARK  9 active torsions:
REMARK  status: ('A' for Active; 'I' for Inactive)
REMARK    1  A    between atoms: C_1  and  C_2
REMARK    2  A    between atoms: C_2  and  C_3
REMARK    3  A    between atoms: C_2  and  C_10
REMARK    4  A    between atoms: C_3  and  C_4
REMARK    5  A    between atoms: N_8  and  C_9
REMARK    6  A    between atoms: C_14  and  N_15
REMARK    7  A    between atoms: C_16  and  C_18
REMARK    8  A    between atoms: C_20  and  C_21
REMARK    9  A    between atoms: C_27  and  O_28
REMARK                            x       y       z     vdW  Elec       q    Type
REMARK                         _______ _______ _______ _____ _____    ______ ____
ROOT
ATOM      1  N   UNL     1       2.575   7.914  17.864  0.00  0.00    +0.000 N 
ATOM      2  C   UNL     1       1.968   8.402  19.002  0.00  0.00    +0.000 C 
ATOM      3  O   UNL     1       1.839   7.813  20.076  0.00  0.00    +0.000 OA
ATOM      4  H   UNL     1       2.719   8.587  17.117  0.00  0.00    +0.000 HD
ENDROOT
BRANCH   1   9
ATOM      5  C   UNL     1       4.945   5.157  17.075  0.00  0.00    +0.000 A 
ATOM      6  C   UNL     1       4.137   4.039  17.323  0.00  0.00    +0.000 A 
ATOM      7  C   UNL     1       2.828   4.192  17.760  0.00  0.00    +0.000 A 
ATOM      8  C   UNL     1       2.299   5.467  17.948  0.00  0.00    +0.000 A 
ATOM      9  C   UNL     1       3.072   6.603  17.697  0.00  0.00    +0.000 A 
ATOM     10  C   UNL     1       4.387   6.442  17.247  0.00  0.00    +0.000 A 
BRANCH   5  12
ATOM     11  C   UNL     1       7.366   4.677  17.741  0.00  0.00    +0.000 C 
ATOM     12  C   UNL     1       6.392   5.030  16.606  0.00  0.00    +0.000 C 
BRANCH  12  13
ATOM     13  C   UNL     1       6.467   4.017  15.444  0.00  0.00    +0.000 C 
BRANCH  13  14
ATOM     14  C   UNL     1       7.069   4.605  14.213  0.00  0.00    +0.000 A 
ATOM     15  N   UNL     1       7.998   5.540  14.173  0.00  0.00    +0.000 NA
ATOM     16  N   UNL     1       8.281   5.811  12.857  0.00  0.00    +0.000 NA
ATOM     17  C   UNL     1       7.514   5.043  12.119  0.00  0.00    +0.000 A 
ATOM     18  N   UNL     1       6.738   4.269  12.926  0.00  0.00    +0.000 N 
ATOM     19  C   UNL     1       5.767   3.303  12.488  0.00  0.00    +0.000 C 
ENDBRANCH  13  14
ENDBRANCH  12  13
ENDBRANCH   5  12
ENDBRANCH   1   9
BRANCH   2  20
ATOM     20  C   UNL     1       1.466   9.801  18.907  0.00  0.00    +0.000 A 
ATOM     21  C   UNL     1       0.179  10.050  19.359  0.00  0.00    +0.000 A 
ATOM     22  C   UNL     1      -0.292  11.352  19.349  0.00  0.00    +0.000 A 
ATOM     23  C   UNL     1       0.506  12.354  18.796  0.00  0.00    +0.000 A 
ATOM     24  C   UNL     1       1.768  12.007  18.326  0.00  0.00    +0.000 A 
ATOM     25  N   UNL     1       2.284  10.755  18.390  0.00  0.00    +0.000 NA
BRANCH  22  26
ATOM     26  C   UNL     1      -1.683  11.651  19.781  0.00  0.00    +0.000 C 
ATOM     27  O   UNL     1      -1.915  11.663  20.987  0.00  0.00    +0.000 OA
ATOM     28  N   UNL     1      -2.644  11.961  18.826  0.00  0.00    +0.000 N 
ATOM     29  C   UNL     1      -3.939  12.500  19.222  0.00  0.00    +0.000 C 
ATOM     30  C   UNL     1      -4.938  11.839  18.291  0.00  0.00    +0.000 C 
ATOM     31  F   UNL     1      -5.276  10.614  18.797  0.00  0.00    +0.000 F 
ATOM     32  C   UNL     1      -4.157  11.621  16.999  0.00  0.00    +0.000 C 
ATOM     33  C   UNL     1      -2.705  11.447  17.458  0.00  0.00    +0.000 C 
BRANCH  32  34
ATOM     34  O   UNL     1      -4.626  10.471  16.302  0.00  0.00    +0.000 OA
ATOM     35  H   UNL     1      -5.408  10.151  16.796  0.00  0.00    +0.000 HD
ENDBRANCH  32  34
ENDBRANCH  22  26
ENDBRANCH   2  20
TORSDOF 7
ENDMDL
MODEL 5
REMARK VINA RESULT:      -8.6      2.626      3.390
REMARK  Name = 
REMARK  9 active torsions:
REMARK  status: ('A' for Active; 'I' for Inactive)
REMARK    1  A    between atoms: C_1  and  C_2
REMARK    2  A    between atoms: C_2  and  C_3
REMARK    3  A    between atoms: C_2  and  C_10
REMARK    4  A    between atoms: C_3  and  C_4
REMARK    5  A    between atoms: N_8  and  C_9
REMARK    6  A    between atoms: C_14  and  N_15
REMARK    7  A    between atoms: C_16  and  C_18
REMARK    8  A    between atoms: C_20  and  C_21
REMARK    9  A    between atoms: C_27  and  O_28
REMARK                            x       y       z     vdW  Elec       q    Type
REMARK                         _______ _______ _______ _____ _____    ______ ____
ROOT
ATOM      1  N   UNL     1       2.333   8.098  18.135  0.00  0.00    +0.000 N 
ATOM      2  C   UNL     1       1.672   8.628  19.223  0.00  0.00    +0.000 C 
ATOM      3  O   UNL     1       1.467   8.071  20.301  0.00  0.00    +0.000 OA
ATOM      4  H   UNL     1       2.535   8.748  17.381  0.00  0.00    +0.000 HD
ENDROOT
BRANCH   1   9
ATOM      5  C   UNL     1       4.604   5.261  17.335  0.00  0.00    +0.000 A 
ATOM      6  C   UNL     1       3.829   4.176  17.769  0.00  0.00    +0.000 A 
ATOM      7  C   UNL     1       2.576   4.379  18.334  0.00  0.00    +0.000 A 
ATOM      8  C   UNL     1       2.071   5.669  18.465  0.00  0.00    +0.000 A 
ATOM      9  C   UNL     1       2.809   6.773  18.031  0.00  0.00    +0.000 A 
ATOM     10  C   UNL     1       4.066   6.561  17.454  0.00  0.00    +0.000 A 
BRANCH   5  12
ATOM     11  C   UNL     1       7.024   4.536  17.719  0.00  0.00    +0.000 C 
ATOM     12  C   UNL     1       5.989   5.080  16.722  0.00  0.00    +0.000 C 
BRANCH  12  13
ATOM     13  C   UNL     1       5.881   4.197  15.461  0.00  0.00    +0.000 C 
BRANCH  13  14
ATOM     14  C   UNL     1       6.781   4.657  14.364  0.00  0.00    +0.000 A 
ATOM     15  N   UNL     1       7.769   5.522  14.482  0.00  0.00    +0.000 NA
ATOM     16  N   UNL     1       8.352   5.681  13.249  0.00  0.00    +0.000 NA
ATOM     17  C   UNL     1       7.704   4.917  12.401  0.00  0.00    +0.000 A 
ATOM     18  N   UNL     1       6.712   4.256  13.055  0.00  0.00    +0.000 N 
ATOM     19  C   UNL     1       5.784   3.329  12.466  0.00  0.00    +0.000 C 
ENDBRANCH  13  14
ENDBRANCH  12  13
ENDBRANCH   5  12
ENDBRANCH   1   9
BRANCH   2  20
ATOM     20  C   UNL     1       1.206  10.033  19.063  0.00  0.00    +0.000 A 
ATOM     21  C   UNL     1       0.009  10.384  19.667  0.00  0.00    +0.000 A 
ATOM     22  C   UNL     1      -0.416  11.700  19.596  0.00  0.00    +0.000 A 
ATOM     23  C   UNL     1       0.325  12.607  18.838  0.00  0.00    +0.000 A 
ATOM     24  C   UNL     1       1.492  12.159  18.229  0.00  0.00    +0.000 A 
ATOM     25  N   UNL     1       1.970  10.897  18.341  0.00  0.00    +0.000 NA
BRANCH  22  26
ATOM     26  C   UNL     1      -1.717  12.103  20.192  0.00  0.00    +0.000 C 
ATOM     27  O   UNL     1      -2.693  12.149  19.449  0.00  0.00    +0.000 OA
ATOM     28  N   UNL     1      -1.796  12.352  21.557  0.00  0.00    +0.000 N 
ATOM     29  C   UNL     1      -3.089  12.502  22.212  0.00  0.00    +0.000 C 
ATOM     30  C   UNL     1      -2.887  13.612  23.225  0.00  0.00    +0.000 C 
ATOM     31  F   UNL     1      -3.047  14.819  22.603  0.00  0.00    +0.000 F 
ATOM     32  C   UNL     1      -1.425  13.480  23.639  0.00  0.00    +0.000 C 
ATOM     33  C   UNL     1      -0.733  12.895  22.403  0.00  0.00    +0.000 C 
BRANCH  32  34
ATOM     34  O   UNL     1      -0.875  14.743  23.997  0.00  0.00    +0.000 OA
ATOM     35  H   UNL     1      -0.406  14.607  24.846  0.00  0.00    +0.000 HD
ENDBRANCH  32  34
ENDBRANCH  22  26
ENDBRANCH   2  20
TORSDOF 7
ENDMDL
MODEL 6
REMARK VINA RESULT:      -8.6      2.662      3.620
REMARK  Name = 
REMARK  9 active torsions:
REMARK  status: ('A' for Active; 'I' for Inactive)
REMARK    1  A    between atoms: C_1  and  C_2
REMARK    2  A    between atoms: C_2  and  C_3
REMARK    3  A    between atoms: C_2  and  C_10
REMARK    4  A    between atoms: C_3  and  C_4
REMARK    5  A    between atoms: N_8  and  C_9
REMARK    6  A    between atoms: C_14  and  N_15
REMARK    7  A    between atoms: C_16  and  C_18
REMARK    8  A    between atoms: C_20  and  C_21
REMARK    9  A    between atoms: C_27  and  O_28
REMARK                            x       y       z     vdW  Elec       q    Type
REMARK                         _______ _______ _______ _____ _____    ______ ____
ROOT
ATOM      1  N   UNL     1       2.555   8.165  18.665  0.00  0.00    +0.000 N 
ATOM      2  C   UNL     1       1.583   8.985  18.131  0.00  0.00    +0.000 C 
ATOM      3  O   UNL     1       0.775   8.690  17.250  0.00  0.00    +0.000 OA
ATOM      4  H   UNL     1       3.038   8.526  19.481  0.00  0.00    +0.000 HD
ENDROOT
BRANCH   1   9
ATOM      5  C   UNL     1       4.509   5.332  17.252  0.00  0.00    +0.000 A 
ATOM      6  C   UNL     1       3.555   4.306  17.300  0.00  0.00    +0.000 A 
ATOM      7  C   UNL     1       2.283   4.543  17.807  0.00  0.00    +0.000 A 
ATOM      8  C   UNL     1       1.940   5.812  18.266  0.00  0.00    +0.000 A 
ATOM      9  C   UNL     1       2.862   6.861  18.220  0.00  0.00    +0.000 A 
ATOM     10  C   UNL     1       4.137   6.619  17.699  0.00  0.00    +0.000 A 
BRANCH   5  12
ATOM     11  C   UNL     1       6.895   4.579  17.778  0.00  0.00    +0.000 C 
ATOM     12  C   UNL     1       5.920   5.109  16.714  0.00  0.00    +0.000 C 
BRANCH  12  13
ATOM     13  C   UNL     1       5.858   4.187  15.478  0.00  0.00    +0.000 C 
BRANCH  13  14
ATOM     14  C   UNL     1       6.744   4.655  14.373  0.00  0.00    +0.000 A 
ATOM     15  N   UNL     1       7.735   5.518  14.486  0.00  0.00    +0.000 NA
ATOM     16  N   UNL     1       8.302   5.686  13.246  0.00  0.00    +0.000 NA
ATOM     17  C   UNL     1       7.642   4.930  12.401  0.00  0.00    +0.000 A 
ATOM     18  N   UNL     1       6.657   4.265  13.062  0.00  0.00    +0.000 N 
ATOM     19  C   UNL     1       5.721   3.344  12.477  0.00  0.00    +0.000 C 
ENDBRANCH  13  14
ENDBRANCH  12  13
ENDBRANCH   5  12
ENDBRANCH   1   9
BRANCH   2  20
ATOM     20  C   UNL     1       1.498  10.346  18.730  0.00  0.00    +0.000 A 
ATOM     21  C   UNL     1       0.681  10.509  19.837  0.00  0.00    +0.000 A 
ATOM     22  C   UNL     1       0.635  11.745  20.459  0.00  0.00    +0.000 A 
ATOM     23  C   UNL     1       1.338  12.810  19.895  0.00  0.00    +0.000 A 
ATOM     24  C   UNL     1       2.100  12.567  18.757  0.00  0.00    +0.000 A 
ATOM     25  N   UNL     1       2.221  11.352  18.169  0.00  0.00    +0.000 NA
BRANCH  22  26
ATOM     26  C   UNL     1      -0.266  11.969  21.620  0.00  0.00    +0.000 C 
ATOM     27  O   UNL     1      -0.048  11.326  22.643  0.00  0.00    +0.000 OA
ATOM     28  N   UNL     1      -1.270  12.926  21.531  0.00  0.00    +0.000 N 
ATOM     29  C   UNL     1      -2.003  13.348  22.718  0.00  0.00    +0.000 C 
ATOM     30  C   UNL     1      -3.436  13.518  22.252  0.00  0.00    +0.000 C 
ATOM     31  F   UNL     1      -4.062  12.303  22.279  0.00  0.00    +0.000 F 
ATOM     32  C   UNL     1      -3.306  13.954  20.796  0.00  0.00    +0.000 C 
ATOM     33  C   UNL     1      -1.999  13.308  20.322  0.00  0.00    +0.000 C 
BRANCH  32  34
ATOM     34  O   UNL     1      -4.418  13.510  20.024  0.00  0.00    +0.000 OA
ATOM     35  H   UNL     1      -4.838  12.790  20.538  0.00  0.00    +0.000 HD
ENDBRANCH  32  34
ENDBRANCH  22  26
ENDBRANCH   2  20
TORSDOF 7
ENDMDL
MODEL 7
REMARK VINA RESULT:      -8.5      3.408      4.528
REMARK  Name = 
REMARK  9 active torsions:
REMARK  status: ('A' for Active; 'I' for Inactive)
REMARK    1  A    between atoms: C_1  and  C_2
REMARK    2  A    between atoms: C_2  and  C_3
REMARK    3  A    between atoms: C_2  and  C_10
REMARK    4  A    between atoms: C_3  and  C_4
REMARK    5  A    between atoms: N_8  and  C_9
REMARK    6  A    between atoms: C_14  and  N_15
REMARK    7  A    between atoms: C_16  and  C_18
REMARK    8  A    between atoms: C_20  and  C_21
REMARK    9  A    between atoms: C_27  and  O_28
REMARK                            x       y       z     vdW  Elec       q    Type
REMARK                         _______ _______ _______ _____ _____    ______ ____
ROOT
ATOM      1  N   UNL     1       2.494   7.089  18.195  0.00  0.00    +0.000 N 
ATOM      2  C   UNL     1       1.985   7.475  19.417  0.00  0.00    +0.000 C 
ATOM      3  O   UNL     1       1.898   6.779  20.429  0.00  0.00    +0.000 OA
ATOM      4  H   UNL     1       2.620   7.832  17.515  0.00  0.00    +0.000 HD
ENDROOT
BRANCH   1   9
ATOM      5  C   UNL     1       4.566   4.363  16.740  0.00  0.00    +0.000 A 
ATOM      6  C   UNL     1       3.827   3.237  17.129  0.00  0.00    +0.000 A 
ATOM      7  C   UNL     1       2.663   3.374  17.875  0.00  0.00    +0.000 A 
ATOM      8  C   UNL     1       2.213   4.641  18.239  0.00  0.00    +0.000 A 
ATOM      9  C   UNL     1       2.918   5.785  17.857  0.00  0.00    +0.000 A 
ATOM     10  C   UNL     1       4.083   5.641  17.097  0.00  0.00    +0.000 A 
BRANCH   5  12
ATOM     11  C   UNL     1       5.610   3.945  14.445  0.00  0.00    +0.000 C 
ATOM     12  C   UNL     1       5.855   4.252  15.931  0.00  0.00    +0.000 C 
BRANCH  12  13
ATOM     13  C   UNL     1       6.695   5.533  16.125  0.00  0.00    +0.000 C 
BRANCH  13  14
ATOM     14  C   UNL     1       7.309   5.611  17.482  0.00  0.00    +0.000 A 
ATOM     15  N   UNL     1       7.554   4.592  18.282  0.00  0.00    +0.000 NA
ATOM     16  N   UNL     1       8.121   5.077  19.436  0.00  0.00    +0.000 NA
ATOM     17  C   UNL     1       8.203   6.382  19.320  0.00  0.00    +0.000 A 
ATOM     18  N   UNL     1       7.708   6.761  18.111  0.00  0.00    +0.000 N 
ATOM     19  C   UNL     1       7.624   8.109  17.619  0.00  0.00    +0.000 C 
ENDBRANCH  13  14
ENDBRANCH  12  13
ENDBRANCH   5  12
ENDBRANCH   1   9
BRANCH   2  20
ATOM     20  C   UNL     1       1.542   8.894  19.504  0.00  0.00    +0.000 A 
ATOM     21  C   UNL     1       0.913   9.298  20.671  0.00  0.00    +0.000 A 
ATOM     22  C   UNL     1       0.552  10.627  20.811  0.00  0.00    +0.000 A 
ATOM     23  C   UNL     1       0.746  11.495  19.736  0.00  0.00    +0.000 A 
ATOM     24  C   UNL     1       1.346  10.994  18.585  0.00  0.00    +0.000 A 
ATOM     25  N   UNL     1       1.775   9.717  18.447  0.00  0.00    +0.000 NA
BRANCH  22  26
ATOM     26  C   UNL     1      -0.166  11.087  22.029  0.00  0.00    +0.000 C 
ATOM     27  O   UNL     1       0.074  10.509  23.085  0.00  0.00    +0.000 OA
ATOM     28  N   UNL     1      -1.026  12.176  21.945  0.00  0.00    +0.000 N 
ATOM     29  C   UNL     1      -1.548  12.806  23.151  0.00  0.00    +0.000 C 
ATOM     30  C   UNL     1      -2.986  13.155  22.818  0.00  0.00    +0.000 C 
ATOM     31  F   UNL     1      -3.773  12.057  23.033  0.00  0.00    +0.000 F 
ATOM     32  C   UNL     1      -2.965  13.437  21.319  0.00  0.00    +0.000 C 
ATOM     33  C   UNL     1      -1.828  12.560  20.783  0.00  0.00    +0.000 C 
BRANCH  32  34
ATOM     34  O   UNL     1      -4.211  13.105  20.714  0.00  0.00    +0.000 OA
ATOM     35  H   UNL     1      -4.898  13.277  21.390  0.00  0.00    +0.000 HD
ENDBRANCH  32  34
ENDBRANCH  22  26
ENDBRANCH   2  20
TORSDOF 7
ENDMDL
MODEL 8
REMARK VINA RESULT:      -8.5      3.880      9.722
REMARK  Name = 
REMARK  9 active torsions:
REMARK  status: ('A' for Active; 'I' for Inactive)
REMARK    1  A    between atoms: C_1  and  C_2
REMARK    2  A    between atoms: C_2  and  C_3
REMARK    3  A    between atoms: C_2  and  C_10
REMARK    4  A    between atoms: C_3  and  C_4
REMARK    5  A    between atoms: N_8  and  C_9
REMARK    6  A    between atoms: C_14  and  N_15
REMARK    7  A    between atoms: C_16  and  C_18
REMARK    8  A    between atoms: C_20  and  C_21
REMARK    9  A    between atoms: C_27  and  O_28
REMARK                            x       y       z     vdW  Elec       q    Type
REMARK                         _______ _______ _______ _____ _____    ______ ____
ROOT
ATOM      1  N   UNL     1       1.996   7.330  20.651  0.00  0.00    +0.000 N 
ATOM      2  C   UNL     1       1.536   6.031  20.593  0.00  0.00    +0.000 C 
ATOM      3  O   UNL     1       0.376   5.655  20.754  0.00  0.00    +0.000 OA
ATOM      4  H   UNL     1       2.956   7.473  20.352  0.00  0.00    +0.000 HD
ENDROOT
BRANCH   1   9
ATOM      5  C   UNL     1       0.066  10.491  20.294  0.00  0.00    +0.000 A 
ATOM      6  C   UNL     1      -0.293  10.730  21.628  0.00  0.00    +0.000 A 
ATOM      7  C   UNL     1       0.087   9.851  22.634  0.00  0.00    +0.000 A 
ATOM      8  C   UNL     1       0.839   8.720  22.325  0.00  0.00    +0.000 A 
ATOM      9  C   UNL     1       1.225   8.458  21.009  0.00  0.00    +0.000 A 
ATOM     10  C   UNL     1       0.849   9.353  20.002  0.00  0.00    +0.000 A 
BRANCH   5  12
ATOM     11  C   UNL     1       0.833  12.246  18.601  0.00  0.00    +0.000 C 
ATOM     12  C   UNL     1      -0.342  11.426  19.160  0.00  0.00    +0.000 C 
BRANCH  12  13
ATOM     13  C   UNL     1      -1.056  10.616  18.057  0.00  0.00    +0.000 C 
BRANCH  13  14
ATOM     14  C   UNL     1      -2.473  11.041  17.865  0.00  0.00    +0.000 A 
ATOM     15  N   UNL     1      -3.225  11.659  18.755  0.00  0.00    +0.000 NA
ATOM     16  N   UNL     1      -4.462  11.873  18.198  0.00  0.00    +0.000 NA
ATOM     17  C   UNL     1      -4.443  11.376  16.983  0.00  0.00    +0.000 A 
ATOM     18  N   UNL     1      -3.217  10.845  16.731  0.00  0.00    +0.000 N 
ATOM     19  C   UNL     1      -2.810  10.206  15.509  0.00  0.00    +0.000 C 
ENDBRANCH  13  14
ENDBRANCH  12  13
ENDBRANCH   5  12
ENDBRANCH   1   9
BRANCH   2  20
ATOM     20  C   UNL     1       2.563   5.007  20.257  0.00  0.00    +0.000 A 
ATOM     21  C   UNL     1       3.713   5.439  19.613  0.00  0.00    +0.000 A 
ATOM     22  C   UNL     1       4.717   4.523  19.350  0.00  0.00    +0.000 A 
ATOM     23  C   UNL     1       4.499   3.179  19.654  0.00  0.00    +0.000 A 
ATOM     24  C   UNL     1       3.298   2.826  20.260  0.00  0.00    +0.000 A 
ATOM     25  N   UNL     1       2.329   3.711  20.595  0.00  0.00    +0.000 NA
BRANCH  22  26
ATOM     26  C   UNL     1       5.943   4.940  18.620  0.00  0.00    +0.000 C 
ATOM     27  O   UNL     1       6.681   5.756  19.166  0.00  0.00    +0.000 OA
ATOM     28  N   UNL     1       6.238   4.360  17.393  0.00  0.00    +0.000 N 
ATOM     29  C   UNL     1       7.543   4.555  16.772  0.00  0.00    +0.000 C 
ATOM     30  C   UNL     1       7.252   4.707  15.292  0.00  0.00    +0.000 C 
ATOM     31  F   UNL     1       6.919   6.008  15.033  0.00  0.00    +0.000 F 
ATOM     32  C   UNL     1       6.015   3.845  15.063  0.00  0.00    +0.000 C 
ATOM     33  C   UNL     1       5.272   3.885  16.403  0.00  0.00    +0.000 C 
BRANCH  32  34
ATOM     34  O   UNL     1       5.214   4.363  14.006  0.00  0.00    +0.000 OA
ATOM     35  H   UNL     1       5.414   3.817  13.217  0.00  0.00    +0.000 HD
ENDBRANCH  32  34
ENDBRANCH  22  26
ENDBRANCH   2  20
TORSDOF 7
ENDMDL
MODEL 9
REMARK VINA RESULT:      -8.5      4.830      6.972
REMARK  Name = 
REMARK  9 active torsions:
REMARK  status: ('A' for Active; 'I' for Inactive)
REMARK    1  A    between atoms: C_1  and  C_2
REMARK    2  A    between atoms: C_2  and  C_3
REMARK    3  A    between atoms: C_2  and  C_10
REMARK    4  A    between atoms: C_3  and  C_4
REMARK    5  A    between atoms: N_8  and  C_9
REMARK    6  A    between atoms: C_14  and  N_15
REMARK    7  A    between atoms: C_16  and  C_18
REMARK    8  A    between atoms: C_20  and  C_21
REMARK    9  A    between atoms: C_27  and  O_28
REMARK                            x       y       z     vdW  Elec       q    Type
REMARK                         _______ _______ _______ _____ _____    ______ ____
ROOT
ATOM      1  N   UNL     1       0.508  10.391  20.779  0.00  0.00    +0.000 N 
ATOM      2  C   UNL     1      -0.682  11.040  20.524  0.00  0.00    +0.000 C 
ATOM      3  O   UNL     1      -1.424  10.863  19.558  0.00  0.00    +0.000 OA
ATOM      4  H   UNL     1       0.915  10.559  21.693  0.00  0.00    +0.000 HD
ENDROOT
BRANCH   1   9
ATOM      5  C   UNL     1       2.189   7.278  19.628  0.00  0.00    +0.000 A 
ATOM      6  C   UNL     1       2.419   7.588  18.280  0.00  0.00    +0.000 A 
ATOM      7  C   UNL     1       2.011   8.806  17.752  0.00  0.00    +0.000 A 
ATOM      8  C   UNL     1       1.374   9.741  18.565  0.00  0.00    +0.000 A 
ATOM      9  C   UNL     1       1.141   9.470  19.916  0.00  0.00    +0.000 A 
ATOM     10  C   UNL     1       1.563   8.246  20.444  0.00  0.00    +0.000 A 
BRANCH   5  12
ATOM     11  C   UNL     1       1.431   4.989  20.476  0.00  0.00    +0.000 C 
ATOM     12  C   UNL     1       2.611   5.946  20.242  0.00  0.00    +0.000 C 
BRANCH  12  13
ATOM     13  C   UNL     1       3.710   5.304  19.369  0.00  0.00    +0.000 C 
BRANCH  13  14
ATOM     14  C   UNL     1       3.226   4.098  18.638  0.00  0.00    +0.000 A 
ATOM     15  N   UNL     1       2.441   4.096  17.578  0.00  0.00    +0.000 NA
ATOM     16  N   UNL     1       2.224   2.792  17.205  0.00  0.00    +0.000 NA
ATOM     17  C   UNL     1       2.873   2.025  18.048  0.00  0.00    +0.000 A 
ATOM     18  N   UNL     1       3.517   2.799  18.963  0.00  0.00    +0.000 N 
ATOM     19  C   UNL     1       4.329   2.323  20.049  0.00  0.00    +0.000 C 
ENDBRANCH  13  14
ENDBRANCH  12  13
ENDBRANCH   5  12
ENDBRANCH   1   9
BRANCH   2  20
ATOM     20  C   UNL     1      -1.109  12.019  21.562  0.00  0.00    +0.000 A 
ATOM     21  C   UNL     1      -2.359  11.840  22.135  0.00  0.00    +0.000 A 
ATOM     22  C   UNL     1      -2.756  12.691  23.153  0.00  0.00    +0.000 A 
ATOM     23  C   UNL     1      -1.927  13.758  23.501  0.00  0.00    +0.000 A 
ATOM     24  C   UNL     1      -0.708  13.887  22.844  0.00  0.00    +0.000 A 
ATOM     25  N   UNL     1      -0.261  13.028  21.897  0.00  0.00    +0.000 NA
BRANCH  22  26
ATOM     26  C   UNL     1      -4.107  12.559  23.759  0.00  0.00    +0.000 C 
ATOM     27  O   UNL     1      -4.215  11.865  24.765  0.00  0.00    +0.000 OA
ATOM     28  N   UNL     1      -5.174  13.261  23.210  0.00  0.00    +0.000 N 
ATOM     29  C   UNL     1      -6.445  13.356  23.917  0.00  0.00    +0.000 C 
ATOM     30  C   UNL     1      -7.502  13.246  22.835  0.00  0.00    +0.000 C 
ATOM     31  F   UNL     1      -7.732  11.924  22.568  0.00  0.00    +0.000 F 
ATOM     32  C   UNL     1      -6.848  13.872  21.607  0.00  0.00    +0.000 C 
ATOM     33  C   UNL     1      -5.350  13.607  21.799  0.00  0.00    +0.000 C 
BRANCH  32  34
ATOM     34  O   UNL     1      -7.333  13.279  20.406  0.00  0.00    +0.000 OA
ATOM     35  H   UNL     1      -7.537  12.347  20.624  0.00  0.00    +0.000 HD
ENDBRANCH  32  34
ENDBRANCH  22  26
ENDBRANCH   2  20
TORSDOF 7
ENDMDL
