MODEL 1
REMARK VINA RESULT:      -9.1      0.000      0.000
REMARK  Name = 
REMARK  7 active torsions:
REMARK  status: ('A' for Active; 'I' for Inactive)
REMARK    1  A    between atoms: C_1  and  C_2
REMARK    2  A    between atoms: C_2  and  S_3
REMARK    3  A    between atoms: C_2  and  C_12
REMARK    4  A    between atoms: S_3  and  C_4
REMARK    5  A    between atoms: N_8  and  C_9
REMARK    6  A    between atoms: C_16  and  N_17
REMARK    7  A    between atoms: C_18  and  C_20
REMARK                            x       y       z     vdW  Elec       q    Type
REMARK                         _______ _______ _______ _____ _____    ______ ____
ROOT
ATOM      1  C   UNL     1       4.552   5.575  17.793  0.00  0.00    +0.000 A 
ATOM      2  C   UNL     1       4.471   4.407  18.566  0.00  0.00    +0.000 A 
ATOM      3  C   UNL     1       3.587   4.330  19.637  0.00  0.00    +0.000 A 
ATOM      4  C   UNL     1       2.762   5.410  19.950  0.00  0.00    +0.000 A 
ATOM      5  C   UNL     1       2.788   6.578  19.185  0.00  0.00    +0.000 A 
ATOM      6  C   UNL     1       3.690   6.651  18.117  0.00  0.00    +0.000 A 
ENDROOT
BRANCH   5   7
ATOM      7  N   UNL     1       1.951   7.695  19.436  0.00  0.00    +0.000 N 
ATOM      8  C   UNL     1       1.705   8.728  18.555  0.00  0.00    +0.000 C 
ATOM      9  O   UNL     1       2.206   8.866  17.442  0.00  0.00    +0.000 OA
ATOM     10  H   UNL     1       1.521   7.783  20.351  0.00  0.00    +0.000 HD
BRANCH   8  11
ATOM     11  C   UNL     1       0.720   9.758  18.997  0.00  0.00    +0.000 A 
ATOM     12  C   UNL     1      -0.444   9.879  18.245  0.00  0.00    +0.000 A 
ATOM     13  C   UNL     1      -1.446  10.745  18.678  0.00  0.00    +0.000 A 
ATOM     14  C   UNL     1      -2.697  10.758  18.055  0.00  0.00    +0.000 A 
ATOM     15  C   UNL     1      -3.690  11.631  18.487  0.00  0.00    +0.000 A 
ATOM     16  C   UNL     1      -3.415  12.545  19.500  0.00  0.00    +0.000 A 
ATOM     17  C   UNL     1      -2.172  12.527  20.144  0.00  0.00    +0.000 A 
ATOM     18  C   UNL     1      -1.190  11.583  19.778  0.00  0.00    +0.000 A 
ATOM     19  C   UNL     1       0.037  11.399  20.451  0.00  0.00    +0.000 A 
ATOM     20  N   UNL     1       0.981  10.483  20.117  0.00  0.00    +0.000 NA
ENDBRANCH   8  11
ENDBRANCH   5   7
BRANCH   1  22
ATOM     21  C   UNL     1       5.147   6.710  15.521  0.00  0.00    +0.000 C 
ATOM     22  C   UNL     1       5.523   5.716  16.629  0.00  0.00    +0.000 C 
BRANCH  22  23
ATOM     23  S   UNL     1       5.938   4.080  15.888  0.00  0.00    +0.000 S 
BRANCH  23  24
ATOM     24  C   UNL     1       6.794   4.572  14.469  0.00  0.00    +0.000 A 
ATOM     25  N   UNL     1       7.816   5.398  14.442  0.00  0.00    +0.000 NA
ATOM     26  N   UNL     1       8.208   5.546  13.129  0.00  0.00    +0.000 NA
ATOM     27  C   UNL     1       7.423   4.789  12.397  0.00  0.00    +0.000 A 
ATOM     28  N   UNL     1       6.529   4.142  13.197  0.00  0.00    +0.000 N 
BRANCH  28  29
ATOM     29  C   UNL     1       5.543   3.171  12.768  0.00  0.00    +0.000 C 
ATOM     30  C   UNL     1       4.727   3.327  11.495  0.00  0.00    +0.000 C 
ATOM     31  C   UNL     1       5.802   2.298  11.548  0.00  0.00    +0.000 C 
ENDBRANCH  28  29
ENDBRANCH  23  24
ENDBRANCH  22  23
ENDBRANCH   1  22
TORSDOF 6
ENDMDL
MODEL 2
REMARK VINA RESULT:      -9.0      1.630      1.893
REMARK  Name = 
REMARK  7 active torsions:
REMARK  status: ('A' for Active; 'I' for Inactive)
REMARK    1  A    between atoms: C_1  and  C_2
REMARK    2  A    between atoms: C_2  and  S_3
REMARK    3  A    between atoms: C_2  and  C_12
REMARK    4  A    between atoms: S_3  and  C_4
REMARK    5  A    between atoms: N_8  and  C_9
REMARK    6  A    between atoms: C_16  and  N_17
REMARK    7  A    between atoms: C_18  and  C_20
REMARK                            x       y       z     vdW  Elec       q    Type
REMARK                         _______ _______ _______ _____ _____    ______ ____
ROOT
ATOM      1  C   UNL     1       4.067   5.748  17.503  0.00  0.00    +0.000 A 
ATOM      2  C   UNL     1       3.509   4.521  17.891  0.00  0.00    +0.000 A 
ATOM      3  C   UNL     1       2.501   4.476  18.848  0.00  0.00    +0.000 A 
ATOM      4  C   UNL     1       2.025   5.652  19.427  0.00  0.00    +0.000 A 
ATOM      5  C   UNL     1       2.530   6.896  19.044  0.00  0.00    +0.000 A 
ATOM      6  C   UNL     1       3.553   6.930  18.089  0.00  0.00    +0.000 A 
ENDROOT
BRANCH   5   7
ATOM      7  N   UNL     1       2.063   8.126  19.574  0.00  0.00    +0.000 N 
ATOM      8  C   UNL     1       1.346   9.079  18.880  0.00  0.00    +0.000 C 
ATOM      9  O   UNL     1       1.044   9.034  17.689  0.00  0.00    +0.000 OA
ATOM     10  H   UNL     1       2.302   8.364  20.531  0.00  0.00    +0.000 HD
BRANCH   8  11
ATOM     11  C   UNL     1       0.881  10.261  19.661  0.00  0.00    +0.000 A 
ATOM     12  C   UNL     1      -0.065  10.028  20.654  0.00  0.00    +0.000 A 
ATOM     13  C   UNL     1      -0.449  11.076  21.488  0.00  0.00    +0.000 A 
ATOM     14  C   UNL     1      -1.254  10.841  22.605  0.00  0.00    +0.000 A 
ATOM     15  C   UNL     1      -1.641  11.893  23.429  0.00  0.00    +0.000 A 
ATOM     16  C   UNL     1      -1.281  13.197  23.101  0.00  0.00    +0.000 A 
ATOM     17  C   UNL     1      -0.459  13.441  21.995  0.00  0.00    +0.000 A 
ATOM     18  C   UNL     1       0.018  12.372  21.206  0.00  0.00    +0.000 A 
ATOM     19  C   UNL     1       0.952  12.502  20.157  0.00  0.00    +0.000 A 
ATOM     20  N   UNL     1       1.429  11.479  19.405  0.00  0.00    +0.000 NA
ENDBRANCH   8  11
ENDBRANCH   5   7
BRANCH   1  22
ATOM     21  C   UNL     1       4.945   6.737  15.254  0.00  0.00    +0.000 C 
ATOM     22  C   UNL     1       5.190   5.845  16.479  0.00  0.00    +0.000 C 
BRANCH  22  23
ATOM     23  S   UNL     1       5.761   4.179  15.937  0.00  0.00    +0.000 S 
BRANCH  23  24
ATOM     24  C   UNL     1       6.711   4.593  14.554  0.00  0.00    +0.000 A 
ATOM     25  N   UNL     1       7.773   5.370  14.562  0.00  0.00    +0.000 NA
ATOM     26  N   UNL     1       8.238   5.465  13.268  0.00  0.00    +0.000 NA
ATOM     27  C   UNL     1       7.455   4.728  12.513  0.00  0.00    +0.000 A 
ATOM     28  N   UNL     1       6.491   4.144  13.280  0.00  0.00    +0.000 N 
BRANCH  28  29
ATOM     29  C   UNL     1       5.483   3.211  12.822  0.00  0.00    +0.000 C 
ATOM     30  C   UNL     1       4.619   3.461  11.596  0.00  0.00    +0.000 C 
ATOM     31  C   UNL     1       5.688   2.425  11.535  0.00  0.00    +0.000 C 
ENDBRANCH  28  29
ENDBRANCH  23  24
ENDBRANCH  22  23
ENDBRANCH   1  22
TORSDOF 6
ENDMDL
MODEL 3
REMARK VINA RESULT:      -8.9      5.343      8.703
REMARK  Name = 
REMARK  7 active torsions:
REMARK  status: ('A' for Active; 'I' for Inactive)
REMARK    1  A    between atoms: C_1  and  C_2
REMARK    2  A    between atoms: C_2  and  S_3
REMARK    3  A    between atoms: C_2  and  C_12
REMARK    4  A    between atoms: S_3  and  C_4
REMARK    5  A    between atoms: N_8  and  C_9
REMARK    6  A    between atoms: C_16  and  N_17
REMARK    7  A    between atoms: C_18  and  C_20
REMARK                            x       y       z     vdW  Elec       q    Type
REMARK                         _______ _______ _______ _____ _____    ______ ____
ROOT
ATOM      1  C   UNL     1       4.390   5.550  17.291  0.00  0.00    +0.000 A 
ATOM      2  C   UNL     1       5.107   4.493  16.708  0.00  0.00    +0.000 A 
ATOM      3  C   UNL     1       6.427   4.672  16.310  0.00  0.00    +0.000 A 
ATOM      4  C   UNL     1       7.060   5.902  16.494  0.00  0.00    +0.000 A 
ATOM      5  C   UNL     1       6.392   6.968  17.101  0.00  0.00    +0.000 A 
ATOM      6  C   UNL     1       5.060   6.782  17.486  0.00  0.00    +0.000 A 
ENDROOT
BRANCH   5   7
ATOM      7  N   UNL     1       6.993   8.230  17.343  0.00  0.00    +0.000 N 
ATOM      8  C   UNL     1       8.058   8.463  18.188  0.00  0.00    +0.000 C 
ATOM      9  O   UNL     1       8.618   7.628  18.895  0.00  0.00    +0.000 OA
ATOM     10  H   UNL     1       6.593   9.050  16.899  0.00  0.00    +0.000 HD
BRANCH   8  11
ATOM     11  C   UNL     1       8.585   9.858  18.224  0.00  0.00    +0.000 A 
ATOM     12  C   UNL     1       9.734  10.078  18.977  0.00  0.00    +0.000 A 
ATOM     13  C   UNL     1      10.332  11.336  18.954  0.00  0.00    +0.000 A 
ATOM     14  C   UNL     1      11.580  11.544  19.547  0.00  0.00    +0.000 A 
ATOM     15  C   UNL     1      12.168  12.805  19.527  0.00  0.00    +0.000 A 
ATOM     16  C   UNL     1      11.479  13.881  18.974  0.00  0.00    +0.000 A 
ATOM     17  C   UNL     1      10.238  13.679  18.360  0.00  0.00    +0.000 A 
ATOM     18  C   UNL     1       9.674  12.387  18.291  0.00  0.00    +0.000 A 
ATOM     19  C   UNL     1       8.498  12.061  17.582  0.00  0.00    +0.000 A 
ATOM     20  N   UNL     1       7.958  10.820  17.495  0.00  0.00    +0.000 NA
ENDBRANCH   8  11
ENDBRANCH   5   7
BRANCH   1  22
ATOM     21  C   UNL     1       2.540   6.022  19.068  0.00  0.00    +0.000 C 
ATOM     22  C   UNL     1       2.935   5.409  17.717  0.00  0.00    +0.000 C 
BRANCH  22  23
ATOM     23  S   UNL     1       2.368   3.658  17.633  0.00  0.00    +0.000 S 
BRANCH  23  24
ATOM     24  C   UNL     1       2.051   3.337  19.302  0.00  0.00    +0.000 A 
ATOM     25  N   UNL     1       0.888   3.476  19.898  0.00  0.00    +0.000 NA
ATOM     26  N   UNL     1       1.048   3.137  21.225  0.00  0.00    +0.000 NA
ATOM     27  C   UNL     1       2.302   2.783  21.392  0.00  0.00    +0.000 A 
ATOM     28  N   UNL     1       2.968   2.874  20.207  0.00  0.00    +0.000 N 
BRANCH  28  29
ATOM     29  C   UNL     1       4.350   2.508  19.972  0.00  0.00    +0.000 C 
ATOM     30  C   UNL     1       5.076   1.451  20.787  0.00  0.00    +0.000 C 
ATOM     31  C   UNL     1       4.696   1.149  19.379  0.00  0.00    +0.000 C 
ENDBRANCH  28  29
ENDBRANCH  23  24
ENDBRANCH  22  23
ENDBRANCH   1  22
TORSDOF 6
ENDMDL
MODEL 4
REMARK VINA RESULT:      -8.9      3.581     10.125
REMARK  Name = 
REMARK  7 active torsions:
REMARK  status: ('A' for Active; 'I' for Inactive)
REMARK    1  A    between atoms: C_1  and  C_2
REMARK    2  A    between atoms: C_2  and  S_3
REMARK    3  A    between atoms: C_2  and  C_12
REMARK    4  A    between atoms: S_3  and  C_4
REMARK    5  A    between atoms: N_8  and  C_9
REMARK    6  A    between atoms: C_16  and  N_17
REMARK    7  A    between atoms: C_18  and  C_20
REMARK                            x       y       z     vdW  Elec       q    Type
REMARK                         _______ _______ _______ _____ _____    ______ ____
ROOT
ATOM      1  C   UNL     1      -0.067  10.404  19.833  0.00  0.00    +0.000 A 
ATOM      2  C   UNL     1      -0.650  10.083  21.068  0.00  0.00    +0.000 A 
ATOM      3  C   UNL     1      -0.197   8.989  21.798  0.00  0.00    +0.000 A 
ATOM      4  C   UNL     1       0.850   8.204  21.316  0.00  0.00    +0.000 A 
ATOM      5  C   UNL     1       1.479   8.510  20.108  0.00  0.00    +0.000 A 
ATOM      6  C   UNL     1       1.008   9.605  19.374  0.00  0.00    +0.000 A 
ENDROOT
BRANCH   5   7
ATOM      7  N   UNL     1       2.569   7.768  19.584  0.00  0.00    +0.000 N 
ATOM      8  C   UNL     1       2.658   6.392  19.544  0.00  0.00    +0.000 C 
ATOM      9  O   UNL     1       1.835   5.600  19.998  0.00  0.00    +0.000 OA
ATOM     10  H   UNL     1       3.380   8.273  19.241  0.00  0.00    +0.000 HD
BRANCH   8  11
ATOM     11  C   UNL     1       3.859   5.822  18.867  0.00  0.00    +0.000 A 
ATOM     12  C   UNL     1       3.863   5.834  17.476  0.00  0.00    +0.000 A 
ATOM     13  C   UNL     1       5.005   5.419  16.795  0.00  0.00    +0.000 A 
ATOM     14  C   UNL     1       5.113   5.589  15.412  0.00  0.00    +0.000 A 
ATOM     15  C   UNL     1       6.254   5.164  14.738  0.00  0.00    +0.000 A 
ATOM     16  C   UNL     1       7.263   4.506  15.432  0.00  0.00    +0.000 A 
ATOM     17  C   UNL     1       7.174   4.349  16.821  0.00  0.00    +0.000 A 
ATOM     18  C   UNL     1       6.066   4.859  17.529  0.00  0.00    +0.000 A 
ATOM     19  C   UNL     1       5.946   4.868  18.935  0.00  0.00    +0.000 A 
ATOM     20  N   UNL     1       4.892   5.371  19.626  0.00  0.00    +0.000 NA
ENDBRANCH   8  11
ENDBRANCH   5   7
BRANCH   1  22
ATOM     21  C   UNL     1       0.267  12.874  19.062  0.00  0.00    +0.000 C 
ATOM     22  C   UNL     1      -0.547  11.575  18.985  0.00  0.00    +0.000 C 
BRANCH  22  23
ATOM     23  S   UNL     1      -2.332  11.935  19.274  0.00  0.00    +0.000 S 
BRANCH  23  24
ATOM     24  C   UNL     1      -3.000  11.533  17.732  0.00  0.00    +0.000 A 
ATOM     25  N   UNL     1      -2.320  11.086  16.698  0.00  0.00    +0.000 NA
ATOM     26  N   UNL     1      -3.206  10.898  15.659  0.00  0.00    +0.000 NA
ATOM     27  C   UNL     1      -4.402  11.218  16.097  0.00  0.00    +0.000 A 
ATOM     28  N   UNL     1      -4.326  11.605  17.401  0.00  0.00    +0.000 N 
BRANCH  28  29
ATOM     29  C   UNL     1      -5.441  11.970  18.251  0.00  0.00    +0.000 C 
ATOM     30  C   UNL     1      -6.888  11.902  17.792  0.00  0.00    +0.000 C 
ATOM     31  C   UNL     1      -6.390  10.903  18.778  0.00  0.00    +0.000 C 
ENDBRANCH  28  29
ENDBRANCH  23  24
ENDBRANCH  22  23
ENDBRANCH   1  22
TORSDOF 6
ENDMDL
MODEL 5
REMARK VINA RESULT:      -8.9      2.392      9.802
REMARK  Name = 
REMARK  7 active torsions:
REMARK  status: ('A' for Active; 'I' for Inactive)
REMARK    1  A    between atoms: C_1  and  C_2
REMARK    2  A    between atoms: C_2  and  S_3
REMARK    3  A    between atoms: C_2  and  C_12
REMARK    4  A    between atoms: S_3  and  C_4
REMARK    5  A    between atoms: N_8  and  C_9
REMARK    6  A    between atoms: C_16  and  N_17
REMARK    7  A    between atoms: C_18  and  C_20
REMARK                            x       y       z     vdW  Elec       q    Type
REMARK                         _______ _______ _______ _____ _____    ______ ____
ROOT
ATOM      1  C   UNL     1       1.659   7.709  20.076  0.00  0.00    +0.000 A 
ATOM      2  C   UNL     1       1.354   6.679  20.978  0.00  0.00    +0.000 A 
ATOM      3  C   UNL     1       1.862   5.398  20.783  0.00  0.00    +0.000 A 
ATOM      4  C   UNL     1       2.688   5.125  19.693  0.00  0.00    +0.000 A 
ATOM      5  C   UNL     1       3.042   6.130  18.792  0.00  0.00    +0.000 A 
ATOM      6  C   UNL     1       2.517   7.412  18.989  0.00  0.00    +0.000 A 
ENDROOT
BRANCH   5   7
ATOM      7  N   UNL     1       3.903   5.919  17.684  0.00  0.00    +0.000 N 
ATOM      8  C   UNL     1       5.138   5.307  17.733  0.00  0.00    +0.000 C 
ATOM      9  O   UNL     1       5.704   4.896  18.744  0.00  0.00    +0.000 OA
ATOM     10  H   UNL     1       3.624   6.279  16.777  0.00  0.00    +0.000 HD
BRANCH   8  11
ATOM     11  C   UNL     1       5.837   5.113  16.429  0.00  0.00    +0.000 A 
ATOM     12  C   UNL     1       5.226   4.270  15.507  0.00  0.00    +0.000 A 
ATOM     13  C   UNL     1       5.775   4.142  14.233  0.00  0.00    +0.000 A 
ATOM     14  C   UNL     1       5.093   3.453  13.227  0.00  0.00    +0.000 A 
ATOM     15  C   UNL     1       5.652   3.322  11.959  0.00  0.00    +0.000 A 
ATOM     16  C   UNL     1       6.927   3.822  11.710  0.00  0.00    +0.000 A 
ATOM     17  C   UNL     1       7.610   4.532  12.705  0.00  0.00    +0.000 A 
ATOM     18  C   UNL     1       7.014   4.752  13.965  0.00  0.00    +0.000 A 
ATOM     19  C   UNL     1       7.562   5.562  14.982  0.00  0.00    +0.000 A 
ATOM     20  N   UNL     1       6.989   5.794  16.190  0.00  0.00    +0.000 NA
ENDBRANCH   8  11
ENDBRANCH   5   7
BRANCH   1  22
ATOM     21  C   UNL     1      -0.184   9.277  21.050  0.00  0.00    +0.000 C 
ATOM     22  C   UNL     1       1.105   9.119  20.233  0.00  0.00    +0.000 C 
BRANCH  22  23
ATOM     23  S   UNL     1       0.921   9.962  18.604  0.00  0.00    +0.000 S 
BRANCH  23  24
ATOM     24  C   UNL     1      -0.225  11.193  19.001  0.00  0.00    +0.000 A 
ATOM     25  N   UNL     1       0.056  12.337  19.585  0.00  0.00    +0.000 NA
ATOM     26  N   UNL     1      -1.124  13.034  19.740  0.00  0.00    +0.000 NA
ATOM     27  C   UNL     1      -2.085  12.299  19.228  0.00  0.00    +0.000 A 
ATOM     28  N   UNL     1      -1.566  11.140  18.734  0.00  0.00    +0.000 N 
BRANCH  28  29
ATOM     29  C   UNL     1      -2.299  10.105  18.034  0.00  0.00    +0.000 C 
ATOM     30  C   UNL     1      -3.603  10.367  17.298  0.00  0.00    +0.000 C 
ATOM     31  C   UNL     1      -2.365  10.101  16.514  0.00  0.00    +0.000 C 
ENDBRANCH  28  29
ENDBRANCH  23  24
ENDBRANCH  22  23
ENDBRANCH   1  22
TORSDOF 6
ENDMDL
MODEL 6
REMARK VINA RESULT:      -8.7      1.385      1.787
REMARK  Name = 
REMARK  7 active torsions:
REMARK  status: ('A' for Active; 'I' for Inactive)
REMARK    1  A    between atoms: C_1  and  C_2
REMARK    2  A    between atoms: C_2  and  S_3
REMARK    3  A    between atoms: C_2  and  C_12
REMARK    4  A    between atoms: S_3  and  C_4
REMARK    5  A    between atoms: N_8  and  C_9
REMARK    6  A    between atoms: C_16  and  N_17
REMARK    7  A    between atoms: C_18  and  C_20
REMARK                            x       y       z     vdW  Elec       q    Type
REMARK                         _______ _______ _______ _____ _____    ______ ____
ROOT
ATOM      1  C   UNL     1       4.103   4.860  17.285  0.00  0.00    +0.000 A 
ATOM      2  C   UNL     1       3.520   3.584  17.240  0.00  0.00    +0.000 A 
ATOM      3  C   UNL     1       2.416   3.285  18.031  0.00  0.00    +0.000 A 
ATOM      4  C   UNL     1       1.868   4.253  18.874  0.00  0.00    +0.000 A 
ATOM      5  C   UNL     1       2.399   5.544  18.923  0.00  0.00    +0.000 A 
ATOM      6  C   UNL     1       3.517   5.832  18.132  0.00  0.00    +0.000 A 
ENDROOT
BRANCH   5   7
ATOM      7  N   UNL     1       1.866   6.577  19.735  0.00  0.00    +0.000 N 
ATOM      8  C   UNL     1       1.830   7.917  19.409  0.00  0.00    +0.000 C 
ATOM      9  O   UNL     1       2.295   8.428  18.393  0.00  0.00    +0.000 OA
ATOM     10  H   UNL     1       1.513   6.337  20.656  0.00  0.00    +0.000 HD
BRANCH   8  11
ATOM     11  C   UNL     1       1.142   8.820  20.378  0.00  0.00    +0.000 A 
ATOM     12  C   UNL     1       0.378   9.852  19.844  0.00  0.00    +0.000 A 
ATOM     13  C   UNL     1      -0.375  10.653  20.698  0.00  0.00    +0.000 A 
ATOM     14  C   UNL     1      -1.292  11.576  20.188  0.00  0.00    +0.000 A 
ATOM     15  C   UNL     1      -2.035  12.380  21.048  0.00  0.00    +0.000 A 
ATOM     16  C   UNL     1      -1.816  12.312  22.421  0.00  0.00    +0.000 A 
ATOM     17  C   UNL     1      -0.914  11.377  22.943  0.00  0.00    +0.000 A 
ATOM     18  C   UNL     1      -0.224  10.492  22.087  0.00  0.00    +0.000 A 
ATOM     19  C   UNL     1       0.600   9.433  22.523  0.00  0.00    +0.000 A 
ATOM     20  N   UNL     1       1.254   8.567  21.709  0.00  0.00    +0.000 NA
ENDBRANCH   8  11
ENDBRANCH   5   7
BRANCH   1  22
ATOM     21  C   UNL     1       5.179   6.384  15.462  0.00  0.00    +0.000 C 
ATOM     22  C   UNL     1       5.328   5.225  16.458  0.00  0.00    +0.000 C 
BRANCH  22  23
ATOM     23  S   UNL     1       6.035   3.753  15.604  0.00  0.00    +0.000 S 
BRANCH  23  24
ATOM     24  C   UNL     1       6.927   4.510  14.332  0.00  0.00    +0.000 A 
ATOM     25  N   UNL     1       7.858   5.425  14.492  0.00  0.00    +0.000 NA
ATOM     26  N   UNL     1       8.317   5.784  13.243  0.00  0.00    +0.000 NA
ATOM     27  C   UNL     1       7.664   5.063  12.360  0.00  0.00    +0.000 A 
ATOM     28  N   UNL     1       6.792   4.233  12.998  0.00  0.00    +0.000 N 
BRANCH  28  29
ATOM     29  C   UNL     1       5.942   3.241  12.372  0.00  0.00    +0.000 C 
ATOM     30  C   UNL     1       4.425   3.275  12.463  0.00  0.00    +0.000 C 
ATOM     31  C   UNL     1       5.085   3.610  11.170  0.00  0.00    +0.000 C 
ENDBRANCH  28  29
ENDBRANCH  23  24
ENDBRANCH  22  23
ENDBRANCH   1  22
TORSDOF 6
ENDMDL
MODEL 7
REMARK VINA RESULT:      -8.7      2.576      4.112
REMARK  Name = 
REMARK  7 active torsions:
REMARK  status: ('A' for Active; 'I' for Inactive)
REMARK    1  A    between atoms: C_1  and  C_2
REMARK    2  A    between atoms: C_2  and  S_3
REMARK    3  A    between atoms: C_2  and  C_12
REMARK    4  A    between atoms: S_3  and  C_4
REMARK    5  A    between atoms: N_8  and  C_9
REMARK    6  A    between atoms: C_16  and  N_17
REMARK    7  A    between atoms: C_18  and  C_20
REMARK                            x       y       z     vdW  Elec       q    Type
REMARK                         _______ _______ _______ _____ _____    ______ ____
ROOT
ATOM      1  C   UNL     1       4.601   5.068  16.629  0.00  0.00    +0.000 A 
ATOM      2  C   UNL     1       4.206   3.755  16.924  0.00  0.00    +0.000 A 
ATOM      3  C   UNL     1       3.229   3.511  17.884  0.00  0.00    +0.000 A 
ATOM      4  C   UNL     1       2.622   4.571  18.558  0.00  0.00    +0.000 A 
ATOM      5  C   UNL     1       2.963   5.894  18.269  0.00  0.00    +0.000 A 
ATOM      6  C   UNL     1       3.956   6.128  17.311  0.00  0.00    +0.000 A 
ENDROOT
BRANCH   5   7
ATOM      7  N   UNL     1       2.357   7.012  18.898  0.00  0.00    +0.000 N 
ATOM      8  C   UNL     1       2.173   8.253  18.326  0.00  0.00    +0.000 C 
ATOM      9  O   UNL     1       2.545   8.597  17.205  0.00  0.00    +0.000 OA
ATOM     10  H   UNL     1       2.066   6.925  19.866  0.00  0.00    +0.000 HD
BRANCH   8  11
ATOM     11  C   UNL     1       1.433   9.259  19.142  0.00  0.00    +0.000 A 
ATOM     12  C   UNL     1       0.830   8.802  20.309  0.00  0.00    +0.000 A 
ATOM     13  C   UNL     1       0.224   9.719  21.165  0.00  0.00    +0.000 A 
ATOM     14  C   UNL     1      -0.229   9.326  22.427  0.00  0.00    +0.000 A 
ATOM     15  C   UNL     1      -0.841  10.245  23.274  0.00  0.00    +0.000 A 
ATOM     16  C   UNL     1      -1.066  11.547  22.835  0.00  0.00    +0.000 A 
ATOM     17  C   UNL     1      -0.598  11.956  21.581  0.00  0.00    +0.000 A 
ATOM     18  C   UNL     1       0.107  11.058  20.752  0.00  0.00    +0.000 A 
ATOM     19  C   UNL     1       0.730  11.409  19.535  0.00  0.00    +0.000 A 
ATOM     20  N   UNL     1       1.424  10.557  18.739  0.00  0.00    +0.000 NA
ENDBRANCH   8  11
ENDBRANCH   5   7
BRANCH   1  22
ATOM     21  C   UNL     1       5.393   5.021  14.144  0.00  0.00    +0.000 C 
ATOM     22  C   UNL     1       5.685   5.383  15.607  0.00  0.00    +0.000 C 
BRANCH  22  23
ATOM     23  S   UNL     1       7.316   4.687  16.111  0.00  0.00    +0.000 S 
BRANCH  23  24
ATOM     24  C   UNL     1       7.384   5.180  17.766  0.00  0.00    +0.000 A 
ATOM     25  N   UNL     1       7.240   4.387  18.805  0.00  0.00    +0.000 NA
ATOM     26  N   UNL     1       7.346   5.157  19.944  0.00  0.00    +0.000 NA
ATOM     27  C   UNL     1       7.569   6.395  19.563  0.00  0.00    +0.000 A 
ATOM     28  N   UNL     1       7.621   6.456  18.202  0.00  0.00    +0.000 N 
BRANCH  28  29
ATOM     29  C   UNL     1       7.912   7.632  17.410  0.00  0.00    +0.000 C 
ATOM     30  C   UNL     1       7.054   8.887  17.444  0.00  0.00    +0.000 C 
ATOM     31  C   UNL     1       8.403   8.909  18.077  0.00  0.00    +0.000 C 
ENDBRANCH  28  29
ENDBRANCH  23  24
ENDBRANCH  22  23
ENDBRANCH   1  22
TORSDOF 6
ENDMDL
MODEL 8
REMARK VINA RESULT:      -8.6      5.869      8.901
REMARK  Name = 
REMARK  7 active torsions:
REMARK  status: ('A' for Active; 'I' for Inactive)
REMARK    1  A    between atoms: C_1  and  C_2
REMARK    2  A    between atoms: C_2  and  S_3
REMARK    3  A    between atoms: C_2  and  C_12
REMARK    4  A    between atoms: S_3  and  C_4
REMARK    5  A    between atoms: N_8  and  C_9
REMARK    6  A    between atoms: C_16  and  N_17
REMARK    7  A    between atoms: C_18  and  C_20
REMARK                            x       y       z     vdW  Elec       q    Type
REMARK                         _______ _______ _______ _____ _____    ______ ____
ROOT
ATOM      1  C   UNL     1       5.592   5.932  17.797  0.00  0.00    +0.000 A 
ATOM      2  C   UNL     1       6.109   4.631  17.898  0.00  0.00    +0.000 A 
ATOM      3  C   UNL     1       7.439   4.427  18.250  0.00  0.00    +0.000 A 
ATOM      4  C   UNL     1       8.273   5.513  18.518  0.00  0.00    +0.000 A 
ATOM      5  C   UNL     1       7.788   6.821  18.461  0.00  0.00    +0.000 A 
ATOM      6  C   UNL     1       6.452   7.017  18.094  0.00  0.00    +0.000 A 
ENDROOT
BRANCH   5   7
ATOM      7  N   UNL     1       8.579   7.962  18.754  0.00  0.00    +0.000 N 
ATOM      8  C   UNL     1       8.385   9.227  18.240  0.00  0.00    +0.000 C 
ATOM      9  O   UNL     1       7.531   9.551  17.416  0.00  0.00    +0.000 OA
ATOM     10  H   UNL     1       9.387   7.850  19.358  0.00  0.00    +0.000 HD
BRANCH   8  11
ATOM     11  C   UNL     1       9.286  10.299  18.753  0.00  0.00    +0.000 A 
ATOM     12  C   UNL     1       9.964  11.059  17.805  0.00  0.00    +0.000 A 
ATOM     13  C   UNL     1      10.729  12.145  18.224  0.00  0.00    +0.000 A 
ATOM     14  C   UNL     1      11.273  13.036  17.296  0.00  0.00    +0.000 A 
ATOM     15  C   UNL     1      12.043  14.114  17.722  0.00  0.00    +0.000 A 
ATOM     16  C   UNL     1      12.332  14.266  19.075  0.00  0.00    +0.000 A 
ATOM     17  C   UNL     1      11.776  13.391  20.015  0.00  0.00    +0.000 A 
ATOM     18  C   UNL     1      10.916  12.350  19.603  0.00  0.00    +0.000 A 
ATOM     19  C   UNL     1      10.205  11.502  20.479  0.00  0.00    +0.000 A 
ATOM     20  N   UNL     1       9.364  10.510  20.093  0.00  0.00    +0.000 NA
ENDBRANCH   8  11
ENDBRANCH   5   7
BRANCH   1  22
ATOM     21  C   UNL     1       3.851   7.571  16.755  0.00  0.00    +0.000 C 
ATOM     22  C   UNL     1       4.150   6.205  17.389  0.00  0.00    +0.000 C 
BRANCH  22  23
ATOM     23  S   UNL     1       2.979   5.888  18.776  0.00  0.00    +0.000 S 
BRANCH  23  24
ATOM     24  C   UNL     1       2.444   4.290  18.393  0.00  0.00    +0.000 A 
ATOM     25  N   UNL     1       2.685   3.653  17.268  0.00  0.00    +0.000 NA
ATOM     26  N   UNL     1       2.081   2.416  17.343  0.00  0.00    +0.000 NA
ATOM     27  C   UNL     1       1.506   2.330  18.521  0.00  0.00    +0.000 A 
ATOM     28  N   UNL     1       1.723   3.477  19.225  0.00  0.00    +0.000 N 
BRANCH  28  29
ATOM     29  C   UNL     1       1.303   3.737  20.587  0.00  0.00    +0.000 C 
ATOM     30  C   UNL     1       1.188   2.647  21.640  0.00  0.00    +0.000 C 
ATOM     31  C   UNL     1       2.300   3.634  21.733  0.00  0.00    +0.000 C 
ENDBRANCH  28  29
ENDBRANCH  23  24
ENDBRANCH  22  23
ENDBRANCH   1  22
TORSDOF 6
ENDMDL
MODEL 9
REMARK VINA RESULT:      -8.6      2.311      3.471
REMARK  Name = 
REMARK  7 active torsions:
REMARK  status: ('A' for Active; 'I' for Inactive)
REMARK    1  A    between atoms: C_1  and  C_2
REMARK    2  A    between atoms: C_2  and  S_3
REMARK    3  A    between atoms: C_2  and  C_12
REMARK    4  A    between atoms: S_3  and  C_4
REMARK    5  A    between atoms: N_8  and  C_9
REMARK    6  A    between atoms: C_16  and  N_17
REMARK    7  A    between atoms: C_18  and  C_20
REMARK                            x       y       z     vdW  Elec       q    Type
REMARK                         _______ _______ _______ _____ _____    ______ ____
ROOT
ATOM      1  C   UNL     1       2.638   3.112  19.300  0.00  0.00    +0.000 A 
ATOM      2  C   UNL     1       2.809   2.314  20.441  0.00  0.00    +0.000 A 
ATOM      3  C   UNL     1       2.539   2.825  21.706  0.00  0.00    +0.000 A 
ATOM      4  C   UNL     1       2.084   4.136  21.855  0.00  0.00    +0.000 A 
ATOM      5  C   UNL     1       1.869   4.951  20.742  0.00  0.00    +0.000 A 
ATOM      6  C   UNL     1       2.156   4.432  19.475  0.00  0.00    +0.000 A 
ENDROOT
BRANCH   5   7
ATOM      7  N   UNL     1       1.378   6.279  20.830  0.00  0.00    +0.000 N 
ATOM      8  C   UNL     1       1.848   7.358  20.110  0.00  0.00    +0.000 C 
ATOM      9  O   UNL     1       2.792   7.347  19.322  0.00  0.00    +0.000 OA
ATOM     10  H   UNL     1       0.646   6.483  21.503  0.00  0.00    +0.000 HD
BRANCH   8  11
ATOM     11  C   UNL     1       1.125   8.649  20.297  0.00  0.00    +0.000 A 
ATOM     12  C   UNL     1       0.378   8.789  21.463  0.00  0.00    +0.000 A 
ATOM     13  C   UNL     1      -0.224  10.014  21.741  0.00  0.00    +0.000 A 
ATOM     14  C   UNL     1      -0.824  10.249  22.981  0.00  0.00    +0.000 A 
ATOM     15  C   UNL     1      -1.432  11.472  23.249  0.00  0.00    +0.000 A 
ATOM     16  C   UNL     1      -1.502  12.442  22.254  0.00  0.00    +0.000 A 
ATOM     17  C   UNL     1      -0.887  12.225  21.016  0.00  0.00    +0.000 A 
ATOM     18  C   UNL     1      -0.186  11.026  20.765  0.00  0.00    +0.000 A 
ATOM     19  C   UNL     1       0.574  10.768  19.604  0.00  0.00    +0.000 A 
ATOM     20  N   UNL     1       1.264   9.625  19.362  0.00  0.00    +0.000 NA
ENDBRANCH   8  11
ENDBRANCH   5   7
BRANCH   1  22
ATOM     21  C   UNL     1       3.943   1.443  17.778  0.00  0.00    +0.000 C 
ATOM     22  C   UNL     1       2.947   2.605  17.898  0.00  0.00    +0.000 C 
BRANCH  22  23
ATOM     23  S   UNL     1       3.447   3.977  16.774  0.00  0.00    +0.000 S 
BRANCH  23  24
ATOM     24  C   UNL     1       5.081   4.233  17.278  0.00  0.00    +0.000 A 
ATOM     25  N   UNL     1       5.555   3.995  18.481  0.00  0.00    +0.000 NA
ATOM     26  N   UNL     1       6.890   4.339  18.486  0.00  0.00    +0.000 NA
ATOM     27  C   UNL     1       7.193   4.760  17.279  0.00  0.00    +0.000 A 
ATOM     28  N   UNL     1       6.092   4.695  16.479  0.00  0.00    +0.000 N 
BRANCH  28  29
ATOM     29  C   UNL     1       6.041   5.011  15.066  0.00  0.00    +0.000 C 
ATOM     30  C   UNL     1       7.248   4.894  14.148  0.00  0.00    +0.000 C 
ATOM     31  C   UNL     1       6.141   3.905  14.025  0.00  0.00    +0.000 C 
ENDBRANCH  28  29
ENDBRANCH  23  24
ENDBRANCH  22  23
ENDBRANCH   1  22
TORSDOF 6
ENDMDL
