MODEL 1
REMARK VINA RESULT:      -8.4      0.000      0.000
REMARK  Name = 
REMARK  6 active torsions:
REMARK  status: ('A' for Active; 'I' for Inactive)
REMARK    1  A    between atoms: C_1  and  C_2
REMARK    2  A    between atoms: C_2  and  S_3
REMARK    3  A    between atoms: C_2  and  C_10
REMARK    4  A    between atoms: S_3  and  C_4
REMARK    5  A    between atoms: N_8  and  C_9
REMARK    6  A    between atoms: C_14  and  C_15
REMARK                            x       y       z     vdW  Elec       q    Type
REMARK                         _______ _______ _______ _____ _____    ______ ____
ROOT
ATOM      1  C   UNL     1       4.879   5.153  18.116  0.00  0.00    +0.000 A 
ATOM      2  C   UNL     1       4.858   3.815  18.502  0.00  0.00    +0.000 A 
ATOM      3  C   UNL     1       3.853   3.477  19.388  0.00  0.00    +0.000 A 
ATOM      4  C   UNL     1       2.884   4.510  19.866  0.00  0.00    +0.000 A 
ATOM      5  C   UNL     1       2.827   5.915  19.384  0.00  0.00    +0.000 A 
ATOM      6  C   UNL     1       3.961   6.132  18.657  0.00  0.00    +0.000 A 
ENDROOT
BRANCH   5   7
ATOM      7  C   UNL     1       2.115   7.382  19.890  0.00  0.00    +0.000 A 
ATOM      8  N   UNL     1       1.701   7.913  18.665  0.00  0.00    +0.000 NA
ATOM      9  N   UNL     1       1.660   9.107  19.072  0.00  0.00    +0.000 N 
ATOM     10  C   UNL     1       0.897   9.333  20.177  0.00  0.00    +0.000 A 
ATOM     11  C   UNL     1       0.088  10.559  20.170  0.00  0.00    +0.000 A 
ATOM     12  C   UNL     1      -0.573  11.127  21.223  0.00  0.00    +0.000 A 
ATOM     13  C   UNL     1      -0.434  10.377  22.320  0.00  0.00    +0.000 A 
ATOM     14  C   UNL     1       0.438   9.107  22.265  0.00  0.00    +0.000 A 
ATOM     15  C   UNL     1       1.237   8.267  21.161  0.00  0.00    +0.000 A 
ATOM     16  H   UNL     1       2.406   9.711  18.773  0.00  0.00    +0.000 HD
ENDBRANCH   5   7
BRANCH   1  18
ATOM     17  C   UNL     1       4.955   6.751  16.213  0.00  0.00    +0.000 C 
ATOM     18  C   UNL     1       5.695   5.601  16.919  0.00  0.00    +0.000 C 
BRANCH  18  19
ATOM     19  S   UNL     1       5.738   4.207  15.725  0.00  0.00    +0.000 S 
BRANCH  19  20
ATOM     20  C   UNL     1       6.829   4.687  14.462  0.00  0.00    +0.000 A 
ATOM     21  N   UNL     1       7.842   5.534  14.531  0.00  0.00    +0.000 NA
ATOM     22  N   UNL     1       8.318   5.706  13.244  0.00  0.00    +0.000 NA
ATOM     23  C   UNL     1       7.570   4.974  12.433  0.00  0.00    +0.000 A 
ATOM     24  N   UNL     1       6.650   4.288  13.171  0.00  0.00    +0.000 N 
ATOM     25  C   UNL     1       5.709   3.325  12.677  0.00  0.00    +0.000 C 
ENDBRANCH  19  20
ENDBRANCH  18  19
ENDBRANCH   1  18
TORSDOF 4
ENDMDL
MODEL 2
REMARK VINA RESULT:      -8.4      1.057      1.232
REMARK  Name = 
REMARK  6 active torsions:
REMARK  status: ('A' for Active; 'I' for Inactive)
REMARK    1  A    between atoms: C_1  and  C_2
REMARK    2  A    between atoms: C_2  and  S_3
REMARK    3  A    between atoms: C_2  and  C_10
REMARK    4  A    between atoms: S_3  and  C_4
REMARK    5  A    between atoms: N_8  and  C_9
REMARK    6  A    between atoms: C_14  and  C_15
REMARK                            x       y       z     vdW  Elec       q    Type
REMARK                         _______ _______ _______ _____ _____    ______ ____
ROOT
ATOM      1  C   UNL     1       4.443   5.516  17.517  0.00  0.00    +0.000 A 
ATOM      2  C   UNL     1       4.064   4.209  17.814  0.00  0.00    +0.000 A 
ATOM      3  C   UNL     1       2.836   4.082  18.433  0.00  0.00    +0.000 A 
ATOM      4  C   UNL     1       2.012   5.291  18.739  0.00  0.00    +0.000 A 
ATOM      5  C   UNL     1       2.352   6.681  18.335  0.00  0.00    +0.000 A 
ATOM      6  C   UNL     1       3.643   6.661  17.893  0.00  0.00    +0.000 A 
ENDROOT
BRANCH   5   7
ATOM      7  C   UNL     1       1.855   8.261  18.750  0.00  0.00    +0.000 A 
ATOM      8  N   UNL     1       1.552   8.784  17.490  0.00  0.00    +0.000 NA
ATOM      9  N   UNL     1       1.679   9.990  17.839  0.00  0.00    +0.000 N 
ATOM     10  C   UNL     1       0.934  10.382  18.907  0.00  0.00    +0.000 A 
ATOM     11  C   UNL     1       0.316  11.712  18.819  0.00  0.00    +0.000 A 
ATOM     12  C   UNL     1      -0.278  12.424  19.823  0.00  0.00    +0.000 A 
ATOM     13  C   UNL     1      -0.277  11.718  20.958  0.00  0.00    +0.000 A 
ATOM     14  C   UNL     1       0.398  10.332  20.990  0.00  0.00    +0.000 A 
ATOM     15  C   UNL     1       1.088   9.329  19.950  0.00  0.00    +0.000 A 
ATOM     16  H   UNL     1       2.514  10.462  17.535  0.00  0.00    +0.000 HD
ENDBRANCH   5   7
BRANCH   1  18
ATOM     17  C   UNL     1       5.136   6.854  15.540  0.00  0.00    +0.000 C 
ATOM     18  C   UNL     1       5.586   5.792  16.559  0.00  0.00    +0.000 C 
BRANCH  18  19
ATOM     19  S   UNL     1       5.889   4.255  15.601  0.00  0.00    +0.000 S 
BRANCH  19  20
ATOM     20  C   UNL     1       6.927   4.705  14.284  0.00  0.00    +0.000 A 
ATOM     21  N   UNL     1       7.957   5.534  14.297  0.00  0.00    +0.000 NA
ATOM     22  N   UNL     1       8.374   5.687  12.987  0.00  0.00    +0.000 NA
ATOM     23  C   UNL     1       7.576   4.962  12.219  0.00  0.00    +0.000 A 
ATOM     24  N   UNL     1       6.680   4.299  13.006  0.00  0.00    +0.000 N 
ATOM     25  C   UNL     1       5.700   3.348  12.567  0.00  0.00    +0.000 C 
ENDBRANCH  19  20
ENDBRANCH  18  19
ENDBRANCH   1  18
TORSDOF 4
ENDMDL
MODEL 3
REMARK VINA RESULT:      -8.2      4.197      7.272
REMARK  Name = 
REMARK  6 active torsions:
REMARK  status: ('A' for Active; 'I' for Inactive)
REMARK    1  A    between atoms: C_1  and  C_2
REMARK    2  A    between atoms: C_2  and  S_3
REMARK    3  A    between atoms: C_2  and  C_10
REMARK    4  A    between atoms: S_3  and  C_4
REMARK    5  A    between atoms: N_8  and  C_9
REMARK    6  A    between atoms: C_14  and  C_15
REMARK                            x       y       z     vdW  Elec       q    Type
REMARK                         _______ _______ _______ _____ _____    ______ ____
ROOT
ATOM      1  C   UNL     1       4.450   5.577  17.050  0.00  0.00    +0.000 A 
ATOM      2  C   UNL     1       4.768   4.561  16.152  0.00  0.00    +0.000 A 
ATOM      3  C   UNL     1       6.087   4.534  15.741  0.00  0.00    +0.000 A 
ATOM      4  C   UNL     1       7.062   5.545  16.253  0.00  0.00    +0.000 A 
ATOM      5  C   UNL     1       6.765   6.569  17.289  0.00  0.00    +0.000 A 
ATOM      6  C   UNL     1       5.412   6.575  17.466  0.00  0.00    +0.000 A 
ENDROOT
BRANCH   5   7
ATOM      7  C   UNL     1       7.480   8.008  17.864  0.00  0.00    +0.000 A 
ATOM      8  N   UNL     1       8.584   7.499  18.556  0.00  0.00    +0.000 NA
ATOM      9  N   UNL     1       8.727   8.513  19.294  0.00  0.00    +0.000 N 
ATOM     10  C   UNL     1       8.850   9.705  18.649  0.00  0.00    +0.000 A 
ATOM     11  C   UNL     1       9.842  10.642  19.195  0.00  0.00    +0.000 A 
ATOM     12  C   UNL     1       9.999  11.964  18.885  0.00  0.00    +0.000 A 
ATOM     13  C   UNL     1       9.128  12.327  17.938  0.00  0.00    +0.000 A 
ATOM     14  C   UNL     1       8.104  11.300  17.415  0.00  0.00    +0.000 A 
ATOM     15  C   UNL     1       7.789   9.742  17.604  0.00  0.00    +0.000 A 
ATOM     16  H   UNL     1       8.428   8.421  20.250  0.00  0.00    +0.000 HD
ENDBRANCH   5   7
BRANCH   1  18
ATOM     17  C   UNL     1       3.462   5.801  19.320  0.00  0.00    +0.000 C 
ATOM     18  C   UNL     1       3.154   5.540  17.835  0.00  0.00    +0.000 C 
BRANCH  18  19
ATOM     19  S   UNL     1       2.498   3.827  17.739  0.00  0.00    +0.000 S 
BRANCH  19  20
ATOM     20  C   UNL     1       2.117   3.365  19.369  0.00  0.00    +0.000 A 
ATOM     21  N   UNL     1       1.012   3.606  20.053  0.00  0.00    +0.000 NA
ATOM     22  N   UNL     1       1.232   3.174  21.349  0.00  0.00    +0.000 NA
ATOM     23  C   UNL     1       2.466   2.702  21.416  0.00  0.00    +0.000 A 
ATOM     24  N   UNL     1       3.038   2.769  20.179  0.00  0.00    +0.000 N 
ATOM     25  C   UNL     1       4.336   2.281  19.812  0.00  0.00    +0.000 C 
ENDBRANCH  19  20
ENDBRANCH  18  19
ENDBRANCH   1  18
TORSDOF 4
ENDMDL
MODEL 4
REMARK VINA RESULT:      -8.2      4.571      7.142
REMARK  Name = 
REMARK  6 active torsions:
REMARK  status: ('A' for Active; 'I' for Inactive)
REMARK    1  A    between atoms: C_1  and  C_2
REMARK    2  A    between atoms: C_2  and  S_3
REMARK    3  A    between atoms: C_2  and  C_10
REMARK    4  A    between atoms: S_3  and  C_4
REMARK    5  A    between atoms: N_8  and  C_9
REMARK    6  A    between atoms: C_14  and  C_15
REMARK                            x       y       z     vdW  Elec       q    Type
REMARK                         _______ _______ _______ _____ _____    ______ ____
ROOT
ATOM      1  C   UNL     1       4.625   6.161  17.040  0.00  0.00    +0.000 A 
ATOM      2  C   UNL     1       4.933   5.139  16.145  0.00  0.00    +0.000 A 
ATOM      3  C   UNL     1       6.259   5.075  15.763  0.00  0.00    +0.000 A 
ATOM      4  C   UNL     1       7.252   6.054  16.301  0.00  0.00    +0.000 A 
ATOM      5  C   UNL     1       6.962   7.082  17.335  0.00  0.00    +0.000 A 
ATOM      6  C   UNL     1       5.607   7.128  17.482  0.00  0.00    +0.000 A 
ENDROOT
BRANCH   5   7
ATOM      7  C   UNL     1       7.706   8.498  17.933  0.00  0.00    +0.000 A 
ATOM      8  N   UNL     1       8.753   7.952  18.683  0.00  0.00    +0.000 NA
ATOM      9  N   UNL     1       8.901   8.967  19.419  0.00  0.00    +0.000 N 
ATOM     10  C   UNL     1       9.104  10.146  18.770  0.00  0.00    +0.000 A 
ATOM     11  C   UNL     1      10.105  11.048  19.357  0.00  0.00    +0.000 A 
ATOM     12  C   UNL     1      10.331  12.359  19.044  0.00  0.00    +0.000 A 
ATOM     13  C   UNL     1       9.523  12.747  18.052  0.00  0.00    +0.000 A 
ATOM     14  C   UNL     1       8.486  11.757  17.486  0.00  0.00    +0.000 A 
ATOM     15  C   UNL     1       8.098  10.215  17.674  0.00  0.00    +0.000 A 
ATOM     16  H   UNL     1       8.551   8.897  20.359  0.00  0.00    +0.000 HD
ENDBRANCH   5   7
BRANCH   1  18
ATOM     17  C   UNL     1       2.883   7.613  18.055  0.00  0.00    +0.000 C 
ATOM     18  C   UNL     1       3.311   6.158  17.795  0.00  0.00    +0.000 C 
BRANCH  18  19
ATOM     19  S   UNL     1       3.621   5.411  19.444  0.00  0.00    +0.000 S 
BRANCH  19  20
ATOM     20  C   UNL     1       3.243   3.723  19.287  0.00  0.00    +0.000 A 
ATOM     21  N   UNL     1       3.991   2.759  18.778  0.00  0.00    +0.000 NA
ATOM     22  N   UNL     1       3.211   1.618  18.734  0.00  0.00    +0.000 NA
ATOM     23  C   UNL     1       2.011   1.928  19.199  0.00  0.00    +0.000 A 
ATOM     24  N   UNL     1       2.009   3.234  19.595  0.00  0.00    +0.000 N 
ATOM     25  C   UNL     1       0.928   3.930  20.230  0.00  0.00    +0.000 C 
ENDBRANCH  19  20
ENDBRANCH  18  19
ENDBRANCH   1  18
TORSDOF 4
ENDMDL
MODEL 5
REMARK VINA RESULT:      -8.2      2.166      3.141
REMARK  Name = 
REMARK  6 active torsions:
REMARK  status: ('A' for Active; 'I' for Inactive)
REMARK    1  A    between atoms: C_1  and  C_2
REMARK    2  A    between atoms: C_2  and  S_3
REMARK    3  A    between atoms: C_2  and  C_10
REMARK    4  A    between atoms: S_3  and  C_4
REMARK    5  A    between atoms: N_8  and  C_9
REMARK    6  A    between atoms: C_14  and  C_15
REMARK                            x       y       z     vdW  Elec       q    Type
REMARK                         _______ _______ _______ _____ _____    ______ ____
ROOT
ATOM      1  C   UNL     1       4.698   4.833  16.609  0.00  0.00    +0.000 A 
ATOM      2  C   UNL     1       4.476   3.467  16.757  0.00  0.00    +0.000 A 
ATOM      3  C   UNL     1       3.444   3.131  17.613  0.00  0.00    +0.000 A 
ATOM      4  C   UNL     1       2.654   4.196  18.303  0.00  0.00    +0.000 A 
ATOM      5  C   UNL     1       2.809   5.657  18.076  0.00  0.00    +0.000 A 
ATOM      6  C   UNL     1       3.952   5.827  17.350  0.00  0.00    +0.000 A 
ENDROOT
BRANCH   5   7
ATOM      7  C   UNL     1       2.342   7.100  18.858  0.00  0.00    +0.000 A 
ATOM      8  N   UNL     1       1.857   7.844  17.778  0.00  0.00    +0.000 NA
ATOM      9  N   UNL     1       2.007   8.964  18.340  0.00  0.00    +0.000 N 
ATOM     10  C   UNL     1       1.408   9.104  19.554  0.00  0.00    +0.000 A 
ATOM     11  C   UNL     1       0.757  10.396  19.813  0.00  0.00    +0.000 A 
ATOM     12  C   UNL     1       0.294  10.870  21.009  0.00  0.00    +0.000 A 
ATOM     13  C   UNL     1       0.466   9.958  21.970  0.00  0.00    +0.000 A 
ATOM     14  C   UNL     1       1.167   8.626  21.637  0.00  0.00    +0.000 A 
ATOM     15  C   UNL     1       1.727   7.878  20.337  0.00  0.00    +0.000 A 
ATOM     16  H   UNL     1       2.782   9.524  18.029  0.00  0.00    +0.000 HD
ENDBRANCH   5   7
BRANCH   1  18
ATOM     17  C   UNL     1       5.240   4.558  14.199  0.00  0.00    +0.000 C 
ATOM     18  C   UNL     1       5.556   5.359  15.474  0.00  0.00    +0.000 C 
BRANCH  18  19
ATOM     19  S   UNL     1       7.307   4.995  15.890  0.00  0.00    +0.000 S 
BRANCH  19  20
ATOM     20  C   UNL     1       7.473   5.303  17.591  0.00  0.00    +0.000 A 
ATOM     21  N   UNL     1       7.431   4.436  18.589  0.00  0.00    +0.000 NA
ATOM     22  N   UNL     1       7.462   5.166  19.763  0.00  0.00    +0.000 NA
ATOM     23  C   UNL     1       7.504   6.450  19.443  0.00  0.00    +0.000 A 
ATOM     24  N   UNL     1       7.554   6.570  18.085  0.00  0.00    +0.000 N 
ATOM     25  C   UNL     1       7.691   7.789  17.342  0.00  0.00    +0.000 C 
ENDBRANCH  19  20
ENDBRANCH  18  19
ENDBRANCH   1  18
TORSDOF 4
ENDMDL
MODEL 6
REMARK VINA RESULT:      -8.1      4.260      7.212
REMARK  Name = 
REMARK  6 active torsions:
REMARK  status: ('A' for Active; 'I' for Inactive)
REMARK    1  A    between atoms: C_1  and  C_2
REMARK    2  A    between atoms: C_2  and  S_3
REMARK    3  A    between atoms: C_2  and  C_10
REMARK    4  A    between atoms: S_3  and  C_4
REMARK    5  A    between atoms: N_8  and  C_9
REMARK    6  A    between atoms: C_14  and  C_15
REMARK                            x       y       z     vdW  Elec       q    Type
REMARK                         _______ _______ _______ _____ _____    ______ ____
ROOT
ATOM      1  C   UNL     1       4.695   4.709  16.556  0.00  0.00    +0.000 A 
ATOM      2  C   UNL     1       5.077   3.886  15.499  0.00  0.00    +0.000 A 
ATOM      3  C   UNL     1       6.360   4.094  15.030  0.00  0.00    +0.000 A 
ATOM      4  C   UNL     1       7.234   5.137  15.649  0.00  0.00    +0.000 A 
ATOM      5  C   UNL     1       6.880   5.949  16.842  0.00  0.00    +0.000 A 
ATOM      6  C   UNL     1       5.551   5.752  17.078  0.00  0.00    +0.000 A 
ENDROOT
BRANCH   5   7
ATOM      7  C   UNL     1       7.448   7.370  17.601  0.00  0.00    +0.000 A 
ATOM      8  N   UNL     1       8.458   6.851  18.417  0.00  0.00    +0.000 NA
ATOM      9  N   UNL     1       8.453   7.819  19.226  0.00  0.00    +0.000 N 
ATOM     10  C   UNL     1       8.622   9.053  18.677  0.00  0.00    +0.000 A 
ATOM     11  C   UNL     1       9.487   9.982  19.418  0.00  0.00    +0.000 A 
ATOM     12  C   UNL     1       9.636  11.325  19.213  0.00  0.00    +0.000 A 
ATOM     13  C   UNL     1       8.899  11.722  18.171  0.00  0.00    +0.000 A 
ATOM     14  C   UNL     1       8.003  10.701  17.442  0.00  0.00    +0.000 A 
ATOM     15  C   UNL     1       7.724   9.125  17.491  0.00  0.00    +0.000 A 
ATOM     16  H   UNL     1       8.021   7.657  20.120  0.00  0.00    +0.000 HD
ENDBRANCH   5   7
BRANCH   1  18
ATOM     17  C   UNL     1       3.394   5.360  18.572  0.00  0.00    +0.000 C 
ATOM     18  C   UNL     1       3.465   4.386  17.382  0.00  0.00    +0.000 C 
BRANCH  18  19
ATOM     19  S   UNL     1       3.705   2.713  18.101  0.00  0.00    +0.000 S 
BRANCH  19  20
ATOM     20  C   UNL     1       3.009   2.767  19.691  0.00  0.00    +0.000 A 
ATOM     21  N   UNL     1       3.630   2.822  20.857  0.00  0.00    +0.000 NA
ATOM     22  N   UNL     1       2.665   2.698  21.840  0.00  0.00    +0.000 NA
ATOM     23  C   UNL     1       1.493   2.552  21.242  0.00  0.00    +0.000 A 
ATOM     24  N   UNL     1       1.667   2.633  19.891  0.00  0.00    +0.000 N 
ATOM     25  C   UNL     1       0.635   2.608  18.896  0.00  0.00    +0.000 C 
ENDBRANCH  19  20
ENDBRANCH  18  19
ENDBRANCH   1  18
TORSDOF 4
ENDMDL
MODEL 7
REMARK VINA RESULT:      -8.1      4.342      8.745
REMARK  Name = 
REMARK  6 active torsions:
REMARK  status: ('A' for Active; 'I' for Inactive)
REMARK    1  A    between atoms: C_1  and  C_2
REMARK    2  A    between atoms: C_2  and  S_3
REMARK    3  A    between atoms: C_2  and  C_10
REMARK    4  A    between atoms: S_3  and  C_4
REMARK    5  A    between atoms: N_8  and  C_9
REMARK    6  A    between atoms: C_14  and  C_15
REMARK                            x       y       z     vdW  Elec       q    Type
REMARK                         _______ _______ _______ _____ _____    ______ ____
ROOT
ATOM      1  C   UNL     1      -0.259  10.430  20.060  0.00  0.00    +0.000 A 
ATOM      2  C   UNL     1      -0.708  10.815  21.321  0.00  0.00    +0.000 A 
ATOM      3  C   UNL     1      -0.186  10.091  22.375  0.00  0.00    +0.000 A 
ATOM      4  C   UNL     1       0.788   8.984  22.126  0.00  0.00    +0.000 A 
ATOM      5  C   UNL     1       1.357   8.629  20.800  0.00  0.00    +0.000 A 
ATOM      6  C   UNL     1       0.633   9.308  19.863  0.00  0.00    +0.000 A 
ENDROOT
BRANCH   5   7
ATOM      7  C   UNL     1       2.196   7.312  20.111  0.00  0.00    +0.000 A 
ATOM      8  N   UNL     1       1.550   6.234  20.724  0.00  0.00    +0.000 NA
ATOM      9  N   UNL     1       2.501   5.424  20.551  0.00  0.00    +0.000 N 
ATOM     10  C   UNL     1       2.937   5.284  19.269  0.00  0.00    +0.000 A 
ATOM     11  C   UNL     1       3.266   3.917  18.839  0.00  0.00    +0.000 A 
ATOM     12  C   UNL     1       3.927   3.538  17.704  0.00  0.00    +0.000 A 
ATOM     13  C   UNL     1       4.224   4.607  16.958  0.00  0.00    +0.000 A 
ATOM     14  C   UNL     1       3.863   6.015  17.471  0.00  0.00    +0.000 A 
ATOM     15  C   UNL     1       3.075   6.657  18.708  0.00  0.00    +0.000 A 
ATOM     16  H   UNL     1       3.056   5.200  21.360  0.00  0.00    +0.000 HD
ENDBRANCH   5   7
BRANCH   1  18
ATOM     17  C   UNL     1       0.151  12.701  19.136  0.00  0.00    +0.000 C 
ATOM     18  C   UNL     1      -0.476  11.324  18.855  0.00  0.00    +0.000 C 
BRANCH  18  19
ATOM     19  S   UNL     1      -2.284  11.605  18.693  0.00  0.00    +0.000 S 
BRANCH  19  20
ATOM     20  C   UNL     1      -2.753  10.874  17.189  0.00  0.00    +0.000 A 
ATOM     21  N   UNL     1      -2.043  10.078  16.407  0.00  0.00    +0.000 NA
ATOM     22  N   UNL     1      -2.781   9.873  15.256  0.00  0.00    +0.000 NA
ATOM     23  C   UNL     1      -3.905  10.564  15.365  0.00  0.00    +0.000 A 
ATOM     24  N   UNL     1      -3.938  11.172  16.587  0.00  0.00    +0.000 N 
ATOM     25  C   UNL     1      -5.021  11.943  17.125  0.00  0.00    +0.000 C 
ENDBRANCH  19  20
ENDBRANCH  18  19
ENDBRANCH   1  18
TORSDOF 4
ENDMDL
MODEL 8
REMARK VINA RESULT:      -8.1      4.469      7.293
REMARK  Name = 
REMARK  6 active torsions:
REMARK  status: ('A' for Active; 'I' for Inactive)
REMARK    1  A    between atoms: C_1  and  C_2
REMARK    2  A    between atoms: C_2  and  S_3
REMARK    3  A    between atoms: C_2  and  C_10
REMARK    4  A    between atoms: S_3  and  C_4
REMARK    5  A    between atoms: N_8  and  C_9
REMARK    6  A    between atoms: C_14  and  C_15
REMARK                            x       y       z     vdW  Elec       q    Type
REMARK                         _______ _______ _______ _____ _____    ______ ____
ROOT
ATOM      1  C   UNL     1       4.685   6.174  17.031  0.00  0.00    +0.000 A 
ATOM      2  C   UNL     1       4.996   5.170  16.117  0.00  0.00    +0.000 A 
ATOM      3  C   UNL     1       6.320   5.127  15.724  0.00  0.00    +0.000 A 
ATOM      4  C   UNL     1       7.306   6.109  16.270  0.00  0.00    +0.000 A 
ATOM      5  C   UNL     1       7.014   7.117  17.322  0.00  0.00    +0.000 A 
ATOM      6  C   UNL     1       5.659   7.145  17.480  0.00  0.00    +0.000 A 
ENDROOT
BRANCH   5   7
ATOM      7  C   UNL     1       7.747   8.531  17.936  0.00  0.00    +0.000 A 
ATOM      8  N   UNL     1       8.783   7.985  18.700  0.00  0.00    +0.000 NA
ATOM      9  N   UNL     1       8.918   8.997  19.441  0.00  0.00    +0.000 N 
ATOM     10  C   UNL     1       9.129  10.179  18.800  0.00  0.00    +0.000 A 
ATOM     11  C   UNL     1      10.120  11.080  19.405  0.00  0.00    +0.000 A 
ATOM     12  C   UNL     1      10.349  12.392  19.100  0.00  0.00    +0.000 A 
ATOM     13  C   UNL     1       9.556  12.783  18.097  0.00  0.00    +0.000 A 
ATOM     14  C   UNL     1       8.528  11.793  17.513  0.00  0.00    +0.000 A 
ATOM     15  C   UNL     1       8.140  10.250  17.689  0.00  0.00    +0.000 A 
ATOM     16  H   UNL     1       8.554   8.923  20.375  0.00  0.00    +0.000 HD
ENDBRANCH   5   7
BRANCH   1  18
ATOM     17  C   UNL     1       2.901   7.591  18.026  0.00  0.00    +0.000 C 
ATOM     18  C   UNL     1       3.377   6.145  17.797  0.00  0.00    +0.000 C 
BRANCH  18  19
ATOM     19  S   UNL     1       3.724   5.448  19.460  0.00  0.00    +0.000 S 
BRANCH  19  20
ATOM     20  C   UNL     1       2.530   4.215  19.725  0.00  0.00    +0.000 A 
ATOM     21  N   UNL     1       1.431   4.281  20.457  0.00  0.00    +0.000 NA
ATOM     22  N   UNL     1       0.882   3.012  20.483  0.00  0.00    +0.000 NA
ATOM     23  C   UNL     1       1.671   2.213  19.783  0.00  0.00    +0.000 A 
ATOM     24  N   UNL     1       2.695   2.945  19.258  0.00  0.00    +0.000 N 
ATOM     25  C   UNL     1       3.717   2.468  18.372  0.00  0.00    +0.000 C 
ENDBRANCH  19  20
ENDBRANCH  18  19
ENDBRANCH   1  18
TORSDOF 4
ENDMDL
MODEL 9
REMARK VINA RESULT:      -8.0      1.368      1.773
REMARK  Name = 
REMARK  6 active torsions:
REMARK  status: ('A' for Active; 'I' for Inactive)
REMARK    1  A    between atoms: C_1  and  C_2
REMARK    2  A    between atoms: C_2  and  S_3
REMARK    3  A    between atoms: C_2  and  C_10
REMARK    4  A    between atoms: S_3  and  C_4
REMARK    5  A    between atoms: N_8  and  C_9
REMARK    6  A    between atoms: C_14  and  C_15
REMARK                            x       y       z     vdW  Elec       q    Type
REMARK                         _______ _______ _______ _____ _____    ______ ____
ROOT
ATOM      1  C   UNL     1       5.037   4.722  19.288  0.00  0.00    +0.000 A 
ATOM      2  C   UNL     1       4.597   3.432  19.577  0.00  0.00    +0.000 A 
ATOM      3  C   UNL     1       3.240   3.314  19.809  0.00  0.00    +0.000 A 
ATOM      4  C   UNL     1       2.352   4.515  19.741  0.00  0.00    +0.000 A 
ATOM      5  C   UNL     1       2.787   5.876  19.333  0.00  0.00    +0.000 A 
ATOM      6  C   UNL     1       4.151   5.865  19.301  0.00  0.00    +0.000 A 
ENDROOT
BRANCH   5   7
ATOM      7  C   UNL     1       2.174   7.467  19.433  0.00  0.00    +0.000 A 
ATOM      8  N   UNL     1       1.994   7.768  18.079  0.00  0.00    +0.000 NA
ATOM      9  N   UNL     1       2.026   9.020  18.241  0.00  0.00    +0.000 N 
ATOM     10  C   UNL     1       1.146   9.524  19.148  0.00  0.00    +0.000 A 
ATOM     11  C   UNL     1       0.483  10.784  18.782  0.00  0.00    +0.000 A 
ATOM     12  C   UNL     1      -0.253  11.604  19.590  0.00  0.00    +0.000 A 
ATOM     13  C   UNL     1      -0.349  11.084  20.818  0.00  0.00    +0.000 A 
ATOM     14  C   UNL     1       0.379   9.765  21.143  0.00  0.00    +0.000 A 
ATOM     15  C   UNL     1       1.229   8.658  20.358  0.00  0.00    +0.000 A 
ATOM     16  H   UNL     1       2.868   9.490  17.955  0.00  0.00    +0.000 HD
ENDBRANCH   5   7
BRANCH   1  18
ATOM     17  C   UNL     1       7.324   5.563  19.777  0.00  0.00    +0.000 C 
ATOM     18  C   UNL     1       6.413   4.956  18.696  0.00  0.00    +0.000 C 
BRANCH  18  19
ATOM     19  S   UNL     1       6.242   6.235  17.389  0.00  0.00    +0.000 S 
BRANCH  19  20
ATOM     20  C   UNL     1       6.630   5.448  15.891  0.00  0.00    +0.000 A 
ATOM     21  N   UNL     1       7.655   5.674  15.087  0.00  0.00    +0.000 NA
ATOM     22  N   UNL     1       7.459   4.910  13.951  0.00  0.00    +0.000 NA
ATOM     23  C   UNL     1       6.314   4.259  14.091  0.00  0.00    +0.000 A 
ATOM     24  N   UNL     1       5.788   4.542  15.318  0.00  0.00    +0.000 N 
ATOM     25  C   UNL     1       4.600   3.974  15.887  0.00  0.00    +0.000 C 
ENDBRANCH  19  20
ENDBRANCH  18  19
ENDBRANCH   1  18
TORSDOF 4
ENDMDL
