MODEL 1
REMARK VINA RESULT:     -10.7      0.000      0.000
REMARK  Name = 
REMARK  7 active torsions:
REMARK  status: ('A' for Active; 'I' for Inactive)
REMARK    1  A    between atoms: C_1  and  N_2
REMARK    2  A    between atoms: C_6  and  C_7
REMARK    3  A    between atoms: C_7  and  C_8
REMARK    4  A    between atoms: C_8  and  C_9
REMARK    5  A    between atoms: C_13  and  N_14
REMARK    6  A    between atoms: C_19  and  N_20
REMARK    7  A    between atoms: C_30  and  C_31
REMARK                            x       y       z     vdW  Elec       q    Type
REMARK                         _______ _______ _______ _____ _____    ______ ____
ROOT
ATOM      1  N   UNL     1       2.095   7.381  18.955  0.00  0.00    +0.000 N 
ATOM      2  C   UNL     1       1.437   7.637  20.226  0.00  0.00    +0.000 C 
ATOM      3  C   UNL     1       1.162   9.091  20.204  0.00  0.00    +0.000 A 
ATOM      4  C   UNL     1       1.530   9.609  18.968  0.00  0.00    +0.000 A 
ATOM      5  C   UNL     1       1.345  10.941  18.670  0.00  0.00    +0.000 A 
ATOM      6  C   UNL     1       0.782  11.788  19.645  0.00  0.00    +0.000 A 
ATOM      7  C   UNL     1       0.460  11.249  20.909  0.00  0.00    +0.000 A 
ATOM      8  C   UNL     1       0.640   9.890  21.210  0.00  0.00    +0.000 A 
ATOM      9  C   UNL     1       2.145   8.530  18.167  0.00  0.00    +0.000 C 
ATOM     10  O   UNL     1       2.606   8.711  17.055  0.00  0.00    +0.000 OA
ENDROOT
BRANCH   6  11
ATOM     11  N   UNL     1       0.610  13.128  19.350  0.00  0.00    +0.000 N 
ATOM     12  C   UNL     1      -0.731  13.746  19.262  0.00  0.00    +0.000 C 
ATOM     13  C   UNL     1      -0.623  15.273  19.548  0.00  0.00    +0.000 C 
ATOM     14  N   UNL     1       0.371  15.902  18.666  0.00  0.00    +0.000 NA
ATOM     15  C   UNL     1       0.652  17.304  18.928  0.00  0.00    +0.000 C 
ATOM     16  C   UNL     1       1.951  17.513  18.145  0.00  0.00    +0.000 C 
ATOM     17  C   UNL     1       2.579  16.121  17.997  0.00  0.00    +0.000 C 
ATOM     18  C   UNL     1       1.679  15.236  18.836  0.00  0.00    +0.000 C 
ATOM     19  C   UNL     1       1.607  13.754  18.451  0.00  0.00    +0.000 C 
ENDBRANCH   6  11
BRANCH   1  24
ATOM     20  C   UNL     1       4.544   4.854  17.679  0.00  0.00    +0.000 A 
ATOM     21  C   UNL     1       3.854   3.672  17.985  0.00  0.00    +0.000 A 
ATOM     22  C   UNL     1       2.615   3.697  18.642  0.00  0.00    +0.000 A 
ATOM     23  C   UNL     1       2.013   4.909  18.997  0.00  0.00    +0.000 A 
ATOM     24  C   UNL     1       2.650   6.107  18.699  0.00  0.00    +0.000 A 
ATOM     25  C   UNL     1       3.905   6.041  18.070  0.00  0.00    +0.000 A 
BRANCH  20  26
ATOM     26  C   UNL     1       5.973   4.923  16.936  0.00  0.00    +0.000 C 
ATOM     27  C   UNL     1       7.211   4.710  17.846  0.00  0.00    +0.000 C 
ATOM     28  O   UNL     1       7.752   6.008  17.535  0.00  0.00    +0.000 OA
ATOM     29  C   UNL     1       6.609   6.331  16.717  0.00  0.00    +0.000 C 
BRANCH  26  30
ATOM     30  C   UNL     1       5.991   4.038  15.662  0.00  0.00    +0.000 C 
BRANCH  30  36
ATOM     31  C   UNL     1       5.702   3.359  12.597  0.00  0.00    +0.000 C 
ATOM     32  N   UNL     1       6.630   4.284  13.194  0.00  0.00    +0.000 N 
ATOM     33  C   UNL     1       7.566   5.003  12.515  0.00  0.00    +0.000 A 
ATOM     34  N   UNL     1       8.271   5.712  13.360  0.00  0.00    +0.000 NA
ATOM     35  N   UNL     1       7.799   5.442  14.618  0.00  0.00    +0.000 NA
ATOM     36  C   UNL     1       6.788   4.598  14.524  0.00  0.00    +0.000 A 
ENDBRANCH  30  36
ENDBRANCH  26  30
ENDBRANCH  20  26
ENDBRANCH   1  24
BRANCH   8  37
ATOM     37  C   UNL     1       0.297   9.354  22.576  0.00  0.00    +0.000 C 
ATOM     38  F   UNL     1      -0.256  10.278  23.408  0.00  0.00    +0.000 F 
ATOM     39  F   UNL     1      -0.588   8.323  22.519  0.00  0.00    +0.000 F 
ATOM     40  F   UNL     1       1.390   8.879  23.233  0.00  0.00    +0.000 F 
ENDBRANCH   8  37
TORSDOF 6
ENDMDL
MODEL 2
REMARK VINA RESULT:     -10.6      1.474      2.400
REMARK  Name = 
REMARK  7 active torsions:
REMARK  status: ('A' for Active; 'I' for Inactive)
REMARK    1  A    between atoms: C_1  and  N_2
REMARK    2  A    between atoms: C_6  and  C_7
REMARK    3  A    between atoms: C_7  and  C_8
REMARK    4  A    between atoms: C_8  and  C_9
REMARK    5  A    between atoms: C_13  and  N_14
REMARK    6  A    between atoms: C_19  and  N_20
REMARK    7  A    between atoms: C_30  and  C_31
REMARK                            x       y       z     vdW  Elec       q    Type
REMARK                         _______ _______ _______ _____ _____    ______ ____
ROOT
ATOM      1  N   UNL     1       2.207   7.239  18.953  0.00  0.00    +0.000 N 
ATOM      2  C   UNL     1       1.494   7.542  20.184  0.00  0.00    +0.000 C 
ATOM      3  C   UNL     1       1.258   9.002  20.113  0.00  0.00    +0.000 A 
ATOM      4  C   UNL     1       1.699   9.479  18.886  0.00  0.00    +0.000 A 
ATOM      5  C   UNL     1       1.563  10.809  18.547  0.00  0.00    +0.000 A 
ATOM      6  C   UNL     1       0.975  11.693  19.473  0.00  0.00    +0.000 A 
ATOM      7  C   UNL     1       0.578  11.194  20.731  0.00  0.00    +0.000 A 
ATOM      8  C   UNL     1       0.707   9.838  21.073  0.00  0.00    +0.000 A 
ATOM      9  C   UNL     1       2.325   8.367  18.142  0.00  0.00    +0.000 C 
ATOM     10  O   UNL     1       2.846   8.509  17.050  0.00  0.00    +0.000 OA
ENDROOT
BRANCH   6  11
ATOM     11  N   UNL     1       0.852  13.029  19.137  0.00  0.00    +0.000 N 
ATOM     12  C   UNL     1      -0.467  13.680  18.982  0.00  0.00    +0.000 C 
ATOM     13  C   UNL     1      -0.327  15.211  19.233  0.00  0.00    +0.000 C 
ATOM     14  N   UNL     1       0.717  15.789  18.375  0.00  0.00    +0.000 NA
ATOM     15  C   UNL     1       1.027  17.190  18.614  0.00  0.00    +0.000 C 
ATOM     16  C   UNL     1       2.361  17.343  17.877  0.00  0.00    +0.000 C 
ATOM     17  C   UNL     1       2.955  15.931  17.789  0.00  0.00    +0.000 C 
ATOM     18  C   UNL     1       1.999  15.093  18.613  0.00  0.00    +0.000 C 
ATOM     19  C   UNL     1       1.900  13.604  18.263  0.00  0.00    +0.000 C 
ENDBRANCH   6  11
BRANCH   1  24
ATOM     20  C   UNL     1       4.384   4.569  17.488  0.00  0.00    +0.000 A 
ATOM     21  C   UNL     1       3.846   3.442  18.127  0.00  0.00    +0.000 A 
ATOM     22  C   UNL     1       2.808   3.555  19.063  0.00  0.00    +0.000 A 
ATOM     23  C   UNL     1       2.255   4.802  19.376  0.00  0.00    +0.000 A 
ATOM     24  C   UNL     1       2.742   5.946  18.755  0.00  0.00    +0.000 A 
ATOM     25  C   UNL     1       3.805   5.796  17.849  0.00  0.00    +0.000 A 
BRANCH  20  26
ATOM     26  C   UNL     1       5.580   4.536  16.409  0.00  0.00    +0.000 C 
ATOM     27  C   UNL     1       5.446   5.536  15.231  0.00  0.00    +0.000 C 
ATOM     28  O   UNL     1       5.442   4.486  14.246  0.00  0.00    +0.000 OA
ATOM     29  C   UNL     1       5.501   3.472  15.271  0.00  0.00    +0.000 C 
BRANCH  26  30
ATOM     30  C   UNL     1       6.967   4.589  17.102  0.00  0.00    +0.000 C 
BRANCH  30  36
ATOM     31  C   UNL     1       7.932   5.647  19.911  0.00  0.00    +0.000 C 
ATOM     32  N   UNL     1       7.863   6.395  18.682  0.00  0.00    +0.000 N 
ATOM     33  C   UNL     1       8.184   7.711  18.548  0.00  0.00    +0.000 A 
ATOM     34  N   UNL     1       7.969   8.090  17.313  0.00  0.00    +0.000 NA
ATOM     35  N   UNL     1       7.483   7.006  16.628  0.00  0.00    +0.000 NA
ATOM     36  C   UNL     1       7.441   5.969  17.444  0.00  0.00    +0.000 A 
ENDBRANCH  30  36
ENDBRANCH  26  30
ENDBRANCH  20  26
ENDBRANCH   1  24
BRANCH   8  37
ATOM     37  C   UNL     1       0.283   9.345  22.432  0.00  0.00    +0.000 C 
ATOM     38  F   UNL     1      -0.320  10.292  23.199  0.00  0.00    +0.000 F 
ATOM     39  F   UNL     1      -0.595   8.309  22.356  0.00  0.00    +0.000 F 
ATOM     40  F   UNL     1       1.336   8.895  23.168  0.00  0.00    +0.000 F 
ENDBRANCH   8  37
TORSDOF 6
ENDMDL
MODEL 3
REMARK VINA RESULT:     -10.3      0.511      1.212
REMARK  Name = 
REMARK  7 active torsions:
REMARK  status: ('A' for Active; 'I' for Inactive)
REMARK    1  A    between atoms: C_1  and  N_2
REMARK    2  A    between atoms: C_6  and  C_7
REMARK    3  A    between atoms: C_7  and  C_8
REMARK    4  A    between atoms: C_8  and  C_9
REMARK    5  A    between atoms: C_13  and  N_14
REMARK    6  A    between atoms: C_19  and  N_20
REMARK    7  A    between atoms: C_30  and  C_31
REMARK                            x       y       z     vdW  Elec       q    Type
REMARK                         _______ _______ _______ _____ _____    ______ ____
ROOT
ATOM      1  N   UNL     1       2.097   7.494  18.728  0.00  0.00    +0.000 N 
ATOM      2  C   UNL     1       1.412   7.722  19.990  0.00  0.00    +0.000 C 
ATOM      3  C   UNL     1       1.247   9.192  20.051  0.00  0.00    +0.000 A 
ATOM      4  C   UNL     1       1.697   9.753  18.863  0.00  0.00    +0.000 A 
ATOM      5  C   UNL     1       1.622  11.112  18.643  0.00  0.00    +0.000 A 
ATOM      6  C   UNL     1       1.088  11.938  19.651  0.00  0.00    +0.000 A 
ATOM      7  C   UNL     1       0.680  11.350  20.867  0.00  0.00    +0.000 A 
ATOM      8  C   UNL     1       0.747   9.965  21.087  0.00  0.00    +0.000 A 
ATOM      9  C   UNL     1       2.261   8.682  18.016  0.00  0.00    +0.000 C 
ATOM     10  O   UNL     1       2.776   8.894  16.933  0.00  0.00    +0.000 OA
ENDROOT
BRANCH   6  11
ATOM     11  N   UNL     1       1.025  13.303  19.435  0.00  0.00    +0.000 N 
ATOM     12  C   UNL     1       2.236  14.115  19.191  0.00  0.00    +0.000 C 
ATOM     13  C   UNL     1       1.855  15.395  18.389  0.00  0.00    +0.000 C 
ATOM     14  N   UNL     1       0.780  16.135  19.064  0.00  0.00    +0.000 NA
ATOM     15  C   UNL     1       0.250  17.281  18.342  0.00  0.00    +0.000 C 
ATOM     16  C   UNL     1      -1.053  17.551  19.099  0.00  0.00    +0.000 C 
ATOM     17  C   UNL     1      -1.422  16.228  19.782  0.00  0.00    +0.000 C 
ATOM     18  C   UNL     1      -0.393  15.254  19.246  0.00  0.00    +0.000 C 
ATOM     19  C   UNL     1      -0.054  14.046  20.127  0.00  0.00    +0.000 C 
ENDBRANCH   6  11
BRANCH   1  24
ATOM     20  C   UNL     1       4.438   4.865  17.454  0.00  0.00    +0.000 A 
ATOM     21  C   UNL     1       3.626   3.731  17.593  0.00  0.00    +0.000 A 
ATOM     22  C   UNL     1       2.337   3.815  18.138  0.00  0.00    +0.000 A 
ATOM     23  C   UNL     1       1.806   5.045  18.544  0.00  0.00    +0.000 A 
ATOM     24  C   UNL     1       2.567   6.200  18.410  0.00  0.00    +0.000 A 
ATOM     25  C   UNL     1       3.866   6.071  17.891  0.00  0.00    +0.000 A 
BRANCH  20  26
ATOM     26  C   UNL     1       5.932   4.863  16.849  0.00  0.00    +0.000 C 
ATOM     27  C   UNL     1       7.068   4.595  17.872  0.00  0.00    +0.000 C 
ATOM     28  O   UNL     1       7.696   5.865  17.614  0.00  0.00    +0.000 OA
ATOM     29  C   UNL     1       6.652   6.238  16.692  0.00  0.00    +0.000 C 
BRANCH  26  30
ATOM     30  C   UNL     1       6.027   3.973  15.583  0.00  0.00    +0.000 C 
BRANCH  30  36
ATOM     31  C   UNL     1       5.785   3.331  12.505  0.00  0.00    +0.000 C 
ATOM     32  N   UNL     1       6.685   4.269  13.125  0.00  0.00    +0.000 N 
ATOM     33  C   UNL     1       7.610   5.019  12.464  0.00  0.00    +0.000 A 
ATOM     34  N   UNL     1       8.290   5.732  13.326  0.00  0.00    +0.000 NA
ATOM     35  N   UNL     1       7.813   5.434  14.576  0.00  0.00    +0.000 NA
ATOM     36  C   UNL     1       6.823   4.568  14.460  0.00  0.00    +0.000 A 
ENDBRANCH  30  36
ENDBRANCH  26  30
ENDBRANCH  20  26
ENDBRANCH   1  24
BRANCH   8  37
ATOM     37  C   UNL     1       0.314   9.376  22.405  0.00  0.00    +0.000 C 
ATOM     38  F   UNL     1      -0.237  10.279  23.259  0.00  0.00    +0.000 F 
ATOM     39  F   UNL     1      -0.611   8.390  22.251  0.00  0.00    +0.000 F 
ATOM     40  F   UNL     1       1.352   8.816  23.085  0.00  0.00    +0.000 F 
ENDBRANCH   8  37
TORSDOF 6
ENDMDL
MODEL 4
REMARK VINA RESULT:     -10.2      1.531      2.652
REMARK  Name = 
REMARK  7 active torsions:
REMARK  status: ('A' for Active; 'I' for Inactive)
REMARK    1  A    between atoms: C_1  and  N_2
REMARK    2  A    between atoms: C_6  and  C_7
REMARK    3  A    between atoms: C_7  and  C_8
REMARK    4  A    between atoms: C_8  and  C_9
REMARK    5  A    between atoms: C_13  and  N_14
REMARK    6  A    between atoms: C_19  and  N_20
REMARK    7  A    between atoms: C_30  and  C_31
REMARK                            x       y       z     vdW  Elec       q    Type
REMARK                         _______ _______ _______ _____ _____    ______ ____
ROOT
ATOM      1  N   UNL     1       2.127   7.372  18.817  0.00  0.00    +0.000 N 
ATOM      2  C   UNL     1       1.413   7.660  20.050  0.00  0.00    +0.000 C 
ATOM      3  C   UNL     1       1.290   9.135  20.060  0.00  0.00    +0.000 A 
ATOM      4  C   UNL     1       1.792   9.645  18.869  0.00  0.00    +0.000 A 
ATOM      5  C   UNL     1       1.764  10.998  18.605  0.00  0.00    +0.000 A 
ATOM      6  C   UNL     1       1.225  11.871  19.570  0.00  0.00    +0.000 A 
ATOM      7  C   UNL     1       0.764  11.334  20.791  0.00  0.00    +0.000 A 
ATOM      8  C   UNL     1       0.784   9.956  21.056  0.00  0.00    +0.000 A 
ATOM      9  C   UNL     1       2.348   8.531  18.073  0.00  0.00    +0.000 C 
ATOM     10  O   UNL     1       2.901   8.694  17.001  0.00  0.00    +0.000 OA
ENDROOT
BRANCH   6  11
ATOM     11  N   UNL     1       1.210  13.229  19.310  0.00  0.00    +0.000 N 
ATOM     12  C   UNL     1       2.453  13.999  19.085  0.00  0.00    +0.000 C 
ATOM     13  C   UNL     1       2.138  15.263  18.230  0.00  0.00    +0.000 C 
ATOM     14  N   UNL     1       1.061  16.054  18.843  0.00  0.00    +0.000 NA
ATOM     15  C   UNL     1       0.591  17.191  18.067  0.00  0.00    +0.000 C 
ATOM     16  C   UNL     1      -0.730  17.522  18.768  0.00  0.00    +0.000 C 
ATOM     17  C   UNL     1      -1.161  16.232  19.478  0.00  0.00    +0.000 C 
ATOM     18  C   UNL     1      -0.142  15.212  19.010  0.00  0.00    +0.000 C 
ATOM     19  C   UNL     1       0.130  14.024  19.939  0.00  0.00    +0.000 C 
ENDBRANCH   6  11
BRANCH   1  24
ATOM     20  C   UNL     1       4.193   4.636  17.313  0.00  0.00    +0.000 A 
ATOM     21  C   UNL     1       3.508   3.517  17.807  0.00  0.00    +0.000 A 
ATOM     22  C   UNL     1       2.403   3.652  18.661  0.00  0.00    +0.000 A 
ATOM     23  C   UNL     1       1.931   4.916  19.032  0.00  0.00    +0.000 A 
ATOM     24  C   UNL     1       2.567   6.055  18.553  0.00  0.00    +0.000 A 
ATOM     25  C   UNL     1       3.690   5.880  17.728  0.00  0.00    +0.000 A 
BRANCH  20  26
ATOM     26  C   UNL     1       5.474   4.578  16.337  0.00  0.00    +0.000 C 
ATOM     27  C   UNL     1       5.454   5.573  15.146  0.00  0.00    +0.000 C 
ATOM     28  O   UNL     1       5.514   4.516  14.170  0.00  0.00    +0.000 OA
ATOM     29  C   UNL     1       5.472   3.508  15.201  0.00  0.00    +0.000 C 
BRANCH  26  30
ATOM     30  C   UNL     1       6.799   4.614  17.141  0.00  0.00    +0.000 C 
BRANCH  30  36
ATOM     31  C   UNL     1       8.021   5.650  19.857  0.00  0.00    +0.000 C 
ATOM     32  N   UNL     1       7.840   6.407  18.646  0.00  0.00    +0.000 N 
ATOM     33  C   UNL     1       8.150   7.724  18.492  0.00  0.00    +0.000 A 
ATOM     34  N   UNL     1       7.823   8.112  17.285  0.00  0.00    +0.000 NA
ATOM     35  N   UNL     1       7.274   7.034  16.640  0.00  0.00    +0.000 NA
ATOM     36  C   UNL     1       7.305   5.991  17.449  0.00  0.00    +0.000 A 
ENDBRANCH  30  36
ENDBRANCH  26  30
ENDBRANCH  20  26
ENDBRANCH   1  24
BRANCH   8  37
ATOM     37  C   UNL     1       0.295   9.421  22.377  0.00  0.00    +0.000 C 
ATOM     38  F   UNL     1      -0.297  10.358  23.167  0.00  0.00    +0.000 F 
ATOM     39  F   UNL     1      -0.620   8.426  22.226  0.00  0.00    +0.000 F 
ATOM     40  F   UNL     1       1.303   8.897  23.126  0.00  0.00    +0.000 F 
ENDBRANCH   8  37
TORSDOF 6
ENDMDL
MODEL 5
REMARK VINA RESULT:     -10.1      0.773      1.040
REMARK  Name = 
REMARK  7 active torsions:
REMARK  status: ('A' for Active; 'I' for Inactive)
REMARK    1  A    between atoms: C_1  and  N_2
REMARK    2  A    between atoms: C_6  and  C_7
REMARK    3  A    between atoms: C_7  and  C_8
REMARK    4  A    between atoms: C_8  and  C_9
REMARK    5  A    between atoms: C_13  and  N_14
REMARK    6  A    between atoms: C_19  and  N_20
REMARK    7  A    between atoms: C_30  and  C_31
REMARK                            x       y       z     vdW  Elec       q    Type
REMARK                         _______ _______ _______ _____ _____    ______ ____
ROOT
ATOM      1  N   UNL     1       2.176   7.690  19.081  0.00  0.00    +0.000 N 
ATOM      2  C   UNL     1       1.465   7.849  20.339  0.00  0.00    +0.000 C 
ATOM      3  C   UNL     1       1.077   9.277  20.357  0.00  0.00    +0.000 A 
ATOM      4  C   UNL     1       1.436   9.865  19.150  0.00  0.00    +0.000 A 
ATOM      5  C   UNL     1       1.154  11.189  18.890  0.00  0.00    +0.000 A 
ATOM      6  C   UNL     1       0.500  11.954  19.876  0.00  0.00    +0.000 A 
ATOM      7  C   UNL     1       0.187  11.348  21.111  0.00  0.00    +0.000 A 
ATOM      8  C   UNL     1       0.465   9.997  21.372  0.00  0.00    +0.000 A 
ATOM      9  C   UNL     1       2.156   8.867  18.333  0.00  0.00    +0.000 C 
ATOM     10  O   UNL     1       2.632   9.122  17.242  0.00  0.00    +0.000 OA
ENDROOT
BRANCH   6  11
ATOM     11  N   UNL     1       0.230  13.286  19.619  0.00  0.00    +0.000 N 
ATOM     12  C   UNL     1      -1.147  13.825  19.638  0.00  0.00    +0.000 C 
ATOM     13  C   UNL     1      -1.108  15.351  19.945  0.00  0.00    +0.000 C 
ATOM     14  N   UNL     1      -0.217  16.051  19.008  0.00  0.00    +0.000 NA
ATOM     15  C   UNL     1       0.001  17.463  19.278  0.00  0.00    +0.000 C 
ATOM     16  C   UNL     1       1.228  17.761  18.411  0.00  0.00    +0.000 C 
ATOM     17  C   UNL     1       1.923  16.410  18.192  0.00  0.00    +0.000 C 
ATOM     18  C   UNL     1       1.137  15.461  19.074  0.00  0.00    +0.000 C 
ATOM     19  C   UNL     1       1.123  13.984  18.666  0.00  0.00    +0.000 C 
ENDBRANCH   6  11
BRANCH   1  24
ATOM     20  C   UNL     1       4.991   5.401  18.157  0.00  0.00    +0.000 A 
ATOM     21  C   UNL     1       4.298   4.183  18.087  0.00  0.00    +0.000 A 
ATOM     22  C   UNL     1       2.930   4.101  18.380  0.00  0.00    +0.000 A 
ATOM     23  C   UNL     1       2.199   5.241  18.734  0.00  0.00    +0.000 A 
ATOM     24  C   UNL     1       2.838   6.474  18.799  0.00  0.00    +0.000 A 
ATOM     25  C   UNL     1       4.217   6.511  18.532  0.00  0.00    +0.000 A 
BRANCH  20  26
ATOM     26  C   UNL     1       6.561   5.590  17.847  0.00  0.00    +0.000 C 
ATOM     27  C   UNL     1       7.453   5.896  19.079  0.00  0.00    +0.000 C 
ATOM     28  O   UNL     1       7.891   7.157  18.538  0.00  0.00    +0.000 OA
ATOM     29  C   UNL     1       7.043   6.998  17.382  0.00  0.00    +0.000 C 
BRANCH  26  30
ATOM     30  C   UNL     1       7.107   4.434  16.970  0.00  0.00    +0.000 C 
BRANCH  30  36
ATOM     31  C   UNL     1       5.146   3.250  14.802  0.00  0.00    +0.000 C 
ATOM     32  N   UNL     1       6.222   4.181  14.579  0.00  0.00    +0.000 N 
ATOM     33  C   UNL     1       6.584   4.683  13.366  0.00  0.00    +0.000 A 
ATOM     34  N   UNL     1       7.623   5.466  13.509  0.00  0.00    +0.000 NA
ATOM     35  N   UNL     1       7.959   5.467  14.839  0.00  0.00    +0.000 NA
ATOM     36  C   UNL     1       7.099   4.711  15.497  0.00  0.00    +0.000 A 
ENDBRANCH  30  36
ENDBRANCH  26  30
ENDBRANCH  20  26
ENDBRANCH   1  24
BRANCH   8  37
ATOM     37  C   UNL     1       0.128   9.388  22.708  0.00  0.00    +0.000 C 
ATOM     38  F   UNL     1       1.212   8.954  23.406  0.00  0.00    +0.000 F 
ATOM     39  F   UNL     1      -0.519  10.261  23.526  0.00  0.00    +0.000 F 
ATOM     40  F   UNL     1      -0.687   8.305  22.591  0.00  0.00    +0.000 F 
ENDBRANCH   8  37
TORSDOF 6
ENDMDL
MODEL 6
REMARK VINA RESULT:     -10.1      1.688      2.631
REMARK  Name = 
REMARK  7 active torsions:
REMARK  status: ('A' for Active; 'I' for Inactive)
REMARK    1  A    between atoms: C_1  and  N_2
REMARK    2  A    between atoms: C_6  and  C_7
REMARK    3  A    between atoms: C_7  and  C_8
REMARK    4  A    between atoms: C_8  and  C_9
REMARK    5  A    between atoms: C_13  and  N_14
REMARK    6  A    between atoms: C_19  and  N_20
REMARK    7  A    between atoms: C_30  and  C_31
REMARK                            x       y       z     vdW  Elec       q    Type
REMARK                         _______ _______ _______ _____ _____    ______ ____
ROOT
ATOM      1  N   UNL     1       2.090   7.452  18.837  0.00  0.00    +0.000 N 
ATOM      2  C   UNL     1       1.426   7.678  20.111  0.00  0.00    +0.000 C 
ATOM      3  C   UNL     1       1.151   9.133  20.120  0.00  0.00    +0.000 A 
ATOM      4  C   UNL     1       1.524   9.678  18.898  0.00  0.00    +0.000 A 
ATOM      5  C   UNL     1       1.340  11.017  18.629  0.00  0.00    +0.000 A 
ATOM      6  C   UNL     1       0.773  11.841  19.621  0.00  0.00    +0.000 A 
ATOM      7  C   UNL     1       0.445  11.274  20.870  0.00  0.00    +0.000 A 
ATOM      8  C   UNL     1       0.624   9.909  21.141  0.00  0.00    +0.000 A 
ATOM      9  C   UNL     1       2.143   8.618  18.075  0.00  0.00    +0.000 C 
ATOM     10  O   UNL     1       2.610   8.824  16.970  0.00  0.00    +0.000 OA
ENDROOT
BRANCH   6  11
ATOM     11  N   UNL     1       0.601  13.188  19.354  0.00  0.00    +0.000 N 
ATOM     12  C   UNL     1      -0.738  13.815  19.313  0.00  0.00    +0.000 C 
ATOM     13  C   UNL     1      -0.613  15.336  19.624  0.00  0.00    +0.000 C 
ATOM     14  N   UNL     1       0.362  15.975  18.728  0.00  0.00    +0.000 NA
ATOM     15  C   UNL     1       0.659  17.371  19.010  0.00  0.00    +0.000 C 
ATOM     16  C   UNL     1       1.939  17.587  18.197  0.00  0.00    +0.000 C 
ATOM     17  C   UNL     1       2.554  16.194  18.007  0.00  0.00    +0.000 C 
ATOM     18  C   UNL     1       1.670  15.299  18.852  0.00  0.00    +0.000 C 
ATOM     19  C   UNL     1       1.579  13.825  18.442  0.00  0.00    +0.000 C 
ENDBRANCH   6  11
BRANCH   1  24
ATOM     20  C   UNL     1       4.302   4.920  17.190  0.00  0.00    +0.000 A 
ATOM     21  C   UNL     1       3.793   3.745  17.763  0.00  0.00    +0.000 A 
ATOM     22  C   UNL     1       2.762   3.781  18.713  0.00  0.00    +0.000 A 
ATOM     23  C   UNL     1       2.189   4.995  19.107  0.00  0.00    +0.000 A 
ATOM     24  C   UNL     1       2.648   6.184  18.554  0.00  0.00    +0.000 A 
ATOM     25  C   UNL     1       3.704   6.111  17.631  0.00  0.00    +0.000 A 
BRANCH  20  26
ATOM     26  C   UNL     1       5.488   4.977  16.100  0.00  0.00    +0.000 C 
ATOM     27  C   UNL     1       5.035   4.940  14.616  0.00  0.00    +0.000 C 
ATOM     28  O   UNL     1       5.768   3.730  14.348  0.00  0.00    +0.000 OA
ATOM     29  C   UNL     1       6.191   3.636  15.723  0.00  0.00    +0.000 C 
BRANCH  26  30
ATOM     30  C   UNL     1       6.483   6.125  16.407  0.00  0.00    +0.000 C 
BRANCH  30  36
ATOM     31  C   UNL     1       8.083   8.362  17.950  0.00  0.00    +0.000 C 
ATOM     32  N   UNL     1       7.883   6.999  18.366  0.00  0.00    +0.000 N 
ATOM     33  C   UNL     1       8.390   6.445  19.503  0.00  0.00    +0.000 A 
ATOM     34  N   UNL     1       8.057   5.180  19.559  0.00  0.00    +0.000 NA
ATOM     35  N   UNL     1       7.331   4.894  18.432  0.00  0.00    +0.000 NA
ATOM     36  C   UNL     1       7.199   5.997  17.718  0.00  0.00    +0.000 A 
ENDBRANCH  30  36
ENDBRANCH  26  30
ENDBRANCH  20  26
ENDBRANCH   1  24
BRANCH   8  37
ATOM     37  C   UNL     1       0.274   9.342  22.493  0.00  0.00    +0.000 C 
ATOM     38  F   UNL     1       1.340   8.843  23.174  0.00  0.00    +0.000 F 
ATOM     39  F   UNL     1      -0.294  10.268  23.311  0.00  0.00    +0.000 F 
ATOM     40  F   UNL     1      -0.616   8.316  22.407  0.00  0.00    +0.000 F 
ENDBRANCH   8  37
TORSDOF 6
ENDMDL
MODEL 7
REMARK VINA RESULT:     -10.1      0.698      1.134
REMARK  Name = 
REMARK  7 active torsions:
REMARK  status: ('A' for Active; 'I' for Inactive)
REMARK    1  A    between atoms: C_1  and  N_2
REMARK    2  A    between atoms: C_6  and  C_7
REMARK    3  A    between atoms: C_7  and  C_8
REMARK    4  A    between atoms: C_8  and  C_9
REMARK    5  A    between atoms: C_13  and  N_14
REMARK    6  A    between atoms: C_19  and  N_20
REMARK    7  A    between atoms: C_30  and  C_31
REMARK                            x       y       z     vdW  Elec       q    Type
REMARK                         _______ _______ _______ _____ _____    ______ ____
ROOT
ATOM      1  N   UNL     1       2.077   7.586  18.919  0.00  0.00    +0.000 N 
ATOM      2  C   UNL     1       1.402   7.774  20.193  0.00  0.00    +0.000 C 
ATOM      3  C   UNL     1       1.081   9.219  20.220  0.00  0.00    +0.000 A 
ATOM      4  C   UNL     1       1.439   9.792  19.007  0.00  0.00    +0.000 A 
ATOM      5  C   UNL     1       1.213  11.128  18.755  0.00  0.00    +0.000 A 
ATOM      6  C   UNL     1       0.617  11.920  19.756  0.00  0.00    +0.000 A 
ATOM      7  C   UNL     1       0.304  11.326  20.997  0.00  0.00    +0.000 A 
ATOM      8  C   UNL     1       0.525   9.963  21.250  0.00  0.00    +0.000 A 
ATOM      9  C   UNL     1       2.095   8.763  18.172  0.00  0.00    +0.000 C 
ATOM     10  O   UNL     1       2.558   8.999  17.072  0.00  0.00    +0.000 OA
ENDROOT
BRANCH   6  11
ATOM     11  N   UNL     1       0.403  13.264  19.507  0.00  0.00    +0.000 N 
ATOM     12  C   UNL     1      -0.954  13.853  19.497  0.00  0.00    +0.000 C 
ATOM     13  C   UNL     1      -0.865  15.374  19.821  0.00  0.00    +0.000 C 
ATOM     14  N   UNL     1       0.074  16.049  18.914  0.00  0.00    +0.000 NA
ATOM     15  C   UNL     1       0.337  17.450  19.205  0.00  0.00    +0.000 C 
ATOM     16  C   UNL     1       1.596  17.710  18.371  0.00  0.00    +0.000 C 
ATOM     17  C   UNL     1       2.246  16.336  18.156  0.00  0.00    +0.000 C 
ATOM     18  C   UNL     1       1.403  15.408  19.007  0.00  0.00    +0.000 C 
ATOM     19  C   UNL     1       1.345  13.937  18.583  0.00  0.00    +0.000 C 
ENDBRANCH   6  11
BRANCH   1  24
ATOM     20  C   UNL     1       4.525   5.177  17.428  0.00  0.00    +0.000 A 
ATOM     21  C   UNL     1       3.937   3.964  17.816  0.00  0.00    +0.000 A 
ATOM     22  C   UNL     1       2.772   3.931  18.595  0.00  0.00    +0.000 A 
ATOM     23  C   UNL     1       2.141   5.114  18.996  0.00  0.00    +0.000 A 
ATOM     24  C   UNL     1       2.676   6.340  18.621  0.00  0.00    +0.000 A 
ATOM     25  C   UNL     1       3.863   6.334  17.870  0.00  0.00    +0.000 A 
BRANCH  20  26
ATOM     26  C   UNL     1       5.865   5.313  16.543  0.00  0.00    +0.000 C 
ATOM     27  C   UNL     1       6.812   4.084  16.571  0.00  0.00    +0.000 C 
ATOM     28  O   UNL     1       7.906   4.849  17.110  0.00  0.00    +0.000 OA
ATOM     29  C   UNL     1       7.089   6.035  17.187  0.00  0.00    +0.000 C 
BRANCH  26  30
ATOM     30  C   UNL     1       5.547   5.807  15.108  0.00  0.00    +0.000 C 
BRANCH  30  36
ATOM     31  C   UNL     1       8.106   5.602  13.277  0.00  0.00    +0.000 C 
ATOM     32  N   UNL     1       6.953   4.740  13.252  0.00  0.00    +0.000 N 
ATOM     33  C   UNL     1       6.774   3.697  12.394  0.00  0.00    +0.000 A 
ATOM     34  N   UNL     1       5.604   3.150  12.609  0.00  0.00    +0.000 NA
ATOM     35  N   UNL     1       4.997   3.856  13.616  0.00  0.00    +0.000 NA
ATOM     36  C   UNL     1       5.819   4.804  14.028  0.00  0.00    +0.000 A 
ENDBRANCH  30  36
ENDBRANCH  26  30
ENDBRANCH  20  26
ENDBRANCH   1  24
BRANCH   8  37
ATOM     37  C   UNL     1       0.190   9.368  22.593  0.00  0.00    +0.000 C 
ATOM     38  F   UNL     1      -0.375  10.248  23.462  0.00  0.00    +0.000 F 
ATOM     39  F   UNL     1      -0.680   8.327  22.494  0.00  0.00    +0.000 F 
ATOM     40  F   UNL     1       1.290   8.882  23.230  0.00  0.00    +0.000 F 
ENDBRANCH   8  37
TORSDOF 6
ENDMDL
MODEL 8
REMARK VINA RESULT:      -9.8      1.767      2.849
REMARK  Name = 
REMARK  7 active torsions:
REMARK  status: ('A' for Active; 'I' for Inactive)
REMARK    1  A    between atoms: C_1  and  N_2
REMARK    2  A    between atoms: C_6  and  C_7
REMARK    3  A    between atoms: C_7  and  C_8
REMARK    4  A    between atoms: C_8  and  C_9
REMARK    5  A    between atoms: C_13  and  N_14
REMARK    6  A    between atoms: C_19  and  N_20
REMARK    7  A    between atoms: C_30  and  C_31
REMARK                            x       y       z     vdW  Elec       q    Type
REMARK                         _______ _______ _______ _____ _____    ______ ____
ROOT
ATOM      1  N   UNL     1       2.008   7.583  18.788  0.00  0.00    +0.000 N 
ATOM      2  C   UNL     1       1.326   7.793  20.055  0.00  0.00    +0.000 C 
ATOM      3  C   UNL     1       1.150   9.261  20.130  0.00  0.00    +0.000 A 
ATOM      4  C   UNL     1       1.591   9.837  18.946  0.00  0.00    +0.000 A 
ATOM      5  C   UNL     1       1.505  11.198  18.740  0.00  0.00    +0.000 A 
ATOM      6  C   UNL     1       0.967  12.010  19.758  0.00  0.00    +0.000 A 
ATOM      7  C   UNL     1       0.568  11.406  20.969  0.00  0.00    +0.000 A 
ATOM      8  C   UNL     1       0.647  10.020  21.176  0.00  0.00    +0.000 A 
ATOM      9  C   UNL     1       2.160   8.779  18.086  0.00  0.00    +0.000 C 
ATOM     10  O   UNL     1       2.670   9.006  17.004  0.00  0.00    +0.000 OA
ENDROOT
BRANCH   6  11
ATOM     11  N   UNL     1       0.893  13.376  19.555  0.00  0.00    +0.000 N 
ATOM     12  C   UNL     1       2.097  14.201  19.319  0.00  0.00    +0.000 C 
ATOM     13  C   UNL     1       1.705  15.485  18.530  0.00  0.00    +0.000 C 
ATOM     14  N   UNL     1       0.623  16.210  19.212  0.00  0.00    +0.000 NA
ATOM     15  C   UNL     1       0.084  17.358  18.501  0.00  0.00    +0.000 C 
ATOM     16  C   UNL     1      -1.222  17.610  19.261  0.00  0.00    +0.000 C 
ATOM     17  C   UNL     1      -1.580  16.276  19.931  0.00  0.00    +0.000 C 
ATOM     18  C   UNL     1      -0.542  15.316  19.386  0.00  0.00    +0.000 C 
ATOM     19  C   UNL     1      -0.192  14.103  20.255  0.00  0.00    +0.000 C 
ENDBRANCH   6  11
BRANCH   1  24
ATOM     20  C   UNL     1       4.138   4.993  17.123  0.00  0.00    +0.000 A 
ATOM     21  C   UNL     1       3.500   3.829  17.575  0.00  0.00    +0.000 A 
ATOM     22  C   UNL     1       2.406   3.886  18.451  0.00  0.00    +0.000 A 
ATOM     23  C   UNL     1       1.899   5.114  18.889  0.00  0.00    +0.000 A 
ATOM     24  C   UNL     1       2.487   6.296  18.455  0.00  0.00    +0.000 A 
ATOM     25  C   UNL     1       3.602   6.198  17.605  0.00  0.00    +0.000 A 
BRANCH  20  26
ATOM     26  C   UNL     1       5.404   5.025  16.126  0.00  0.00    +0.000 C 
ATOM     27  C   UNL     1       5.066   4.939  14.614  0.00  0.00    +0.000 C 
ATOM     28  O   UNL     1       5.822   3.727  14.440  0.00  0.00    +0.000 OA
ATOM     29  C   UNL     1       6.140   3.678  15.846  0.00  0.00    +0.000 C 
BRANCH  26  30
ATOM     30  C   UNL     1       6.367   6.189  16.472  0.00  0.00    +0.000 C 
BRANCH  30  36
ATOM     31  C   UNL     1       8.151   8.327  17.951  0.00  0.00    +0.000 C 
ATOM     32  N   UNL     1       7.871   6.983  18.387  0.00  0.00    +0.000 N 
ATOM     33  C   UNL     1       8.368   6.407  19.516  0.00  0.00    +0.000 A 
ATOM     34  N   UNL     1       7.954   5.168  19.594  0.00  0.00    +0.000 NA
ATOM     35  N   UNL     1       7.182   4.921  18.488  0.00  0.00    +0.000 NA
ATOM     36  C   UNL     1       7.106   6.024  17.765  0.00  0.00    +0.000 A 
ENDBRANCH  30  36
ENDBRANCH  26  30
ENDBRANCH  20  26
ENDBRANCH   1  24
BRANCH   8  37
ATOM     37  C   UNL     1       0.224   9.414  22.488  0.00  0.00    +0.000 C 
ATOM     38  F   UNL     1      -0.358  10.299  23.343  0.00  0.00    +0.000 F 
ATOM     39  F   UNL     1      -0.672   8.403  22.327  0.00  0.00    +0.000 F 
ATOM     40  F   UNL     1       1.273   8.883  23.173  0.00  0.00    +0.000 F 
ENDBRANCH   8  37
TORSDOF 6
ENDMDL
MODEL 9
REMARK VINA RESULT:      -9.6      2.987      9.733
REMARK  Name = 
REMARK  7 active torsions:
REMARK  status: ('A' for Active; 'I' for Inactive)
REMARK    1  A    between atoms: C_1  and  N_2
REMARK    2  A    between atoms: C_6  and  C_7
REMARK    3  A    between atoms: C_7  and  C_8
REMARK    4  A    between atoms: C_8  and  C_9
REMARK    5  A    between atoms: C_13  and  N_14
REMARK    6  A    between atoms: C_19  and  N_20
REMARK    7  A    between atoms: C_30  and  C_31
REMARK                            x       y       z     vdW  Elec       q    Type
REMARK                         _______ _______ _______ _____ _____    ______ ____
ROOT
ATOM      1  N   UNL     1       1.350   8.236  20.336  0.00  0.00    +0.000 N 
ATOM      2  C   UNL     1       1.472   6.911  20.920  0.00  0.00    +0.000 C 
ATOM      3  C   UNL     1       2.252   6.146  19.921  0.00  0.00    +0.000 A 
ATOM      4  C   UNL     1       2.646   6.998  18.897  0.00  0.00    +0.000 A 
ATOM      5  C   UNL     1       3.420   6.545  17.851  0.00  0.00    +0.000 A 
ATOM      6  C   UNL     1       3.804   5.189  17.822  0.00  0.00    +0.000 A 
ATOM      7  C   UNL     1       3.352   4.333  18.849  0.00  0.00    +0.000 A 
ATOM      8  C   UNL     1       2.572   4.797  19.920  0.00  0.00    +0.000 A 
ATOM      9  C   UNL     1       2.061   8.333  19.140  0.00  0.00    +0.000 C 
ATOM     10  O   UNL     1       2.201   9.267  18.372  0.00  0.00    +0.000 OA
ENDROOT
BRANCH   6  11
ATOM     11  N   UNL     1       4.569   4.732  16.764  0.00  0.00    +0.000 N 
ATOM     12  C   UNL     1       4.603   3.305  16.380  0.00  0.00    +0.000 C 
ATOM     13  C   UNL     1       4.989   3.177  14.876  0.00  0.00    +0.000 C 
ATOM     14  N   UNL     1       6.243   3.890  14.594  0.00  0.00    +0.000 NA
ATOM     15  C   UNL     1       6.636   3.950  13.196  0.00  0.00    +0.000 C 
ATOM     16  C   UNL     1       7.700   5.052  13.218  0.00  0.00    +0.000 C 
ATOM     17  C   UNL     1       7.407   5.891  14.469  0.00  0.00    +0.000 C 
ATOM     18  C   UNL     1       6.108   5.308  14.990  0.00  0.00    +0.000 C 
ATOM     19  C   UNL     1       5.838   5.447  16.492  0.00  0.00    +0.000 C 
ENDBRANCH   6  11
BRANCH   1  24
ATOM     20  C   UNL     1      -0.860  11.245  20.616  0.00  0.00    +0.000 A 
ATOM     21  C   UNL     1      -1.056  11.272  22.004  0.00  0.00    +0.000 A 
ATOM     22  C   UNL     1      -0.505  10.291  22.841  0.00  0.00    +0.000 A 
ATOM     23  C   UNL     1       0.281   9.258  22.319  0.00  0.00    +0.000 A 
ATOM     24  C   UNL     1       0.518   9.199  20.950  0.00  0.00    +0.000 A 
ATOM     25  C   UNL     1      -0.079  10.179  20.140  0.00  0.00    +0.000 A 
BRANCH  20  26
ATOM     26  C   UNL     1      -1.460  12.321  19.577  0.00  0.00    +0.000 C 
ATOM     27  C   UNL     1      -0.527  12.706  18.399  0.00  0.00    +0.000 C 
ATOM     28  O   UNL     1      -0.507  14.096  18.776  0.00  0.00    +0.000 OA
ATOM     29  C   UNL     1      -1.320  13.832  19.937  0.00  0.00    +0.000 C 
BRANCH  26  30
ATOM     30  C   UNL     1      -2.890  11.930  19.121  0.00  0.00    +0.000 C 
BRANCH  30  36
ATOM     31  C   UNL     1      -5.260  12.107  17.048  0.00  0.00    +0.000 C 
ATOM     32  N   UNL     1      -4.012  11.408  16.879  0.00  0.00    +0.000 N 
ATOM     33  C   UNL     1      -3.668  10.676  15.783  0.00  0.00    +0.000 A 
ATOM     34  N   UNL     1      -2.488  10.140  15.969  0.00  0.00    +0.000 NA
ATOM     35  N   UNL     1      -2.056  10.514  17.215  0.00  0.00    +0.000 NA
ATOM     36  C   UNL     1      -2.963  11.304  17.761  0.00  0.00    +0.000 A 
ENDBRANCH  30  36
ENDBRANCH  26  30
ENDBRANCH  20  26
ENDBRANCH   1  24
BRANCH   8  37
ATOM     37  C   UNL     1       2.098   3.849  20.990  0.00  0.00    +0.000 C 
ATOM     38  F   UNL     1       2.438   4.227  22.252  0.00  0.00    +0.000 F 
ATOM     39  F   UNL     1       0.745   3.707  20.993  0.00  0.00    +0.000 F 
ATOM     40  F   UNL     1       2.608   2.597  20.834  0.00  0.00    +0.000 F 
ENDBRANCH   8  37
TORSDOF 6
ENDMDL
