MODEL 1
REMARK VINA RESULT:      -9.5      0.000      0.000
REMARK  Name = 
REMARK  9 active torsions:
REMARK  status: ('A' for Active; 'I' for Inactive)
REMARK    1  A    between atoms: C_1  and  N_2
REMARK    2  A    between atoms: C_6  and  C_7
REMARK    3  A    between atoms: C_7  and  C_8
REMARK    4  A    between atoms: C_8  and  C_9
REMARK    5  A    between atoms: C_13  and  N_14
REMARK    6  A    between atoms: C_19  and  C_20
REMARK    7  A    between atoms: C_20  and  O_21
REMARK    8  A    between atoms: C_20  and  C_22
REMARK    9  A    between atoms: C_27  and  C_28
REMARK                            x       y       z     vdW  Elec       q    Type
REMARK                         _______ _______ _______ _____ _____    ______ ____
ROOT
ATOM      1  N   UNL     1       2.333   7.388  19.359  0.00  0.00    +0.000 N 
ATOM      2  C   UNL     1       1.569   7.750  20.537  0.00  0.00    +0.000 C 
ATOM      3  C   UNL     1       0.975   9.060  20.198  0.00  0.00    +0.000 A 
ATOM      4  C   UNL     1       1.282   9.384  18.881  0.00  0.00    +0.000 A 
ATOM      5  C   UNL     1       0.791  10.535  18.295  0.00  0.00    +0.000 A 
ATOM      6  C   UNL     1      -0.029  11.378  19.075  0.00  0.00    +0.000 A 
ATOM      7  C   UNL     1      -0.281  11.058  20.432  0.00  0.00    +0.000 A 
ATOM      8  C   UNL     1       0.220   9.889  21.018  0.00  0.00    +0.000 A 
ATOM      9  C   UNL     1       2.177   8.331  18.339  0.00  0.00    +0.000 C 
ATOM     10  O   UNL     1       2.654   8.376  17.219  0.00  0.00    +0.000 OA
ENDROOT
BRANCH   1  15
ATOM     11  C   UNL     1       5.413   5.313  18.842  0.00  0.00    +0.000 A 
ATOM     12  C   UNL     1       4.938   4.066  19.268  0.00  0.00    +0.000 A 
ATOM     13  C   UNL     1       3.635   3.907  19.767  0.00  0.00    +0.000 A 
ATOM     14  C   UNL     1       2.749   4.991  19.834  0.00  0.00    +0.000 A 
ATOM     15  C   UNL     1       3.166   6.244  19.406  0.00  0.00    +0.000 A 
ATOM     16  C   UNL     1       4.494   6.369  18.953  0.00  0.00    +0.000 A 
BRANCH  11  17
ATOM     17  C   UNL     1       6.893   5.598  18.260  0.00  0.00    +0.000 C 
ATOM     18  C   UNL     1       7.955   6.021  19.309  0.00  0.00    +0.000 C 
ATOM     19  O   UNL     1       8.190   7.289  18.667  0.00  0.00    +0.000 OA
ATOM     20  C   UNL     1       7.178   7.015  17.673  0.00  0.00    +0.000 C 
BRANCH  17  21
ATOM     21  C   UNL     1       7.370   4.453  17.332  0.00  0.00    +0.000 C 
BRANCH  21  27
ATOM     22  C   UNL     1       4.700   3.480  15.947  0.00  0.00    +0.000 C 
ATOM     23  N   UNL     1       5.795   4.177  15.326  0.00  0.00    +0.000 N 
ATOM     24  C   UNL     1       5.855   4.509  14.012  0.00  0.00    +0.000 A 
ATOM     25  N   UNL     1       7.003   5.094  13.754  0.00  0.00    +0.000 NA
ATOM     26  N   UNL     1       7.713   5.130  14.931  0.00  0.00    +0.000 NA
ATOM     27  C   UNL     1       6.975   4.607  15.891  0.00  0.00    +0.000 A 
ENDBRANCH  21  27
ENDBRANCH  17  21
ENDBRANCH  11  17
ENDBRANCH   1  15
BRANCH   8  28
ATOM     28  C   UNL     1      -0.036   9.579  22.472  0.00  0.00    +0.000 C 
ATOM     29  F   UNL     1      -0.855   8.514  22.676  0.00  0.00    +0.000 F 
ATOM     30  F   UNL     1       1.112   9.311  23.150  0.00  0.00    +0.000 F 
ATOM     31  F   UNL     1      -0.623  10.622  23.120  0.00  0.00    +0.000 F 
ENDBRANCH   8  28
BRANCH   6  32
ATOM     32  C   UNL     1      -0.663  12.624  18.491  0.00  0.00    +0.000 C 
BRANCH  32  33
ATOM     33  C   UNL     1      -0.085  13.953  19.044  0.00  0.00    +0.000 C 
ATOM     34  F   UNL     1      -0.384  15.026  18.280  0.00  0.00    +0.000 F 
ATOM     35  F   UNL     1      -0.548  14.205  20.291  0.00  0.00    +0.000 F 
ATOM     36  F   UNL     1       1.267  13.883  19.117  0.00  0.00    +0.000 F 
ENDBRANCH  32  33
BRANCH  32  37
ATOM     37  O   UNL     1      -2.088  12.480  18.644  0.00  0.00    +0.000 OA
ATOM     38  H   UNL     1      -2.446  13.354  18.883  0.00  0.00    +0.000 HD
ENDBRANCH  32  37
ENDBRANCH   6  32
TORSDOF 8
ENDMDL
MODEL 2
REMARK VINA RESULT:      -9.3      4.533      8.929
REMARK  Name = 
REMARK  9 active torsions:
REMARK  status: ('A' for Active; 'I' for Inactive)
REMARK    1  A    between atoms: C_1  and  N_2
REMARK    2  A    between atoms: C_6  and  C_7
REMARK    3  A    between atoms: C_7  and  C_8
REMARK    4  A    between atoms: C_8  and  C_9
REMARK    5  A    between atoms: C_13  and  N_14
REMARK    6  A    between atoms: C_19  and  C_20
REMARK    7  A    between atoms: C_20  and  O_21
REMARK    8  A    between atoms: C_20  and  C_22
REMARK    9  A    between atoms: C_27  and  C_28
REMARK                            x       y       z     vdW  Elec       q    Type
REMARK                         _______ _______ _______ _____ _____    ______ ____
ROOT
ATOM      1  N   UNL     1       1.491   8.143  20.176  0.00  0.00    +0.000 N 
ATOM      2  C   UNL     1       1.559   6.786  20.684  0.00  0.00    +0.000 C 
ATOM      3  C   UNL     1       2.394   6.070  19.696  0.00  0.00    +0.000 A 
ATOM      4  C   UNL     1       2.866   6.969  18.745  0.00  0.00    +0.000 A 
ATOM      5  C   UNL     1       3.724   6.563  17.741  0.00  0.00    +0.000 A 
ATOM      6  C   UNL     1       4.107   5.205  17.705  0.00  0.00    +0.000 A 
ATOM      7  C   UNL     1       3.569   4.296  18.649  0.00  0.00    +0.000 A 
ATOM      8  C   UNL     1       2.699   4.716  19.663  0.00  0.00    +0.000 A 
ATOM      9  C   UNL     1       2.270   8.299  19.027  0.00  0.00    +0.000 C 
ATOM     10  O   UNL     1       2.461   9.275  18.323  0.00  0.00    +0.000 OA
ENDROOT
BRANCH   1  15
ATOM     11  C   UNL     1      -0.795  11.097  20.501  0.00  0.00    +0.000 A 
ATOM     12  C   UNL     1      -0.998  11.095  21.887  0.00  0.00    +0.000 A 
ATOM     13  C   UNL     1      -0.431  10.108  22.710  0.00  0.00    +0.000 A 
ATOM     14  C   UNL     1       0.381   9.099  22.176  0.00  0.00    +0.000 A 
ATOM     15  C   UNL     1       0.627   9.069  20.811  0.00  0.00    +0.000 A 
ATOM     16  C   UNL     1       0.006  10.051  20.015  0.00  0.00    +0.000 A 
BRANCH  11  17
ATOM     17  C   UNL     1      -1.407  12.181  19.471  0.00  0.00    +0.000 C 
ATOM     18  C   UNL     1      -0.486  12.572  18.285  0.00  0.00    +0.000 C 
ATOM     19  O   UNL     1      -0.454  13.958  18.673  0.00  0.00    +0.000 OA
ATOM     20  C   UNL     1      -1.263  13.690  19.839  0.00  0.00    +0.000 C 
BRANCH  17  21
ATOM     21  C   UNL     1      -2.844  11.801  19.032  0.00  0.00    +0.000 C 
BRANCH  21  27
ATOM     22  C   UNL     1      -5.228  12.082  16.975  0.00  0.00    +0.000 C 
ATOM     23  N   UNL     1      -3.997  11.362  16.783  0.00  0.00    +0.000 N 
ATOM     24  C   UNL     1      -3.679  10.657  15.668  0.00  0.00    +0.000 A 
ATOM     25  N   UNL     1      -2.509  10.079  15.827  0.00  0.00    +0.000 NA
ATOM     26  N   UNL     1      -2.063  10.406  17.086  0.00  0.00    +0.000 NA
ATOM     27  C   UNL     1      -2.943  11.207  17.656  0.00  0.00    +0.000 A 
ENDBRANCH  21  27
ENDBRANCH  17  21
ENDBRANCH  11  17
ENDBRANCH   1  15
BRANCH   8  28
ATOM     28  C   UNL     1       2.116   3.727  20.642  0.00  0.00    +0.000 C 
ATOM     29  F   UNL     1       2.505   2.443  20.433  0.00  0.00    +0.000 F 
ATOM     30  F   UNL     1       2.449   4.021  21.928  0.00  0.00    +0.000 F 
ATOM     31  F   UNL     1       0.755   3.709  20.599  0.00  0.00    +0.000 F 
ENDBRANCH   8  28
BRANCH   6  32
ATOM     32  C   UNL     1       5.097   4.690  16.680  0.00  0.00    +0.000 C 
BRANCH  32  33
ATOM     33  C   UNL     1       6.583   4.839  17.099  0.00  0.00    +0.000 C 
ATOM     34  F   UNL     1       7.427   4.100  16.347  0.00  0.00    +0.000 F 
ATOM     35  F   UNL     1       6.988   6.127  17.010  0.00  0.00    +0.000 F 
ATOM     36  F   UNL     1       6.750   4.446  18.385  0.00  0.00    +0.000 F 
ENDBRANCH  32  33
BRANCH  32  37
ATOM     37  O   UNL     1       4.762   5.313  15.425  0.00  0.00    +0.000 OA
ATOM     38  H   UNL     1       5.590   5.640  15.031  0.00  0.00    +0.000 HD
ENDBRANCH  32  37
ENDBRANCH   6  32
TORSDOF 8
ENDMDL
MODEL 3
REMARK VINA RESULT:      -9.3      4.867      9.186
REMARK  Name = 
REMARK  9 active torsions:
REMARK  status: ('A' for Active; 'I' for Inactive)
REMARK    1  A    between atoms: C_1  and  N_2
REMARK    2  A    between atoms: C_6  and  C_7
REMARK    3  A    between atoms: C_7  and  C_8
REMARK    4  A    between atoms: C_8  and  C_9
REMARK    5  A    between atoms: C_13  and  N_14
REMARK    6  A    between atoms: C_19  and  C_20
REMARK    7  A    between atoms: C_20  and  O_21
REMARK    8  A    between atoms: C_20  and  C_22
REMARK    9  A    between atoms: C_27  and  C_28
REMARK                            x       y       z     vdW  Elec       q    Type
REMARK                         _______ _______ _______ _____ _____    ______ ____
ROOT
ATOM      1  N   UNL     1       2.322   7.724  19.150  0.00  0.00    +0.000 N 
ATOM      2  C   UNL     1       2.587   6.320  19.401  0.00  0.00    +0.000 C 
ATOM      3  C   UNL     1       3.455   5.907  18.278  0.00  0.00    +0.000 A 
ATOM      4  C   UNL     1       3.760   7.014  17.493  0.00  0.00    +0.000 A 
ATOM      5  C   UNL     1       4.610   6.909  16.409  0.00  0.00    +0.000 A 
ATOM      6  C   UNL     1       5.159   5.642  16.117  0.00  0.00    +0.000 A 
ATOM      7  C   UNL     1       4.789   4.517  16.895  0.00  0.00    +0.000 A 
ATOM      8  C   UNL     1       3.927   4.633  17.992  0.00  0.00    +0.000 A 
ATOM      9  C   UNL     1       3.015   8.182  18.027  0.00  0.00    +0.000 C 
ATOM     10  O   UNL     1       3.045   9.283  17.506  0.00  0.00    +0.000 OA
ENDROOT
BRANCH   1  15
ATOM     11  C   UNL     1      -0.516  10.021  20.001  0.00  0.00    +0.000 A 
ATOM     12  C   UNL     1      -0.475   9.949  21.399  0.00  0.00    +0.000 A 
ATOM     13  C   UNL     1       0.441   9.118  22.064  0.00  0.00    +0.000 A 
ATOM     14  C   UNL     1       1.369   8.348  21.352  0.00  0.00    +0.000 A 
ATOM     15  C   UNL     1       1.382   8.399  19.965  0.00  0.00    +0.000 A 
ATOM     16  C   UNL     1       0.418   9.211  19.335  0.00  0.00    +0.000 A 
BRANCH  11  17
ATOM     17  C   UNL     1      -1.534  10.938  19.143  0.00  0.00    +0.000 C 
ATOM     18  C   UNL     1      -0.872  11.893  18.115  0.00  0.00    +0.000 C 
ATOM     19  O   UNL     1      -1.412  13.067  18.749  0.00  0.00    +0.000 OA
ATOM     20  C   UNL     1      -2.024  12.271  19.788  0.00  0.00    +0.000 C 
BRANCH  17  21
ATOM     21  C   UNL     1      -2.689  10.097  18.543  0.00  0.00    +0.000 C 
BRANCH  21  27
ATOM     22  C   UNL     1      -4.937  11.829  17.150  0.00  0.00    +0.000 C 
ATOM     23  N   UNL     1      -3.900  11.070  16.502  0.00  0.00    +0.000 N 
ATOM     24  C   UNL     1      -3.743  10.964  15.158  0.00  0.00    +0.000 A 
ATOM     25  N   UNL     1      -2.735  10.164  14.891  0.00  0.00    +0.000 NA
ATOM     26  N   UNL     1      -2.234   9.728  16.094  0.00  0.00    +0.000 NA
ATOM     27  C   UNL     1      -2.912  10.297  17.072  0.00  0.00    +0.000 A 
ENDBRANCH  21  27
ENDBRANCH  17  21
ENDBRANCH  11  17
ENDBRANCH   1  15
BRANCH   8  28
ATOM     28  C   UNL     1       3.523   3.418  18.792  0.00  0.00    +0.000 C 
ATOM     29  F   UNL     1       3.976   2.243  18.283  0.00  0.00    +0.000 F 
ATOM     30  F   UNL     1       3.973   3.476  20.074  0.00  0.00    +0.000 F 
ATOM     31  F   UNL     1       2.171   3.286  18.872  0.00  0.00    +0.000 F 
ENDBRANCH   8  28
BRANCH   6  32
ATOM     32  C   UNL     1       6.153   5.453  14.989  0.00  0.00    +0.000 C 
BRANCH  32  33
ATOM     33  C   UNL     1       5.934   4.161  14.158  0.00  0.00    +0.000 C 
ATOM     34  F   UNL     1       6.141   3.029  14.865  0.00  0.00    +0.000 F 
ATOM     35  F   UNL     1       4.674   4.105  13.667  0.00  0.00    +0.000 F 
ATOM     36  F   UNL     1       6.785   4.131  13.103  0.00  0.00    +0.000 F 
ENDBRANCH  32  33
BRANCH  32  37
ATOM     37  O   UNL     1       7.467   5.583  15.562  0.00  0.00    +0.000 OA
ATOM     38  H   UNL     1       7.366   6.014  16.430  0.00  0.00    +0.000 HD
ENDBRANCH  32  37
ENDBRANCH   6  32
TORSDOF 8
ENDMDL
MODEL 4
REMARK VINA RESULT:      -9.1      4.742      9.490
REMARK  Name = 
REMARK  9 active torsions:
REMARK  status: ('A' for Active; 'I' for Inactive)
REMARK    1  A    between atoms: C_1  and  N_2
REMARK    2  A    between atoms: C_6  and  C_7
REMARK    3  A    between atoms: C_7  and  C_8
REMARK    4  A    between atoms: C_8  and  C_9
REMARK    5  A    between atoms: C_13  and  N_14
REMARK    6  A    between atoms: C_19  and  C_20
REMARK    7  A    between atoms: C_20  and  O_21
REMARK    8  A    between atoms: C_20  and  C_22
REMARK    9  A    between atoms: C_27  and  C_28
REMARK                            x       y       z     vdW  Elec       q    Type
REMARK                         _______ _______ _______ _____ _____    ______ ____
ROOT
ATOM      1  N   UNL     1       2.311   7.709  19.176  0.00  0.00    +0.000 N 
ATOM      2  C   UNL     1       2.608   6.313  19.441  0.00  0.00    +0.000 C 
ATOM      3  C   UNL     1       3.473   5.906  18.314  0.00  0.00    +0.000 A 
ATOM      4  C   UNL     1       3.748   7.009  17.514  0.00  0.00    +0.000 A 
ATOM      5  C   UNL     1       4.591   6.910  16.423  0.00  0.00    +0.000 A 
ATOM      6  C   UNL     1       5.163   5.651  16.141  0.00  0.00    +0.000 A 
ATOM      7  C   UNL     1       4.824   4.528  16.935  0.00  0.00    +0.000 A 
ATOM      8  C   UNL     1       3.969   4.638  18.039  0.00  0.00    +0.000 A 
ATOM      9  C   UNL     1       2.984   8.168  18.041  0.00  0.00    +0.000 C 
ATOM     10  O   UNL     1       2.987   9.264  17.508  0.00  0.00    +0.000 OA
ENDROOT
BRANCH   1  15
ATOM     11  C   UNL     1      -0.145  10.353  20.192  0.00  0.00    +0.000 A 
ATOM     12  C   UNL     1      -0.425   9.933  21.499  0.00  0.00    +0.000 A 
ATOM     13  C   UNL     1       0.145   8.767  22.034  0.00  0.00    +0.000 A 
ATOM     14  C   UNL     1       1.040   7.990  21.285  0.00  0.00    +0.000 A 
ATOM     15  C   UNL     1       1.364   8.374  19.992  0.00  0.00    +0.000 A 
ATOM     16  C   UNL     1       0.737   9.527  19.478  0.00  0.00    +0.000 A 
BRANCH  11  17
ATOM     17  C   UNL     1      -0.754  11.672  19.485  0.00  0.00    +0.000 C 
ATOM     18  C   UNL     1      -1.956  12.328  20.214  0.00  0.00    +0.000 C 
ATOM     19  O   UNL     1      -2.834  12.141  19.087  0.00  0.00    +0.000 OA
ATOM     20  C   UNL     1      -1.796  11.465  18.343  0.00  0.00    +0.000 C 
BRANCH  17  21
ATOM     21  C   UNL     1       0.360  12.682  19.111  0.00  0.00    +0.000 C 
BRANCH  21  27
ATOM     22  C   UNL     1      -0.274  15.770  19.345  0.00  0.00    +0.000 C 
ATOM     23  N   UNL     1       0.452  14.960  20.287  0.00  0.00    +0.000 N 
ATOM     24  C   UNL     1       1.006  15.419  21.437  0.00  0.00    +0.000 A 
ATOM     25  N   UNL     1       1.636  14.440  22.048  0.00  0.00    +0.000 NA
ATOM     26  N   UNL     1       1.499  13.319  21.265  0.00  0.00    +0.000 NA
ATOM     27  C   UNL     1       0.756  13.619  20.216  0.00  0.00    +0.000 A 
ENDBRANCH  21  27
ENDBRANCH  17  21
ENDBRANCH  11  17
ENDBRANCH   1  15
BRANCH   8  28
ATOM     28  C   UNL     1       3.598   3.425  18.856  0.00  0.00    +0.000 C 
ATOM     29  F   UNL     1       4.080   2.255  18.362  0.00  0.00    +0.000 F 
ATOM     30  F   UNL     1       4.048   3.512  20.136  0.00  0.00    +0.000 F 
ATOM     31  F   UNL     1       2.249   3.260  18.940  0.00  0.00    +0.000 F 
ENDBRANCH   8  28
BRANCH   6  32
ATOM     32  C   UNL     1       6.150   5.469  15.005  0.00  0.00    +0.000 C 
BRANCH  32  33
ATOM     33  C   UNL     1       5.933   4.177  14.174  0.00  0.00    +0.000 C 
ATOM     34  F   UNL     1       4.685   4.070  13.668  0.00  0.00    +0.000 F 
ATOM     35  F   UNL     1       6.796   4.117  13.133  0.00  0.00    +0.000 F 
ATOM     36  F   UNL     1       6.145   3.082  14.943  0.00  0.00    +0.000 F 
ENDBRANCH  32  33
BRANCH  32  37
ATOM     37  O   UNL     1       7.468   5.605  15.570  0.00  0.00    +0.000 OA
ATOM     38  H   UNL     1       8.109   5.474  14.849  0.00  0.00    +0.000 HD
ENDBRANCH  32  37
ENDBRANCH   6  32
TORSDOF 8
ENDMDL
MODEL 5
REMARK VINA RESULT:      -9.1      4.516      8.886
REMARK  Name = 
REMARK  9 active torsions:
REMARK  status: ('A' for Active; 'I' for Inactive)
REMARK    1  A    between atoms: C_1  and  N_2
REMARK    2  A    between atoms: C_6  and  C_7
REMARK    3  A    between atoms: C_7  and  C_8
REMARK    4  A    between atoms: C_8  and  C_9
REMARK    5  A    between atoms: C_13  and  N_14
REMARK    6  A    between atoms: C_19  and  C_20
REMARK    7  A    between atoms: C_20  and  O_21
REMARK    8  A    between atoms: C_20  and  C_22
REMARK    9  A    between atoms: C_27  and  C_28
REMARK                            x       y       z     vdW  Elec       q    Type
REMARK                         _______ _______ _______ _____ _____    ______ ____
ROOT
ATOM      1  N   UNL     1       1.547   8.088  20.121  0.00  0.00    +0.000 N 
ATOM      2  C   UNL     1       1.598   6.752  20.685  0.00  0.00    +0.000 C 
ATOM      3  C   UNL     1       2.426   5.985  19.731  0.00  0.00    +0.000 A 
ATOM      4  C   UNL     1       2.911   6.837  18.744  0.00  0.00    +0.000 A 
ATOM      5  C   UNL     1       3.766   6.379  17.760  0.00  0.00    +0.000 A 
ATOM      6  C   UNL     1       4.132   5.016  17.783  0.00  0.00    +0.000 A 
ATOM      7  C   UNL     1       3.581   4.154  18.763  0.00  0.00    +0.000 A 
ATOM      8  C   UNL     1       2.715   4.627  19.756  0.00  0.00    +0.000 A 
ATOM      9  C   UNL     1       2.330   8.186  18.967  0.00  0.00    +0.000 C 
ATOM     10  O   UNL     1       2.535   9.128  18.224  0.00  0.00    +0.000 OA
ENDROOT
BRANCH   1  15
ATOM     11  C   UNL     1      -0.780  11.022  20.298  0.00  0.00    +0.000 A 
ATOM     12  C   UNL     1      -0.923  11.134  21.687  0.00  0.00    +0.000 A 
ATOM     13  C   UNL     1      -0.303  10.229  22.564  0.00  0.00    +0.000 A 
ATOM     14  C   UNL     1       0.505   9.191  22.080  0.00  0.00    +0.000 A 
ATOM     15  C   UNL     1       0.694   9.050  20.713  0.00  0.00    +0.000 A 
ATOM     16  C   UNL     1       0.020   9.952  19.866  0.00  0.00    +0.000 A 
BRANCH  11  17
ATOM     17  C   UNL     1      -1.455  12.006  19.208  0.00  0.00    +0.000 C 
ATOM     18  C   UNL     1      -3.006  12.027  19.196  0.00  0.00    +0.000 C 
ATOM     19  O   UNL     1      -3.073  11.572  17.831  0.00  0.00    +0.000 OA
ATOM     20  C   UNL     1      -1.635  11.464  17.757  0.00  0.00    +0.000 C 
BRANCH  17  21
ATOM     21  C   UNL     1      -0.823  13.421  19.250  0.00  0.00    +0.000 C 
BRANCH  21  27
ATOM     22  C   UNL     1       1.048  14.345  21.625  0.00  0.00    +0.000 C 
ATOM     23  N   UNL     1       1.460  13.838  20.343  0.00  0.00    +0.000 N 
ATOM     24  C   UNL     1       2.749  13.700  19.943  0.00  0.00    +0.000 A 
ATOM     25  N   UNL     1       2.786  13.256  18.706  0.00  0.00    +0.000 NA
ATOM     26  N   UNL     1       1.484  13.118  18.287  0.00  0.00    +0.000 NA
ATOM     27  C   UNL     1       0.679  13.436  19.282  0.00  0.00    +0.000 A 
ENDBRANCH  21  27
ENDBRANCH  17  21
ENDBRANCH  11  17
ENDBRANCH   1  15
BRANCH   8  28
ATOM     28  C   UNL     1       2.116   3.688  20.775  0.00  0.00    +0.000 C 
ATOM     29  F   UNL     1       2.486   2.391  20.618  0.00  0.00    +0.000 F 
ATOM     30  F   UNL     1       2.454   4.029  22.047  0.00  0.00    +0.000 F 
ATOM     31  F   UNL     1       0.756   3.689  20.732  0.00  0.00    +0.000 F 
ENDBRANCH   8  28
BRANCH   6  32
ATOM     32  C   UNL     1       5.118   4.446  16.783  0.00  0.00    +0.000 C 
BRANCH  32  33
ATOM     33  C   UNL     1       6.599   4.803  17.075  0.00  0.00    +0.000 C 
ATOM     34  F   UNL     1       6.898   6.095  16.821  0.00  0.00    +0.000 F 
ATOM     35  F   UNL     1       6.911   4.565  18.371  0.00  0.00    +0.000 F 
ATOM     36  F   UNL     1       7.425   4.047  16.311  0.00  0.00    +0.000 F 
ENDBRANCH  32  33
BRANCH  32  37
ATOM     37  O   UNL     1       4.655   4.829  15.474  0.00  0.00    +0.000 OA
ATOM     38  H   UNL     1       4.457   5.782  15.502  0.00  0.00    +0.000 HD
ENDBRANCH  32  37
ENDBRANCH   6  32
TORSDOF 8
ENDMDL
MODEL 6
REMARK VINA RESULT:      -9.1      4.754      9.866
REMARK  Name = 
REMARK  9 active torsions:
REMARK  status: ('A' for Active; 'I' for Inactive)
REMARK    1  A    between atoms: C_1  and  N_2
REMARK    2  A    between atoms: C_6  and  C_7
REMARK    3  A    between atoms: C_7  and  C_8
REMARK    4  A    between atoms: C_8  and  C_9
REMARK    5  A    between atoms: C_13  and  N_14
REMARK    6  A    between atoms: C_19  and  C_20
REMARK    7  A    between atoms: C_20  and  O_21
REMARK    8  A    between atoms: C_20  and  C_22
REMARK    9  A    between atoms: C_27  and  C_28
REMARK                            x       y       z     vdW  Elec       q    Type
REMARK                         _______ _______ _______ _____ _____    ______ ____
ROOT
ATOM      1  N   UNL     1       1.412   8.869  19.404  0.00  0.00    +0.000 N 
ATOM      2  C   UNL     1       1.507   7.587  20.077  0.00  0.00    +0.000 C 
ATOM      3  C   UNL     1       2.409   6.790  19.219  0.00  0.00    +0.000 A 
ATOM      4  C   UNL     1       2.889   7.584  18.183  0.00  0.00    +0.000 A 
ATOM      5  C   UNL     1       3.804   7.094  17.271  0.00  0.00    +0.000 A 
ATOM      6  C   UNL     1       4.235   5.758  17.419  0.00  0.00    +0.000 A 
ATOM      7  C   UNL     1       3.689   4.950  18.446  0.00  0.00    +0.000 A 
ATOM      8  C   UNL     1       2.762   5.456  19.366  0.00  0.00    +0.000 A 
ATOM      9  C   UNL     1       2.235   8.915  18.275  0.00  0.00    +0.000 C 
ATOM     10  O   UNL     1       2.422   9.804  17.464  0.00  0.00    +0.000 OA
ENDROOT
BRANCH   1  15
ATOM     11  C   UNL     1      -1.611  11.085  19.396  0.00  0.00    +0.000 A 
ATOM     12  C   UNL     1      -1.385  11.806  20.575  0.00  0.00    +0.000 A 
ATOM     13  C   UNL     1      -0.278  11.541  21.397  0.00  0.00    +0.000 A 
ATOM     14  C   UNL     1       0.659  10.558  21.053  0.00  0.00    +0.000 A 
ATOM     15  C   UNL     1       0.490   9.829  19.885  0.00  0.00    +0.000 A 
ATOM     16  C   UNL     1      -0.656  10.096  19.111  0.00  0.00    +0.000 A 
BRANCH  11  17
ATOM     17  C   UNL     1      -2.855  11.309  18.389  0.00  0.00    +0.000 C 
ATOM     18  C   UNL     1      -3.660  10.034  18.025  0.00  0.00    +0.000 C 
ATOM     19  O   UNL     1      -3.371  10.165  16.620  0.00  0.00    +0.000 OA
ATOM     20  C   UNL     1      -2.552  11.330  16.858  0.00  0.00    +0.000 C 
BRANCH  17  21
ATOM     21  C   UNL     1      -3.749  12.490  18.843  0.00  0.00    +0.000 C 
BRANCH  21  27
ATOM     22  C   UNL     1      -6.573  12.292  17.438  0.00  0.00    +0.000 C 
ATOM     23  N   UNL     1      -6.267  12.002  18.813  0.00  0.00    +0.000 N 
ATOM     24  C   UNL     1      -7.175  11.611  19.743  0.00  0.00    +0.000 A 
ATOM     25  N   UNL     1      -6.585  11.473  20.909  0.00  0.00    +0.000 NA
ATOM     26  N   UNL     1      -5.261  11.797  20.734  0.00  0.00    +0.000 NA
ATOM     27  C   UNL     1      -5.056  12.086  19.463  0.00  0.00    +0.000 A 
ENDBRANCH  21  27
ENDBRANCH  17  21
ENDBRANCH  11  17
ENDBRANCH   1  15
BRANCH   8  28
ATOM     28  C   UNL     1       2.171   4.572  20.436  0.00  0.00    +0.000 C 
ATOM     29  F   UNL     1       2.574   3.276  20.370  0.00  0.00    +0.000 F 
ATOM     30  F   UNL     1       2.483   5.003  21.688  0.00  0.00    +0.000 F 
ATOM     31  F   UNL     1       0.812   4.536  20.376  0.00  0.00    +0.000 F 
ENDBRANCH   8  28
BRANCH   6  32
ATOM     32  C   UNL     1       5.286   5.163  16.504  0.00  0.00    +0.000 C 
BRANCH  32  33
ATOM     33  C   UNL     1       6.697   5.057  17.139  0.00  0.00    +0.000 C 
ATOM     34  F   UNL     1       6.705   4.398  18.318  0.00  0.00    +0.000 F 
ATOM     35  F   UNL     1       7.557   4.416  16.314  0.00  0.00    +0.000 F 
ATOM     36  F   UNL     1       7.201   6.294  17.372  0.00  0.00    +0.000 F 
ENDBRANCH  32  33
BRANCH  32  37
ATOM     37  O   UNL     1       5.237   5.904  15.270  0.00  0.00    +0.000 OA
ATOM     38  H   UNL     1       5.645   5.351  14.580  0.00  0.00    +0.000 HD
ENDBRANCH  32  37
ENDBRANCH   6  32
TORSDOF 8
ENDMDL
MODEL 7
REMARK VINA RESULT:      -9.1      4.829      9.811
REMARK  Name = 
REMARK  9 active torsions:
REMARK  status: ('A' for Active; 'I' for Inactive)
REMARK    1  A    between atoms: C_1  and  N_2
REMARK    2  A    between atoms: C_6  and  C_7
REMARK    3  A    between atoms: C_7  and  C_8
REMARK    4  A    between atoms: C_8  and  C_9
REMARK    5  A    between atoms: C_13  and  N_14
REMARK    6  A    between atoms: C_19  and  C_20
REMARK    7  A    between atoms: C_20  and  O_21
REMARK    8  A    between atoms: C_20  and  C_22
REMARK    9  A    between atoms: C_27  and  C_28
REMARK                            x       y       z     vdW  Elec       q    Type
REMARK                         _______ _______ _______ _____ _____    ______ ____
ROOT
ATOM      1  N   UNL     1       1.487   8.776  19.308  0.00  0.00    +0.000 N 
ATOM      2  C   UNL     1       1.533   7.555  20.090  0.00  0.00    +0.000 C 
ATOM      3  C   UNL     1       2.519   6.709  19.386  0.00  0.00    +0.000 A 
ATOM      4  C   UNL     1       3.086   7.426  18.338  0.00  0.00    +0.000 A 
ATOM      5  C   UNL     1       4.087   6.881  17.557  0.00  0.00    +0.000 A 
ATOM      6  C   UNL     1       4.518   5.570  17.852  0.00  0.00    +0.000 A 
ATOM      7  C   UNL     1       3.887   4.837  18.888  0.00  0.00    +0.000 A 
ATOM      8  C   UNL     1       2.873   5.397  19.674  0.00  0.00    +0.000 A 
ATOM      9  C   UNL     1       2.411   8.747  18.259  0.00  0.00    +0.000 C 
ATOM     10  O   UNL     1       2.663   9.571  17.399  0.00  0.00    +0.000 OA
ENDROOT
BRANCH   1  15
ATOM     11  C   UNL     1      -1.598  10.862  18.883  0.00  0.00    +0.000 A 
ATOM     12  C   UNL     1      -1.453  11.733  19.971  0.00  0.00    +0.000 A 
ATOM     13  C   UNL     1      -0.381  11.613  20.869  0.00  0.00    +0.000 A 
ATOM     14  C   UNL     1       0.603  10.630  20.695  0.00  0.00    +0.000 A 
ATOM     15  C   UNL     1       0.514   9.755  19.621  0.00  0.00    +0.000 A 
ATOM     16  C   UNL     1      -0.601   9.882  18.769  0.00  0.00    +0.000 A 
BRANCH  11  17
ATOM     17  C   UNL     1      -2.797  10.914  17.801  0.00  0.00    +0.000 C 
ATOM     18  C   UNL     1      -3.494   9.559  17.509  0.00  0.00    +0.000 C 
ATOM     19  O   UNL     1      -3.138   9.593  16.114  0.00  0.00    +0.000 OA
ATOM     20  C   UNL     1      -2.413  10.830  16.291  0.00  0.00    +0.000 C 
BRANCH  17  21
ATOM     21  C   UNL     1      -3.792  12.062  18.108  0.00  0.00    +0.000 C 
BRANCH  21  27
ATOM     22  C   UNL     1      -4.876  12.591  21.030  0.00  0.00    +0.000 C 
ATOM     23  N   UNL     1      -5.543  11.877  19.973  0.00  0.00    +0.000 N 
ATOM     24  C   UNL     1      -6.761  11.289  20.085  0.00  0.00    +0.000 A 
ATOM     25  N   UNL     1      -7.065  10.681  18.960  0.00  0.00    +0.000 NA
ATOM     26  N   UNL     1      -6.009  10.868  18.100  0.00  0.00    +0.000 NA
ATOM     27  C   UNL     1      -5.101  11.617  18.695  0.00  0.00    +0.000 A 
ENDBRANCH  21  27
ENDBRANCH  17  21
ENDBRANCH  11  17
ENDBRANCH   1  15
BRANCH   8  28
ATOM     28  C   UNL     1       2.194   4.591  20.754  0.00  0.00    +0.000 C 
ATOM     29  F   UNL     1       2.442   5.033  22.014  0.00  0.00    +0.000 F 
ATOM     30  F   UNL     1       0.841   4.582  20.614  0.00  0.00    +0.000 F 
ATOM     31  F   UNL     1       2.585   3.287  20.739  0.00  0.00    +0.000 F 
ENDBRANCH   8  28
BRANCH   6  32
ATOM     32  C   UNL     1       5.656   4.922  17.090  0.00  0.00    +0.000 C 
BRANCH  32  33
ATOM     33  C   UNL     1       5.241   4.299  15.732  0.00  0.00    +0.000 C 
ATOM     34  F   UNL     1       6.079   3.327  15.311  0.00  0.00    +0.000 F 
ATOM     35  F   UNL     1       4.001   3.760  15.802  0.00  0.00    +0.000 F 
ATOM     36  F   UNL     1       5.219   5.250  14.766  0.00  0.00    +0.000 F 
ENDBRANCH  32  33
BRANCH  32  37
ATOM     37  O   UNL     1       6.301   4.008  17.998  0.00  0.00    +0.000 OA
ATOM     38  H   UNL     1       7.176   4.378  18.212  0.00  0.00    +0.000 HD
ENDBRANCH  32  37
ENDBRANCH   6  32
TORSDOF 8
ENDMDL
MODEL 8
REMARK VINA RESULT:      -9.1      4.473      9.075
REMARK  Name = 
REMARK  9 active torsions:
REMARK  status: ('A' for Active; 'I' for Inactive)
REMARK    1  A    between atoms: C_1  and  N_2
REMARK    2  A    between atoms: C_6  and  C_7
REMARK    3  A    between atoms: C_7  and  C_8
REMARK    4  A    between atoms: C_8  and  C_9
REMARK    5  A    between atoms: C_13  and  N_14
REMARK    6  A    between atoms: C_19  and  C_20
REMARK    7  A    between atoms: C_20  and  O_21
REMARK    8  A    between atoms: C_20  and  C_22
REMARK    9  A    between atoms: C_27  and  C_28
REMARK                            x       y       z     vdW  Elec       q    Type
REMARK                         _______ _______ _______ _____ _____    ______ ____
ROOT
ATOM      1  N   UNL     1       1.648   8.089  19.902  0.00  0.00    +0.000 N 
ATOM      2  C   UNL     1       1.713   6.791  20.546  0.00  0.00    +0.000 C 
ATOM      3  C   UNL     1       2.537   5.972  19.633  0.00  0.00    +0.000 A 
ATOM      4  C   UNL     1       3.008   6.765  18.592  0.00  0.00    +0.000 A 
ATOM      5  C   UNL     1       3.858   6.253  17.630  0.00  0.00    +0.000 A 
ATOM      6  C   UNL     1       4.233   4.896  17.733  0.00  0.00    +0.000 A 
ATOM      7  C   UNL     1       3.696   4.092  18.768  0.00  0.00    +0.000 A 
ATOM      8  C   UNL     1       2.835   4.620  19.738  0.00  0.00    +0.000 A 
ATOM      9  C   UNL     1       2.421   8.121  18.738  0.00  0.00    +0.000 C 
ATOM     10  O   UNL     1       2.614   9.018  17.937  0.00  0.00    +0.000 OA
ENDROOT
BRANCH   1  15
ATOM     11  C   UNL     1      -0.895  10.844  19.921  0.00  0.00    +0.000 A 
ATOM     12  C   UNL     1      -0.867  11.189  21.278  0.00  0.00    +0.000 A 
ATOM     13  C   UNL     1      -0.059  10.498  22.195  0.00  0.00    +0.000 A 
ATOM     14  C   UNL     1       0.772   9.448  21.780  0.00  0.00    +0.000 A 
ATOM     15  C   UNL     1       0.794   9.081  20.442  0.00  0.00    +0.000 A 
ATOM     16  C   UNL     1      -0.063   9.771  19.563  0.00  0.00    +0.000 A 
BRANCH  11  17
ATOM     17  C   UNL     1      -1.792  11.571  18.791  0.00  0.00    +0.000 C 
ATOM     18  C   UNL     1      -3.155  12.132  19.277  0.00  0.00    +0.000 C 
ATOM     19  O   UNL     1      -3.903  11.296  18.373  0.00  0.00    +0.000 OA
ATOM     20  C   UNL     1      -2.693  10.670  17.892  0.00  0.00    +0.000 C 
BRANCH  17  21
ATOM     21  C   UNL     1      -0.962  12.597  17.979  0.00  0.00    +0.000 C 
BRANCH  21  27
ATOM     22  C   UNL     1       2.168  12.516  18.414  0.00  0.00    +0.000 C 
ATOM     23  N   UNL     1       1.240  13.466  18.968  0.00  0.00    +0.000 N 
ATOM     24  C   UNL     1       1.577  14.482  19.801  0.00  0.00    +0.000 A 
ATOM     25  N   UNL     1       0.496  15.136  20.163  0.00  0.00    +0.000 NA
ATOM     26  N   UNL     1      -0.573  14.518  19.561  0.00  0.00    +0.000 NA
ATOM     27  C   UNL     1      -0.127  13.528  18.811  0.00  0.00    +0.000 A 
ENDBRANCH  21  27
ENDBRANCH  17  21
ENDBRANCH  11  17
ENDBRANCH   1  15
BRANCH   8  28
ATOM     28  C   UNL     1       2.251   3.741  20.817  0.00  0.00    +0.000 C 
ATOM     29  F   UNL     1       0.902   3.600  20.748  0.00  0.00    +0.000 F 
ATOM     30  F   UNL     1       2.767   2.483  20.789  0.00  0.00    +0.000 F 
ATOM     31  F   UNL     1       2.506   4.226  22.064  0.00  0.00    +0.000 F 
ENDBRANCH   8  28
BRANCH   6  32
ATOM     32  C   UNL     1       5.214   4.272  16.760  0.00  0.00    +0.000 C 
BRANCH  32  33
ATOM     33  C   UNL     1       6.686   4.712  16.971  0.00  0.00    +0.000 C 
ATOM     34  F   UNL     1       6.853   6.052  16.942  0.00  0.00    +0.000 F 
ATOM     35  F   UNL     1       7.160   4.273  18.161  0.00  0.00    +0.000 F 
ATOM     36  F   UNL     1       7.476   4.192  16.000  0.00  0.00    +0.000 F 
ENDBRANCH  32  33
BRANCH  32  37
ATOM     37  O   UNL     1       4.700   4.511  15.436  0.00  0.00    +0.000 OA
ATOM     38  H   UNL     1       3.826   4.931  15.534  0.00  0.00    +0.000 HD
ENDBRANCH  32  37
ENDBRANCH   6  32
TORSDOF 8
ENDMDL
MODEL 9
REMARK VINA RESULT:      -9.0      4.620      9.184
REMARK  Name = 
REMARK  9 active torsions:
REMARK  status: ('A' for Active; 'I' for Inactive)
REMARK    1  A    between atoms: C_1  and  N_2
REMARK    2  A    between atoms: C_6  and  C_7
REMARK    3  A    between atoms: C_7  and  C_8
REMARK    4  A    between atoms: C_8  and  C_9
REMARK    5  A    between atoms: C_13  and  N_14
REMARK    6  A    between atoms: C_19  and  C_20
REMARK    7  A    between atoms: C_20  and  O_21
REMARK    8  A    between atoms: C_20  and  C_22
REMARK    9  A    between atoms: C_27  and  C_28
REMARK                            x       y       z     vdW  Elec       q    Type
REMARK                         _______ _______ _______ _____ _____    ______ ____
ROOT
ATOM      1  N   UNL     1       2.192   7.936  19.078  0.00  0.00    +0.000 N 
ATOM      2  C   UNL     1       2.440   6.538  19.377  0.00  0.00    +0.000 C 
ATOM      3  C   UNL     1       3.337   6.087  18.291  0.00  0.00    +0.000 A 
ATOM      4  C   UNL     1       3.673   7.169  17.484  0.00  0.00    +0.000 A 
ATOM      5  C   UNL     1       4.554   7.028  16.430  0.00  0.00    +0.000 A 
ATOM      6  C   UNL     1       5.101   5.749  16.191  0.00  0.00    +0.000 A 
ATOM      7  C   UNL     1       4.701   4.650  16.989  0.00  0.00    +0.000 A 
ATOM      8  C   UNL     1       3.807   4.802  18.057  0.00  0.00    +0.000 A 
ATOM      9  C   UNL     1       2.921   8.357  17.963  0.00  0.00    +0.000 C 
ATOM     10  O   UNL     1       2.975   9.443  17.412  0.00  0.00    +0.000 OA
ENDROOT
BRANCH   1  15
ATOM     11  C   UNL     1      -0.468  10.468  19.832  0.00  0.00    +0.000 A 
ATOM     12  C   UNL     1      -0.614  10.262  21.210  0.00  0.00    +0.000 A 
ATOM     13  C   UNL     1       0.115   9.270  21.885  0.00  0.00    +0.000 A 
ATOM     14  C   UNL     1       1.039   8.463  21.207  0.00  0.00    +0.000 A 
ATOM     15  C   UNL     1       1.233   8.641  19.845  0.00  0.00    +0.000 A 
ATOM     16  C   UNL     1       0.451   9.617  19.197  0.00  0.00    +0.000 A 
BRANCH  11  17
ATOM     17  C   UNL     1      -1.264  11.575  18.964  0.00  0.00    +0.000 C 
ATOM     18  C   UNL     1      -2.618  12.044  19.558  0.00  0.00    +0.000 C 
ATOM     19  O   UNL     1      -3.361  11.590  18.410  0.00  0.00    +0.000 OA
ATOM     20  C   UNL     1      -2.163  11.068  17.794  0.00  0.00    +0.000 C 
BRANCH  17  21
ATOM     21  C   UNL     1      -0.337  12.746  18.550  0.00  0.00    +0.000 C 
BRANCH  21  27
ATOM     22  C   UNL     1       2.815  12.806  18.324  0.00  0.00    +0.000 C 
ATOM     23  N   UNL     1       2.020  13.188  19.460  0.00  0.00    +0.000 N 
ATOM     24  C   UNL     1       2.520  13.622  20.644  0.00  0.00    +0.000 A 
ATOM     25  N   UNL     1       1.537  13.845  21.487  0.00  0.00    +0.000 NA
ATOM     26  N   UNL     1       0.367  13.533  20.837  0.00  0.00    +0.000 NA
ATOM     27  C   UNL     1       0.650  13.167  19.601  0.00  0.00    +0.000 A 
ENDBRANCH  21  27
ENDBRANCH  17  21
ENDBRANCH  11  17
ENDBRANCH   1  15
BRANCH   8  28
ATOM     28  C   UNL     1       3.372   3.614  18.879  0.00  0.00    +0.000 C 
ATOM     29  F   UNL     1       2.030   3.406  18.884  0.00  0.00    +0.000 F 
ATOM     30  F   UNL     1       3.935   2.455  18.444  0.00  0.00    +0.000 F 
ATOM     31  F   UNL     1       3.728   3.741  20.187  0.00  0.00    +0.000 F 
ENDBRANCH   8  28
BRANCH   6  32
ATOM     32  C   UNL     1       6.126   5.521  15.098  0.00  0.00    +0.000 C 
BRANCH  32  33
ATOM     33  C   UNL     1       5.905   4.223  14.278  0.00  0.00    +0.000 C 
ATOM     34  F   UNL     1       4.659   4.120  13.766  0.00  0.00    +0.000 F 
ATOM     35  F   UNL     1       6.773   4.146  13.243  0.00  0.00    +0.000 F 
ATOM     36  F   UNL     1       6.104   3.133  15.060  0.00  0.00    +0.000 F 
ENDBRANCH  32  33
BRANCH  32  37
ATOM     37  O   UNL     1       7.424   5.629  15.712  0.00  0.00    +0.000 OA
ATOM     38  H   UNL     1       7.945   6.262  15.185  0.00  0.00    +0.000 HD
ENDBRANCH  32  37
ENDBRANCH   6  32
TORSDOF 8
ENDMDL
