MODEL 1
REMARK VINA RESULT:      -9.6      0.000      0.000
REMARK  Name = 
REMARK  8 active torsions:
REMARK  status: ('A' for Active; 'I' for Inactive)
REMARK    1  A    between atoms: C_1  and  N_2
REMARK    2  A    between atoms: C_6  and  C_7
REMARK    3  A    between atoms: C_7  and  C_8
REMARK    4  A    between atoms: C_8  and  C_9
REMARK    5  A    between atoms: C_13  and  N_14
REMARK    6  A    between atoms: C_19  and  C_20
REMARK    7  A    between atoms: C_20  and  N_21
REMARK    8  A    between atoms: C_29  and  C_30
REMARK                            x       y       z     vdW  Elec       q    Type
REMARK                         _______ _______ _______ _____ _____    ______ ____
ROOT
ATOM      1  N   UNL     1       2.306   7.448  19.353  0.00  0.00    +0.000 N 
ATOM      2  C   UNL     1       1.533   7.789  20.523  0.00  0.00    +0.000 C 
ATOM      3  C   UNL     1       1.008   9.137  20.247  0.00  0.00    +0.000 A 
ATOM      4  C   UNL     1       1.352   9.539  18.959  0.00  0.00    +0.000 A 
ATOM      5  C   UNL     1       0.922  10.773  18.470  0.00  0.00    +0.000 A 
ATOM      6  C   UNL     1       0.147  11.596  19.323  0.00  0.00    +0.000 A 
ATOM      7  C   UNL     1      -0.158  11.150  20.637  0.00  0.00    +0.000 A 
ATOM      8  C   UNL     1       0.282   9.923  21.128  0.00  0.00    +0.000 A 
ATOM      9  C   UNL     1       2.221   8.466  18.385  0.00  0.00    +0.000 C 
ATOM     10  O   UNL     1       2.734   8.526  17.277  0.00  0.00    +0.000 OA
ENDROOT
BRANCH   1  15
ATOM     11  C   UNL     1       5.335   5.279  18.845  0.00  0.00    +0.000 A 
ATOM     12  C   UNL     1       4.816   4.040  19.236  0.00  0.00    +0.000 A 
ATOM     13  C   UNL     1       3.499   3.916  19.724  0.00  0.00    +0.000 A 
ATOM     14  C   UNL     1       2.638   5.024  19.810  0.00  0.00    +0.000 A 
ATOM     15  C   UNL     1       3.098   6.268  19.414  0.00  0.00    +0.000 A 
ATOM     16  C   UNL     1       4.445   6.355  18.979  0.00  0.00    +0.000 A 
BRANCH  11  17
ATOM     17  C   UNL     1       6.835   5.538  18.283  0.00  0.00    +0.000 C 
ATOM     18  C   UNL     1       7.886   5.917  19.360  0.00  0.00    +0.000 C 
ATOM     19  O   UNL     1       8.162   7.189  18.746  0.00  0.00    +0.000 OA
ATOM     20  C   UNL     1       7.173   6.955  17.722  0.00  0.00    +0.000 C 
BRANCH  17  21
ATOM     21  C   UNL     1       7.302   4.399  17.337  0.00  0.00    +0.000 C 
BRANCH  21  27
ATOM     22  C   UNL     1       4.664   3.458  15.862  0.00  0.00    +0.000 C 
ATOM     23  N   UNL     1       5.783   4.164  15.287  0.00  0.00    +0.000 N 
ATOM     24  C   UNL     1       5.879   4.520  13.969  0.00  0.00    +0.000 A 
ATOM     25  N   UNL     1       7.028   5.111  13.768  0.00  0.00    +0.000 NA
ATOM     26  N   UNL     1       7.702   5.136  14.966  0.00  0.00    +0.000 NA
ATOM     27  C   UNL     1       6.940   4.588  15.892  0.00  0.00    +0.000 A 
ENDBRANCH  21  27
ENDBRANCH  17  21
ENDBRANCH  11  17
ENDBRANCH   1  15
BRANCH   8  28
ATOM     28  C   UNL     1       0.005   9.510  22.551  0.00  0.00    +0.000 C 
ATOM     29  F   UNL     1      -0.812   8.428  22.663  0.00  0.00    +0.000 F 
ATOM     30  F   UNL     1       1.143   9.194  23.225  0.00  0.00    +0.000 F 
ATOM     31  F   UNL     1      -0.602  10.496  23.265  0.00  0.00    +0.000 F 
ENDBRANCH   8  28
BRANCH   6  32
ATOM     32  C   UNL     1      -0.429  12.948  18.907  0.00  0.00    +0.000 C 
BRANCH  32  33
ATOM     33  N   UNL     1      -0.022  14.011  19.839  0.00  0.00    +0.000 NA
ATOM     34  C   UNL     1       1.417  14.264  19.894  0.00  0.00    +0.000 C 
ATOM     35  C   UNL     1       1.943  15.127  18.748  0.00  0.00    +0.000 C 
ATOM     36  C   UNL     1       1.122  16.391  18.546  0.00  0.00    +0.000 C 
ATOM     37  F   UNL     1       1.437  17.271  19.540  0.00  0.00    +0.000 F 
ATOM     38  C   UNL     1      -0.379  16.152  18.581  0.00  0.00    +0.000 C 
ATOM     39  C   UNL     1      -0.780  15.258  19.749  0.00  0.00    +0.000 C 
ENDBRANCH  32  33
ENDBRANCH   6  32
TORSDOF 7
ENDMDL
MODEL 2
REMARK VINA RESULT:      -9.4      0.534      1.201
REMARK  Name = 
REMARK  8 active torsions:
REMARK  status: ('A' for Active; 'I' for Inactive)
REMARK    1  A    between atoms: C_1  and  N_2
REMARK    2  A    between atoms: C_6  and  C_7
REMARK    3  A    between atoms: C_7  and  C_8
REMARK    4  A    between atoms: C_8  and  C_9
REMARK    5  A    between atoms: C_13  and  N_14
REMARK    6  A    between atoms: C_19  and  C_20
REMARK    7  A    between atoms: C_20  and  N_21
REMARK    8  A    between atoms: C_29  and  C_30
REMARK                            x       y       z     vdW  Elec       q    Type
REMARK                         _______ _______ _______ _____ _____    ______ ____
ROOT
ATOM      1  N   UNL     1       2.302   7.405  19.359  0.00  0.00    +0.000 N 
ATOM      2  C   UNL     1       1.538   7.740  20.537  0.00  0.00    +0.000 C 
ATOM      3  C   UNL     1       0.977   9.073  20.253  0.00  0.00    +0.000 A 
ATOM      4  C   UNL     1       1.294   9.469  18.956  0.00  0.00    +0.000 A 
ATOM      5  C   UNL     1       0.829  10.686  18.460  0.00  0.00    +0.000 A 
ATOM      6  C   UNL     1       0.045  11.500  19.314  0.00  0.00    +0.000 A 
ATOM      7  C   UNL     1      -0.231  11.063  20.637  0.00  0.00    +0.000 A 
ATOM      8  C   UNL     1       0.245   9.851  21.135  0.00  0.00    +0.000 A 
ATOM      9  C   UNL     1       2.180   8.410  18.382  0.00  0.00    +0.000 C 
ATOM     10  O   UNL     1       2.676   8.469  17.266  0.00  0.00    +0.000 OA
ENDROOT
BRANCH   1  15
ATOM     11  C   UNL     1       5.375   5.303  18.836  0.00  0.00    +0.000 A 
ATOM     12  C   UNL     1       4.890   4.056  19.245  0.00  0.00    +0.000 A 
ATOM     13  C   UNL     1       3.583   3.906  19.751  0.00  0.00    +0.000 A 
ATOM     14  C   UNL     1       2.697   4.994  19.837  0.00  0.00    +0.000 A 
ATOM     15  C   UNL     1       3.123   6.245  19.423  0.00  0.00    +0.000 A 
ATOM     16  C   UNL     1       4.461   6.359  18.970  0.00  0.00    +0.000 A 
BRANCH  11  17
ATOM     17  C   UNL     1       6.862   5.591  18.252  0.00  0.00    +0.000 C 
ATOM     18  C   UNL     1       7.915   6.011  19.311  0.00  0.00    +0.000 C 
ATOM     19  O   UNL     1       8.152   7.281  18.677  0.00  0.00    +0.000 OA
ATOM     20  C   UNL     1       7.157   7.008  17.668  0.00  0.00    +0.000 C 
BRANCH  17  21
ATOM     21  C   UNL     1       7.346   4.451  17.317  0.00  0.00    +0.000 C 
BRANCH  21  27
ATOM     22  C   UNL     1       4.685   3.487  15.900  0.00  0.00    +0.000 C 
ATOM     23  N   UNL     1       5.797   4.178  15.294  0.00  0.00    +0.000 N 
ATOM     24  C   UNL     1       5.874   4.507  13.968  0.00  0.00    +0.000 A 
ATOM     25  N   UNL     1       7.021   5.090  13.738  0.00  0.00    +0.000 NA
ATOM     26  N   UNL     1       7.713   5.138  14.925  0.00  0.00    +0.000 NA
ATOM     27  C   UNL     1       6.963   4.611  15.874  0.00  0.00    +0.000 A 
ENDBRANCH  21  27
ENDBRANCH  17  21
ENDBRANCH  11  17
ENDBRANCH   1  15
BRANCH   8  28
ATOM     28  C   UNL     1      -0.003   9.448  22.567  0.00  0.00    +0.000 C 
ATOM     29  F   UNL     1      -0.622  10.405  23.310  0.00  0.00    +0.000 F 
ATOM     30  F   UNL     1      -0.783   8.338  22.660  0.00  0.00    +0.000 F 
ATOM     31  F   UNL     1       1.149   9.165  23.231  0.00  0.00    +0.000 F 
ENDBRANCH   8  28
BRANCH   6  32
ATOM     32  C   UNL     1      -0.567  12.834  18.892  0.00  0.00    +0.000 C 
BRANCH  32  33
ATOM     33  N   UNL     1       0.442  13.904  18.875  0.00  0.00    +0.000 NA
ATOM     34  C   UNL     1      -0.081  15.239  18.590  0.00  0.00    +0.000 C 
ATOM     35  C   UNL     1      -0.725  15.925  19.793  0.00  0.00    +0.000 C 
ATOM     36  C   UNL     1       0.157  15.881  21.032  0.00  0.00    +0.000 C 
ATOM     37  F   UNL     1       1.163  16.789  20.874  0.00  0.00    +0.000 F 
ATOM     38  C   UNL     1       0.781  14.518  21.283  0.00  0.00    +0.000 C 
ATOM     39  C   UNL     1       1.367  13.922  20.007  0.00  0.00    +0.000 C 
ENDBRANCH  32  33
ENDBRANCH   6  32
TORSDOF 7
ENDMDL
MODEL 3
REMARK VINA RESULT:      -9.3      3.598      9.433
REMARK  Name = 
REMARK  8 active torsions:
REMARK  status: ('A' for Active; 'I' for Inactive)
REMARK    1  A    between atoms: C_1  and  N_2
REMARK    2  A    between atoms: C_6  and  C_7
REMARK    3  A    between atoms: C_7  and  C_8
REMARK    4  A    between atoms: C_8  and  C_9
REMARK    5  A    between atoms: C_13  and  N_14
REMARK    6  A    between atoms: C_19  and  C_20
REMARK    7  A    between atoms: C_20  and  N_21
REMARK    8  A    between atoms: C_29  and  C_30
REMARK                            x       y       z     vdW  Elec       q    Type
REMARK                         _______ _______ _______ _____ _____    ______ ____
ROOT
ATOM      1  N   UNL     1       1.423   8.145  20.240  0.00  0.00    +0.000 N 
ATOM      2  C   UNL     1       1.520   6.814  20.791  0.00  0.00    +0.000 C 
ATOM      3  C   UNL     1       2.264   6.043  19.779  0.00  0.00    +0.000 A 
ATOM      4  C   UNL     1       2.677   6.874  18.741  0.00  0.00    +0.000 A 
ATOM      5  C   UNL     1       3.436   6.359  17.689  0.00  0.00    +0.000 A 
ATOM      6  C   UNL     1       3.753   4.978  17.708  0.00  0.00    +0.000 A 
ATOM      7  C   UNL     1       3.287   4.169  18.778  0.00  0.00    +0.000 A 
ATOM      8  C   UNL     1       2.520   4.682  19.822  0.00  0.00    +0.000 A 
ATOM      9  C   UNL     1       2.109   8.230  19.014  0.00  0.00    +0.000 C 
ATOM     10  O   UNL     1       2.247   9.188  18.268  0.00  0.00    +0.000 OA
ENDROOT
BRANCH   1  15
ATOM     11  C   UNL     1      -0.812  11.142  20.641  0.00  0.00    +0.000 A 
ATOM     12  C   UNL     1      -0.964  11.149  22.032  0.00  0.00    +0.000 A 
ATOM     13  C   UNL     1      -0.391  10.144  22.838  0.00  0.00    +0.000 A 
ATOM     14  C   UNL     1       0.384   9.110  22.286  0.00  0.00    +0.000 A 
ATOM     15  C   UNL     1       0.581   9.072  20.916  0.00  0.00    +0.000 A 
ATOM     16  C   UNL     1      -0.056  10.072  20.140  0.00  0.00    +0.000 A 
BRANCH  11  17
ATOM     17  C   UNL     1      -1.437  12.237  19.619  0.00  0.00    +0.000 C 
ATOM     18  C   UNL     1      -0.500  12.663  18.457  0.00  0.00    +0.000 C 
ATOM     19  O   UNL     1      -0.498  14.042  18.869  0.00  0.00    +0.000 OA
ATOM     20  C   UNL     1      -1.332  13.745  20.008  0.00  0.00    +0.000 C 
BRANCH  17  21
ATOM     21  C   UNL     1      -2.863  11.843  19.151  0.00  0.00    +0.000 C 
BRANCH  21  27
ATOM     22  C   UNL     1      -5.218  12.081  17.050  0.00  0.00    +0.000 C 
ATOM     23  N   UNL     1      -3.976  11.365  16.894  0.00  0.00    +0.000 N 
ATOM     24  C   UNL     1      -3.635  10.639  15.784  0.00  0.00    +0.000 A 
ATOM     25  N   UNL     1      -2.466  10.087  15.976  0.00  0.00    +0.000 NA
ATOM     26  N   UNL     1      -2.034  10.445  17.232  0.00  0.00    +0.000 NA
ATOM     27  C   UNL     1      -2.934  11.239  17.778  0.00  0.00    +0.000 A 
ENDBRANCH  21  27
ENDBRANCH  17  21
ENDBRANCH  11  17
ENDBRANCH   1  15
BRANCH   8  28
ATOM     28  C   UNL     1       1.979   3.783  20.904  0.00  0.00    +0.000 C 
ATOM     29  F   UNL     1       2.343   2.479  20.771  0.00  0.00    +0.000 F 
ATOM     30  F   UNL     1       2.393   4.164  22.142  0.00  0.00    +0.000 F 
ATOM     31  F   UNL     1       0.619   3.777  20.939  0.00  0.00    +0.000 F 
ENDBRANCH   8  28
BRANCH   6  32
ATOM     32  C   UNL     1       4.611   4.289  16.650  0.00  0.00    +0.000 C 
BRANCH  32  33
ATOM     33  N   UNL     1       5.049   5.239  15.615  0.00  0.00    +0.000 NA
ATOM     34  C   UNL     1       6.341   5.874  15.870  0.00  0.00    +0.000 C 
ATOM     35  C   UNL     1       7.544   5.002  15.516  0.00  0.00    +0.000 C 
ATOM     36  C   UNL     1       7.439   4.399  14.124  0.00  0.00    +0.000 C 
ATOM     37  F   UNL     1       7.703   5.378  13.211  0.00  0.00    +0.000 F 
ATOM     38  C   UNL     1       6.068   3.818  13.816  0.00  0.00    +0.000 C 
ATOM     39  C   UNL     1       4.949   4.765  14.236  0.00  0.00    +0.000 C 
ENDBRANCH  32  33
ENDBRANCH   6  32
TORSDOF 7
ENDMDL
MODEL 4
REMARK VINA RESULT:      -9.3      3.410      9.234
REMARK  Name = 
REMARK  8 active torsions:
REMARK  status: ('A' for Active; 'I' for Inactive)
REMARK    1  A    between atoms: C_1  and  N_2
REMARK    2  A    between atoms: C_6  and  C_7
REMARK    3  A    between atoms: C_7  and  C_8
REMARK    4  A    between atoms: C_8  and  C_9
REMARK    5  A    between atoms: C_13  and  N_14
REMARK    6  A    between atoms: C_19  and  C_20
REMARK    7  A    between atoms: C_20  and  N_21
REMARK    8  A    between atoms: C_29  and  C_30
REMARK                            x       y       z     vdW  Elec       q    Type
REMARK                         _______ _______ _______ _____ _____    ______ ____
ROOT
ATOM      1  N   UNL     1       1.412   8.205  20.193  0.00  0.00    +0.000 N 
ATOM      2  C   UNL     1       1.475   6.857  20.707  0.00  0.00    +0.000 C 
ATOM      3  C   UNL     1       2.227   6.103  19.689  0.00  0.00    +0.000 A 
ATOM      4  C   UNL     1       2.677   6.956  18.684  0.00  0.00    +0.000 A 
ATOM      5  C   UNL     1       3.449   6.459  17.634  0.00  0.00    +0.000 A 
ATOM      6  C   UNL     1       3.743   5.073  17.620  0.00  0.00    +0.000 A 
ATOM      7  C   UNL     1       3.242   4.241  18.656  0.00  0.00    +0.000 A 
ATOM      8  C   UNL     1       2.460   4.737  19.697  0.00  0.00    +0.000 A 
ATOM      9  C   UNL     1       2.125   8.313  18.985  0.00  0.00    +0.000 C 
ATOM     10  O   UNL     1       2.295   9.290  18.271  0.00  0.00    +0.000 OA
ENDROOT
BRANCH   1  15
ATOM     11  C   UNL     1      -0.832  11.192  20.620  0.00  0.00    +0.000 A 
ATOM     12  C   UNL     1      -0.974  11.193  22.012  0.00  0.00    +0.000 A 
ATOM     13  C   UNL     1      -0.394  10.187  22.811  0.00  0.00    +0.000 A 
ATOM     14  C   UNL     1       0.381   9.157  22.250  0.00  0.00    +0.000 A 
ATOM     15  C   UNL     1       0.571   9.126  20.879  0.00  0.00    +0.000 A 
ATOM     16  C   UNL     1      -0.074  10.127  20.110  0.00  0.00    +0.000 A 
BRANCH  11  17
ATOM     17  C   UNL     1      -1.466  12.289  19.607  0.00  0.00    +0.000 C 
ATOM     18  C   UNL     1      -0.534  12.732  18.447  0.00  0.00    +0.000 C 
ATOM     19  O   UNL     1      -0.542  14.108  18.869  0.00  0.00    +0.000 OA
ATOM     20  C   UNL     1      -1.373  13.796  20.006  0.00  0.00    +0.000 C 
BRANCH  17  21
ATOM     21  C   UNL     1      -2.889  11.887  19.137  0.00  0.00    +0.000 C 
BRANCH  21  27
ATOM     22  C   UNL     1      -5.269  12.081  17.059  0.00  0.00    +0.000 C 
ATOM     23  N   UNL     1      -4.009  11.400  16.885  0.00  0.00    +0.000 N 
ATOM     24  C   UNL     1      -3.659  10.694  15.766  0.00  0.00    +0.000 A 
ATOM     25  N   UNL     1      -2.474  10.172  15.942  0.00  0.00    +0.000 NA
ATOM     26  N   UNL     1      -2.041  10.529  17.197  0.00  0.00    +0.000 NA
ATOM     27  C   UNL     1      -2.957  11.294  17.759  0.00  0.00    +0.000 A 
ENDBRANCH  21  27
ENDBRANCH  17  21
ENDBRANCH  11  17
ENDBRANCH   1  15
BRANCH   8  28
ATOM     28  C   UNL     1       1.882   3.817  20.742  0.00  0.00    +0.000 C 
ATOM     29  F   UNL     1       2.280   4.102  22.010  0.00  0.00    +0.000 F 
ATOM     30  F   UNL     1       0.522   3.850  20.759  0.00  0.00    +0.000 F 
ATOM     31  F   UNL     1       2.232   2.519  20.536  0.00  0.00    +0.000 F 
ENDBRANCH   8  28
BRANCH   6  32
ATOM     32  C   UNL     1       4.613   4.400  16.560  0.00  0.00    +0.000 C 
BRANCH  32  33
ATOM     33  N   UNL     1       5.969   4.140  17.068  0.00  0.00    +0.000 NA
ATOM     34  C   UNL     1       7.032   4.882  16.393  0.00  0.00    +0.000 C 
ATOM     35  C   UNL     1       7.180   6.328  16.864  0.00  0.00    +0.000 C 
ATOM     36  C   UNL     1       7.240   6.443  18.380  0.00  0.00    +0.000 C 
ATOM     37  F   UNL     1       8.475   6.035  18.793  0.00  0.00    +0.000 F 
ATOM     38  C   UNL     1       6.196   5.601  19.095  0.00  0.00    +0.000 C 
ATOM     39  C   UNL     1       6.122   4.190  18.522  0.00  0.00    +0.000 C 
ENDBRANCH  32  33
ENDBRANCH   6  32
TORSDOF 7
ENDMDL
MODEL 5
REMARK VINA RESULT:      -9.3      1.485      2.372
REMARK  Name = 
REMARK  8 active torsions:
REMARK  status: ('A' for Active; 'I' for Inactive)
REMARK    1  A    between atoms: C_1  and  N_2
REMARK    2  A    between atoms: C_6  and  C_7
REMARK    3  A    between atoms: C_7  and  C_8
REMARK    4  A    between atoms: C_8  and  C_9
REMARK    5  A    between atoms: C_13  and  N_14
REMARK    6  A    between atoms: C_19  and  C_20
REMARK    7  A    between atoms: C_20  and  N_21
REMARK    8  A    between atoms: C_29  and  C_30
REMARK                            x       y       z     vdW  Elec       q    Type
REMARK                         _______ _______ _______ _____ _____    ______ ____
ROOT
ATOM      1  N   UNL     1       2.208   7.434  19.154  0.00  0.00    +0.000 N 
ATOM      2  C   UNL     1       1.486   7.790  20.352  0.00  0.00    +0.000 C 
ATOM      3  C   UNL     1       1.050   9.180  20.127  0.00  0.00    +0.000 A 
ATOM      4  C   UNL     1       1.394   9.597  18.844  0.00  0.00    +0.000 A 
ATOM      5  C   UNL     1       1.041  10.871  18.401  0.00  0.00    +0.000 A 
ATOM      6  C   UNL     1       0.343  11.719  19.296  0.00  0.00    +0.000 A 
ATOM      7  C   UNL     1       0.036  11.256  20.603  0.00  0.00    +0.000 A 
ATOM      8  C   UNL     1       0.400   9.986  21.047  0.00  0.00    +0.000 A 
ATOM      9  C   UNL     1       2.173   8.484  18.218  0.00  0.00    +0.000 C 
ATOM     10  O   UNL     1       2.665   8.542  17.100  0.00  0.00    +0.000 OA
ENDROOT
BRANCH   1  15
ATOM     11  C   UNL     1       4.561   4.781  17.901  0.00  0.00    +0.000 A 
ATOM     12  C   UNL     1       4.300   3.766  18.828  0.00  0.00    +0.000 A 
ATOM     13  C   UNL     1       3.405   3.962  19.900  0.00  0.00    +0.000 A 
ATOM     14  C   UNL     1       2.710   5.173  20.067  0.00  0.00    +0.000 A 
ATOM     15  C   UNL     1       2.917   6.200  19.162  0.00  0.00    +0.000 A 
ATOM     16  C   UNL     1       3.864   5.978  18.132  0.00  0.00    +0.000 A 
BRANCH  11  17
ATOM     17  C   UNL     1       5.578   4.669  16.642  0.00  0.00    +0.000 C 
ATOM     18  C   UNL     1       5.233   5.580  15.433  0.00  0.00    +0.000 C 
ATOM     19  O   UNL     1       5.077   4.460  14.542  0.00  0.00    +0.000 OA
ATOM     20  C   UNL     1       5.341   3.524  15.608  0.00  0.00    +0.000 C 
BRANCH  17  21
ATOM     21  C   UNL     1       7.061   4.768  17.087  0.00  0.00    +0.000 C 
BRANCH  21  27
ATOM     22  C   UNL     1       8.123   5.713  19.915  0.00  0.00    +0.000 C 
ATOM     23  N   UNL     1       7.967   6.516  18.726  0.00  0.00    +0.000 N 
ATOM     24  C   UNL     1       8.244   7.854  18.655  0.00  0.00    +0.000 A 
ATOM     25  N   UNL     1       7.962   8.286  17.454  0.00  0.00    +0.000 NA
ATOM     26  N   UNL     1       7.485   7.221  16.727  0.00  0.00    +0.000 NA
ATOM     27  C   UNL     1       7.512   6.143  17.487  0.00  0.00    +0.000 A 
ENDBRANCH  21  27
ENDBRANCH  17  21
ENDBRANCH  11  17
ENDBRANCH   1  15
BRANCH   8  28
ATOM     28  C   UNL     1       0.125   9.550  22.464  0.00  0.00    +0.000 C 
ATOM     29  F   UNL     1      -0.713   8.484  22.560  0.00  0.00    +0.000 F 
ATOM     30  F   UNL     1       1.262   9.195  23.122  0.00  0.00    +0.000 F 
ATOM     31  F   UNL     1      -0.454  10.534  23.203  0.00  0.00    +0.000 F 
ENDBRANCH   8  28
BRANCH   6  32
ATOM     32  C   UNL     1      -0.145  13.120  18.933  0.00  0.00    +0.000 C 
BRANCH  32  33
ATOM     33  N   UNL     1       0.432  14.135  19.828  0.00  0.00    +0.000 NA
ATOM     34  C   UNL     1       1.873  14.337  19.682  0.00  0.00    +0.000 C 
ATOM     35  C   UNL     1       2.262  15.221  18.499  0.00  0.00    +0.000 C 
ATOM     36  C   UNL     1       1.470  16.519  18.455  0.00  0.00    +0.000 C 
ATOM     37  F   UNL     1       1.958  17.352  19.419  0.00  0.00    +0.000 F 
ATOM     38  C   UNL     1      -0.019  16.329  18.699  0.00  0.00    +0.000 C 
ATOM     39  C   UNL     1      -0.283  15.409  19.886  0.00  0.00    +0.000 C 
ENDBRANCH  32  33
ENDBRANCH   6  32
TORSDOF 7
ENDMDL
MODEL 6
REMARK VINA RESULT:      -9.3      0.624      1.008
REMARK  Name = 
REMARK  8 active torsions:
REMARK  status: ('A' for Active; 'I' for Inactive)
REMARK    1  A    between atoms: C_1  and  N_2
REMARK    2  A    between atoms: C_6  and  C_7
REMARK    3  A    between atoms: C_7  and  C_8
REMARK    4  A    between atoms: C_8  and  C_9
REMARK    5  A    between atoms: C_13  and  N_14
REMARK    6  A    between atoms: C_19  and  C_20
REMARK    7  A    between atoms: C_20  and  N_21
REMARK    8  A    between atoms: C_29  and  C_30
REMARK                            x       y       z     vdW  Elec       q    Type
REMARK                         _______ _______ _______ _____ _____    ______ ____
ROOT
ATOM      1  N   UNL     1       1.985   7.636  19.527  0.00  0.00    +0.000 N 
ATOM      2  C   UNL     1       1.233   7.987  20.708  0.00  0.00    +0.000 C 
ATOM      3  C   UNL     1       0.726   9.344  20.440  0.00  0.00    +0.000 A 
ATOM      4  C   UNL     1       1.060   9.742  19.148  0.00  0.00    +0.000 A 
ATOM      5  C   UNL     1       0.644  10.983  18.666  0.00  0.00    +0.000 A 
ATOM      6  C   UNL     1      -0.108  11.817  19.530  0.00  0.00    +0.000 A 
ATOM      7  C   UNL     1      -0.402  11.375  20.848  0.00  0.00    +0.000 A 
ATOM      8  C   UNL     1       0.025  10.140  21.331  0.00  0.00    +0.000 A 
ATOM      9  C   UNL     1       1.904   8.656  18.562  0.00  0.00    +0.000 C 
ATOM     10  O   UNL     1       2.403   8.710  17.447  0.00  0.00    +0.000 OA
ENDROOT
BRANCH   1  15
ATOM     11  C   UNL     1       4.919   5.379  18.863  0.00  0.00    +0.000 A 
ATOM     12  C   UNL     1       4.415   4.172  19.358  0.00  0.00    +0.000 A 
ATOM     13  C   UNL     1       3.146   4.100  19.967  0.00  0.00    +0.000 A 
ATOM     14  C   UNL     1       2.315   5.229  20.073  0.00  0.00    +0.000 A 
ATOM     15  C   UNL     1       2.760   6.443  19.577  0.00  0.00    +0.000 A 
ATOM     16  C   UNL     1       4.063   6.480  19.021  0.00  0.00    +0.000 A 
BRANCH  11  17
ATOM     17  C   UNL     1       6.367   5.578  18.158  0.00  0.00    +0.000 C 
ATOM     18  C   UNL     1       7.232   4.294  18.056  0.00  0.00    +0.000 C 
ATOM     19  O   UNL     1       8.292   4.858  18.849  0.00  0.00    +0.000 OA
ATOM     20  C   UNL     1       7.550   6.080  19.044  0.00  0.00    +0.000 C 
BRANCH  17  21
ATOM     21  C   UNL     1       6.256   6.357  16.820  0.00  0.00    +0.000 C 
BRANCH  21  27
ATOM     22  C   UNL     1       4.322   4.094  15.745  0.00  0.00    +0.000 C 
ATOM     23  N   UNL     1       5.556   4.545  15.150  0.00  0.00    +0.000 N 
ATOM     24  C   UNL     1       6.100   4.025  14.007  0.00  0.00    +0.000 A 
ATOM     25  N   UNL     1       7.233   4.627  13.759  0.00  0.00    +0.000 NA
ATOM     26  N   UNL     1       7.445   5.549  14.756  0.00  0.00    +0.000 NA
ATOM     27  C   UNL     1       6.419   5.520  15.585  0.00  0.00    +0.000 A 
ENDBRANCH  21  27
ENDBRANCH  17  21
ENDBRANCH  11  17
ENDBRANCH   1  15
BRANCH   8  28
ATOM     28  C   UNL     1      -0.241   9.730  22.758  0.00  0.00    +0.000 C 
ATOM     29  F   UNL     1       0.885   9.471  23.476  0.00  0.00    +0.000 F 
ATOM     30  F   UNL     1      -0.917  10.686  23.449  0.00  0.00    +0.000 F 
ATOM     31  F   UNL     1      -0.989   8.597  22.838  0.00  0.00    +0.000 F 
ENDBRANCH   8  28
BRANCH   6  32
ATOM     32  C   UNL     1      -0.667  13.179  19.124  0.00  0.00    +0.000 C 
BRANCH  32  33
ATOM     33  N   UNL     1      -0.145  14.250  19.987  0.00  0.00    +0.000 NA
ATOM     34  C   UNL     1       1.308  14.411  19.959  0.00  0.00    +0.000 C 
ATOM     35  C   UNL     1       1.825  15.191  18.752  0.00  0.00    +0.000 C 
ATOM     36  C   UNL     1       1.075  16.497  18.537  0.00  0.00    +0.000 C 
ATOM     37  F   UNL     1       1.497  17.394  19.475  0.00  0.00    +0.000 F 
ATOM     38  C   UNL     1      -0.434  16.357  18.657  0.00  0.00    +0.000 C 
ATOM     39  C   UNL     1      -0.828  15.539  19.881  0.00  0.00    +0.000 C 
ENDBRANCH  32  33
ENDBRANCH   6  32
TORSDOF 7
ENDMDL
MODEL 7
REMARK VINA RESULT:      -9.0      3.337      9.572
REMARK  Name = 
REMARK  8 active torsions:
REMARK  status: ('A' for Active; 'I' for Inactive)
REMARK    1  A    between atoms: C_1  and  N_2
REMARK    2  A    between atoms: C_6  and  C_7
REMARK    3  A    between atoms: C_7  and  C_8
REMARK    4  A    between atoms: C_8  and  C_9
REMARK    5  A    between atoms: C_13  and  N_14
REMARK    6  A    between atoms: C_19  and  C_20
REMARK    7  A    between atoms: C_20  and  N_21
REMARK    8  A    between atoms: C_29  and  C_30
REMARK                            x       y       z     vdW  Elec       q    Type
REMARK                         _______ _______ _______ _____ _____    ______ ____
ROOT
ATOM      1  N   UNL     1       1.472   7.904  20.402  0.00  0.00    +0.000 N 
ATOM      2  C   UNL     1       1.548   6.554  20.906  0.00  0.00    +0.000 C 
ATOM      3  C   UNL     1       2.289   5.809  19.874  0.00  0.00    +0.000 A 
ATOM      4  C   UNL     1       2.720   6.670  18.867  0.00  0.00    +0.000 A 
ATOM      5  C   UNL     1       3.479   6.182  17.803  0.00  0.00    +0.000 A 
ATOM      6  C   UNL     1       3.779   4.798  17.776  0.00  0.00    +0.000 A 
ATOM      7  C   UNL     1       3.296   3.958  18.814  0.00  0.00    +0.000 A 
ATOM      8  C   UNL     1       2.528   4.444  19.870  0.00  0.00    +0.000 A 
ATOM      9  C   UNL     1       2.167   8.023  19.184  0.00  0.00    +0.000 C 
ATOM     10  O   UNL     1       2.323   9.005  18.473  0.00  0.00    +0.000 OA
ENDROOT
BRANCH   1  15
ATOM     11  C   UNL     1      -0.594  10.999  20.941  0.00  0.00    +0.000 A 
ATOM     12  C   UNL     1      -0.860  10.880  22.309  0.00  0.00    +0.000 A 
ATOM     13  C   UNL     1      -0.422   9.762  23.048  0.00  0.00    +0.000 A 
ATOM     14  C   UNL     1       0.329   8.734  22.452  0.00  0.00    +0.000 A 
ATOM     15  C   UNL     1       0.637   8.817  21.105  0.00  0.00    +0.000 A 
ATOM     16  C   UNL     1       0.132   9.932  20.390  0.00  0.00    +0.000 A 
BRANCH  11  17
ATOM     17  C   UNL     1      -1.060  12.232  19.994  0.00  0.00    +0.000 C 
ATOM     18  C   UNL     1      -2.520  12.148  19.473  0.00  0.00    +0.000 C 
ATOM     19  O   UNL     1      -2.104  12.129  18.096  0.00  0.00    +0.000 OA
ATOM     20  C   UNL     1      -0.712  12.161  18.474  0.00  0.00    +0.000 C 
BRANCH  17  21
ATOM     21  C   UNL     1      -0.706  13.607  20.620  0.00  0.00    +0.000 C 
BRANCH  21  27
ATOM     22  C   UNL     1       1.011  15.541  18.794  0.00  0.00    +0.000 C 
ATOM     23  N   UNL     1       1.475  14.745  19.905  0.00  0.00    +0.000 N 
ATOM     24  C   UNL     1       2.776  14.692  20.329  0.00  0.00    +0.000 A 
ATOM     25  N   UNL     1       2.866  13.854  21.328  0.00  0.00    +0.000 NA
ATOM     26  N   UNL     1       1.612  13.340  21.560  0.00  0.00    +0.000 NA
ATOM     27  C   UNL     1       0.764  13.898  20.717  0.00  0.00    +0.000 A 
ENDBRANCH  21  27
ENDBRANCH  17  21
ENDBRANCH  11  17
ENDBRANCH   1  15
BRANCH   8  28
ATOM     28  C   UNL     1       1.969   3.515  20.917  0.00  0.00    +0.000 C 
ATOM     29  F   UNL     1       2.385   3.794  22.182  0.00  0.00    +0.000 F 
ATOM     30  F   UNL     1       0.610   3.542  20.954  0.00  0.00    +0.000 F 
ATOM     31  F   UNL     1       2.321   2.220  20.699  0.00  0.00    +0.000 F 
ENDBRANCH   8  28
BRANCH   6  32
ATOM     32  C   UNL     1       4.636   4.135  16.700  0.00  0.00    +0.000 C 
BRANCH  32  33
ATOM     33  N   UNL     1       4.982   5.086  15.632  0.00  0.00    +0.000 NA
ATOM     34  C   UNL     1       6.214   5.842  15.855  0.00  0.00    +0.000 C 
ATOM     35  C   UNL     1       7.488   5.069  15.521  0.00  0.00    +0.000 C 
ATOM     36  C   UNL     1       7.430   4.414  14.150  0.00  0.00    +0.000 C 
ATOM     37  F   UNL     1       7.602   5.382  13.204  0.00  0.00    +0.000 F 
ATOM     38  C   UNL     1       6.115   3.703  13.872  0.00  0.00    +0.000 C 
ATOM     39  C   UNL     1       4.918   4.559  14.269  0.00  0.00    +0.000 C 
ENDBRANCH  32  33
ENDBRANCH   6  32
TORSDOF 7
ENDMDL
MODEL 8
REMARK VINA RESULT:      -9.0      3.252      9.199
REMARK  Name = 
REMARK  8 active torsions:
REMARK  status: ('A' for Active; 'I' for Inactive)
REMARK    1  A    between atoms: C_1  and  N_2
REMARK    2  A    between atoms: C_6  and  C_7
REMARK    3  A    between atoms: C_7  and  C_8
REMARK    4  A    between atoms: C_8  and  C_9
REMARK    5  A    between atoms: C_13  and  N_14
REMARK    6  A    between atoms: C_19  and  C_20
REMARK    7  A    between atoms: C_20  and  N_21
REMARK    8  A    between atoms: C_29  and  C_30
REMARK                            x       y       z     vdW  Elec       q    Type
REMARK                         _______ _______ _______ _____ _____    ______ ____
ROOT
ATOM      1  N   UNL     1       1.427   8.238  20.146  0.00  0.00    +0.000 N 
ATOM      2  C   UNL     1       1.492   6.888  20.653  0.00  0.00    +0.000 C 
ATOM      3  C   UNL     1       2.249   6.140  19.632  0.00  0.00    +0.000 A 
ATOM      4  C   UNL     1       2.697   7.000  18.632  0.00  0.00    +0.000 A 
ATOM      5  C   UNL     1       3.472   6.510  17.581  0.00  0.00    +0.000 A 
ATOM      6  C   UNL     1       3.770   5.126  17.560  0.00  0.00    +0.000 A 
ATOM      7  C   UNL     1       3.269   4.287  18.591  0.00  0.00    +0.000 A 
ATOM      8  C   UNL     1       2.485   4.776  19.634  0.00  0.00    +0.000 A 
ATOM      9  C   UNL     1       2.141   8.354  18.939  0.00  0.00    +0.000 C 
ATOM     10  O   UNL     1       2.309   9.335  18.230  0.00  0.00    +0.000 OA
ENDROOT
BRANCH   1  15
ATOM     11  C   UNL     1      -0.912  11.153  20.564  0.00  0.00    +0.000 A 
ATOM     12  C   UNL     1      -0.990  11.204  21.960  0.00  0.00    +0.000 A 
ATOM     13  C   UNL     1      -0.334  10.253  22.769  0.00  0.00    +0.000 A 
ATOM     14  C   UNL     1       0.455   9.232  22.211  0.00  0.00    +0.000 A 
ATOM     15  C   UNL     1       0.582   9.153  20.835  0.00  0.00    +0.000 A 
ATOM     16  C   UNL     1      -0.137  10.097  20.060  0.00  0.00    +0.000 A 
BRANCH  11  17
ATOM     17  C   UNL     1      -1.635  12.183  19.541  0.00  0.00    +0.000 C 
ATOM     18  C   UNL     1      -3.175  12.296  19.698  0.00  0.00    +0.000 C 
ATOM     19  O   UNL     1      -3.417  11.846  18.352  0.00  0.00    +0.000 OA
ATOM     20  C   UNL     1      -2.006  11.663  18.117  0.00  0.00    +0.000 C 
BRANCH  17  21
ATOM     21  C   UNL     1      -0.916  13.558  19.501  0.00  0.00    +0.000 C 
BRANCH  21  27
ATOM     22  C   UNL     1       1.230  14.483  21.637  0.00  0.00    +0.000 C 
ATOM     23  N   UNL     1       1.480  13.899  20.341  0.00  0.00    +0.000 N 
ATOM     24  C   UNL     1       2.726  13.676  19.821  0.00  0.00    +0.000 A 
ATOM     25  N   UNL     1       2.605  13.173  18.621  0.00  0.00    +0.000 NA
ATOM     26  N   UNL     1       1.263  13.073  18.341  0.00  0.00    +0.000 NA
ATOM     27  C   UNL     1       0.580  13.487  19.391  0.00  0.00    +0.000 A 
ENDBRANCH  21  27
ENDBRANCH  17  21
ENDBRANCH  11  17
ENDBRANCH   1  15
BRANCH   8  28
ATOM     28  C   UNL     1       1.908   3.848  20.673  0.00  0.00    +0.000 C 
ATOM     29  F   UNL     1       0.549   3.866  20.734  0.00  0.00    +0.000 F 
ATOM     30  F   UNL     1       2.257   2.552  20.454  0.00  0.00    +0.000 F 
ATOM     31  F   UNL     1       2.330   4.153  21.929  0.00  0.00    +0.000 F 
ENDBRANCH   8  28
BRANCH   6  32
ATOM     32  C   UNL     1       4.643   4.460  16.498  0.00  0.00    +0.000 C 
BRANCH  32  33
ATOM     33  N   UNL     1       5.993   4.183  17.013  0.00  0.00    +0.000 NA
ATOM     34  C   UNL     1       7.066   4.930  16.360  0.00  0.00    +0.000 C 
ATOM     35  C   UNL     1       7.219   6.366  16.857  0.00  0.00    +0.000 C 
ATOM     36  C   UNL     1       7.267   6.455  18.375  0.00  0.00    +0.000 C 
ATOM     37  F   UNL     1       8.495   6.032  18.791  0.00  0.00    +0.000 F 
ATOM     38  C   UNL     1       6.211   5.607  19.066  0.00  0.00    +0.000 C 
ATOM     39  C   UNL     1       6.133   4.207  18.468  0.00  0.00    +0.000 C 
ENDBRANCH  32  33
ENDBRANCH   6  32
TORSDOF 7
ENDMDL
MODEL 9
REMARK VINA RESULT:      -9.0      1.016      1.378
REMARK  Name = 
REMARK  8 active torsions:
REMARK  status: ('A' for Active; 'I' for Inactive)
REMARK    1  A    between atoms: C_1  and  N_2
REMARK    2  A    between atoms: C_6  and  C_7
REMARK    3  A    between atoms: C_7  and  C_8
REMARK    4  A    between atoms: C_8  and  C_9
REMARK    5  A    between atoms: C_13  and  N_14
REMARK    6  A    between atoms: C_19  and  C_20
REMARK    7  A    between atoms: C_20  and  N_21
REMARK    8  A    between atoms: C_29  and  C_30
REMARK                            x       y       z     vdW  Elec       q    Type
REMARK                         _______ _______ _______ _____ _____    ______ ____
ROOT
ATOM      1  N   UNL     1       2.093   7.494  19.006  0.00  0.00    +0.000 N 
ATOM      2  C   UNL     1       1.394   7.814  20.228  0.00  0.00    +0.000 C 
ATOM      3  C   UNL     1       1.088   9.252  20.120  0.00  0.00    +0.000 A 
ATOM      4  C   UNL     1       1.483   9.741  18.877  0.00  0.00    +0.000 A 
ATOM      5  C   UNL     1       1.252  11.075  18.542  0.00  0.00    +0.000 A 
ATOM      6  C   UNL     1       0.625  11.906  19.502  0.00  0.00    +0.000 A 
ATOM      7  C   UNL     1       0.263  11.365  20.765  0.00  0.00    +0.000 A 
ATOM      8  C   UNL     1       0.505  10.035  21.102  0.00  0.00    +0.000 A 
ATOM      9  C   UNL     1       2.164   8.618  18.162  0.00  0.00    +0.000 C 
ATOM     10  O   UNL     1       2.671   8.724  17.055  0.00  0.00    +0.000 OA
ENDROOT
BRANCH   1  15
ATOM     11  C   UNL     1       4.599   4.903  17.935  0.00  0.00    +0.000 A 
ATOM     12  C   UNL     1       3.969   3.746  18.407  0.00  0.00    +0.000 A 
ATOM     13  C   UNL     1       2.760   3.809  19.129  0.00  0.00    +0.000 A 
ATOM     14  C   UNL     1       2.115   5.033  19.379  0.00  0.00    +0.000 A 
ATOM     15  C   UNL     1       2.687   6.205  18.913  0.00  0.00    +0.000 A 
ATOM     16  C   UNL     1       3.929   6.098  18.238  0.00  0.00    +0.000 A 
BRANCH  11  17
ATOM     17  C   UNL     1       5.994   4.947  17.108  0.00  0.00    +0.000 C 
ATOM     18  C   UNL     1       7.271   4.706  17.956  0.00  0.00    +0.000 C 
ATOM     19  O   UNL     1       7.818   5.997  17.631  0.00  0.00    +0.000 OA
ATOM     20  C   UNL     1       6.651   6.340  16.854  0.00  0.00    +0.000 C 
BRANCH  17  21
ATOM     21  C   UNL     1       5.931   4.078  15.824  0.00  0.00    +0.000 C 
BRANCH  21  27
ATOM     22  C   UNL     1       5.586   3.365  12.759  0.00  0.00    +0.000 C 
ATOM     23  N   UNL     1       6.543   4.273  13.343  0.00  0.00    +0.000 N 
ATOM     24  C   UNL     1       7.487   4.963  12.634  0.00  0.00    +0.000 A 
ATOM     25  N   UNL     1       8.215   5.667  13.461  0.00  0.00    +0.000 NA
ATOM     26  N   UNL     1       7.751   5.429  14.733  0.00  0.00    +0.000 NA
ATOM     27  C   UNL     1       6.722   4.607  14.662  0.00  0.00    +0.000 A 
ENDBRANCH  21  27
ENDBRANCH  17  21
ENDBRANCH  11  17
ENDBRANCH   1  15
BRANCH   8  28
ATOM     28  C   UNL     1       0.176   9.509  22.476  0.00  0.00    +0.000 C 
ATOM     29  F   UNL     1      -0.447  10.414  23.278  0.00  0.00    +0.000 F 
ATOM     30  F   UNL     1      -0.641   8.423  22.429  0.00  0.00    +0.000 F 
ATOM     31  F   UNL     1       1.287   9.125  23.161  0.00  0.00    +0.000 F 
ENDBRANCH   8  28
BRANCH   6  32
ATOM     32  C   UNL     1       0.270  13.371  19.257  0.00  0.00    +0.000 C 
BRANCH  32  33
ATOM     33  N   UNL     1       1.217  14.270  19.933  0.00  0.00    +0.000 NA
ATOM     34  C   UNL     1       2.599  14.173  19.465  0.00  0.00    +0.000 C 
ATOM     35  C   UNL     1       2.872  14.932  18.167  0.00  0.00    +0.000 C 
ATOM     36  C   UNL     1       2.353  16.362  18.208  0.00  0.00    +0.000 C 
ATOM     37  F   UNL     1       3.197  17.102  18.983  0.00  0.00    +0.000 F 
ATOM     38  C   UNL     1       0.951  16.482  18.781  0.00  0.00    +0.000 C 
ATOM     39  C   UNL     1       0.791  15.663  20.057  0.00  0.00    +0.000 C 
ENDBRANCH  32  33
ENDBRANCH   6  32
TORSDOF 7
ENDMDL
