MODEL 1
REMARK VINA RESULT:      -9.8      0.000      0.000
REMARK  Name = 
REMARK  8 active torsions:
REMARK  status: ('A' for Active; 'I' for Inactive)
REMARK    1  A    between atoms: C_1  and  C_2
REMARK    2  A    between atoms: C_2  and  C_3
REMARK    3  A    between atoms: C_2  and  C_10
REMARK    4  A    between atoms: C_3  and  C_4
REMARK    5  A    between atoms: N_8  and  C_9
REMARK    6  A    between atoms: C_14  and  N_15
REMARK    7  A    between atoms: C_20  and  C_21
REMARK    8  A    between atoms: C_27  and  C_28
REMARK                            x       y       z     vdW  Elec       q    Type
REMARK                         _______ _______ _______ _____ _____    ______ ____
ROOT
ATOM      1  N   UNL     1       1.366   8.601  20.022  0.00  0.00    +0.000 N 
ATOM      2  C   UNL     1       1.508   7.244  20.507  0.00  0.00    +0.000 C 
ATOM      3  C   UNL     1       2.363   6.578  19.503  0.00  0.00    +0.000 A 
ATOM      4  C   UNL     1       2.762   7.496  18.537  0.00  0.00    +0.000 A 
ATOM      5  C   UNL     1       3.602   7.118  17.499  0.00  0.00    +0.000 A 
ATOM      6  C   UNL     1       4.034   5.777  17.445  0.00  0.00    +0.000 A 
ATOM      7  C   UNL     1       3.580   4.859  18.425  0.00  0.00    +0.000 A 
ATOM      8  C   UNL     1       2.736   5.243  19.471  0.00  0.00    +0.000 A 
ATOM      9  C   UNL     1       2.116   8.803  18.855  0.00  0.00    +0.000 C 
ATOM     10  O   UNL     1       2.254   9.794  18.166  0.00  0.00    +0.000 OA
ENDROOT
BRANCH   1  15
ATOM     11  C   UNL     1      -1.046  11.425  20.522  0.00  0.00    +0.000 A 
ATOM     12  C   UNL     1      -1.221  11.391  21.904  0.00  0.00    +0.000 A 
ATOM     13  C   UNL     1      -0.569  10.417  22.675  0.00  0.00    +0.000 A 
ATOM     14  C   UNL     1       0.283   9.464  22.086  0.00  0.00    +0.000 A 
ATOM     15  C   UNL     1       0.491   9.483  20.713  0.00  0.00    +0.000 A 
ATOM     16  C   UNL     1      -0.191  10.467  19.964  0.00  0.00    +0.000 A 
BRANCH  11  18
ATOM     17  C   UNL     1      -1.752  13.872  20.322  0.00  0.00    +0.000 C 
ATOM     18  C   UNL     1      -1.694  12.491  19.634  0.00  0.00    +0.000 C 
BRANCH  18  19
ATOM     19  C   UNL     1      -3.097  12.012  19.196  0.00  0.00    +0.000 C 
BRANCH  19  20
ATOM     20  C   UNL     1      -3.154  11.526  17.784  0.00  0.00    +0.000 A 
ATOM     21  N   UNL     1      -2.142  11.031  17.098  0.00  0.00    +0.000 NA
ATOM     22  N   UNL     1      -2.589  10.715  15.837  0.00  0.00    +0.000 NA
ATOM     23  C   UNL     1      -3.860  11.034  15.776  0.00  0.00    +0.000 A 
ATOM     24  N   UNL     1      -4.259  11.540  16.974  0.00  0.00    +0.000 N 
ATOM     25  C   UNL     1      -5.582  11.995  17.301  0.00  0.00    +0.000 C 
ENDBRANCH  19  20
ENDBRANCH  18  19
ENDBRANCH  11  18
ENDBRANCH   1  15
BRANCH   6  26
ATOM     26  C   UNL     1       4.951   5.276  16.419  0.00  0.00    +0.000 A 
ATOM     27  C   UNL     1       5.353   3.984  16.121  0.00  0.00    +0.000 A 
ATOM     28  C   UNL     1       6.214   4.098  15.017  0.00  0.00    +0.000 A 
ATOM     29  N   UNL     1       6.360   5.364  14.626  0.00  0.00    +0.000 NA
ATOM     30  N   UNL     1       5.589   6.055  15.486  0.00  0.00    +0.000 N 
ATOM     31  H   UNL     1       5.526   7.059  15.363  0.00  0.00    +0.000 HD
ENDBRANCH   6  26
BRANCH   8  32
ATOM     32  C   UNL     1       2.258   4.236  20.488  0.00  0.00    +0.000 C 
ATOM     33  F   UNL     1       2.789   2.993  20.320  0.00  0.00    +0.000 F 
ATOM     34  F   UNL     1       2.568   4.603  21.760  0.00  0.00    +0.000 F 
ATOM     35  F   UNL     1       0.909   4.068  20.455  0.00  0.00    +0.000 F 
ENDBRANCH   8  32
TORSDOF 6
ENDMDL
MODEL 2
REMARK VINA RESULT:      -9.8      0.745      1.002
REMARK  Name = 
REMARK  8 active torsions:
REMARK  status: ('A' for Active; 'I' for Inactive)
REMARK    1  A    between atoms: C_1  and  C_2
REMARK    2  A    between atoms: C_2  and  C_3
REMARK    3  A    between atoms: C_2  and  C_10
REMARK    4  A    between atoms: C_3  and  C_4
REMARK    5  A    between atoms: N_8  and  C_9
REMARK    6  A    between atoms: C_14  and  N_15
REMARK    7  A    between atoms: C_20  and  C_21
REMARK    8  A    between atoms: C_27  and  C_28
REMARK                            x       y       z     vdW  Elec       q    Type
REMARK                         _______ _______ _______ _____ _____    ______ ____
ROOT
ATOM      1  N   UNL     1       1.310   8.391  20.260  0.00  0.00    +0.000 N 
ATOM      2  C   UNL     1       1.436   7.032  20.742  0.00  0.00    +0.000 C 
ATOM      3  C   UNL     1       2.260   6.350  19.722  0.00  0.00    +0.000 A 
ATOM      4  C   UNL     1       2.658   7.261  18.750  0.00  0.00    +0.000 A 
ATOM      5  C   UNL     1       3.472   6.868  17.696  0.00  0.00    +0.000 A 
ATOM      6  C   UNL     1       3.878   5.519  17.635  0.00  0.00    +0.000 A 
ATOM      7  C   UNL     1       3.425   4.609  18.623  0.00  0.00    +0.000 A 
ATOM      8  C   UNL     1       2.608   5.008  19.684  0.00  0.00    +0.000 A 
ATOM      9  C   UNL     1       2.042   8.579  19.079  0.00  0.00    +0.000 C 
ATOM     10  O   UNL     1       2.185   9.568  18.388  0.00  0.00    +0.000 OA
ENDROOT
BRANCH   1  15
ATOM     11  C   UNL     1      -0.952  11.325  20.825  0.00  0.00    +0.000 A 
ATOM     12  C   UNL     1      -1.176  11.235  22.198  0.00  0.00    +0.000 A 
ATOM     13  C   UNL     1      -0.606  10.187  22.939  0.00  0.00    +0.000 A 
ATOM     14  C   UNL     1       0.209   9.216  22.329  0.00  0.00    +0.000 A 
ATOM     15  C   UNL     1       0.464   9.289  20.966  0.00  0.00    +0.000 A 
ATOM     16  C   UNL     1      -0.134  10.346  20.247  0.00  0.00    +0.000 A 
BRANCH  11  18
ATOM     17  C   UNL     1      -1.424  13.832  20.692  0.00  0.00    +0.000 C 
ATOM     18  C   UNL     1      -1.507  12.468  19.972  0.00  0.00    +0.000 C 
BRANCH  18  19
ATOM     19  C   UNL     1      -2.956  12.135  19.545  0.00  0.00    +0.000 C 
BRANCH  19  20
ATOM     20  C   UNL     1      -3.067  11.614  18.149  0.00  0.00    +0.000 A 
ATOM     21  N   UNL     1      -2.082  11.529  17.277  0.00  0.00    +0.000 NA
ATOM     22  N   UNL     1      -2.585  11.018  16.105  0.00  0.00    +0.000 NA
ATOM     23  C   UNL     1      -3.869  10.812  16.282  0.00  0.00    +0.000 A 
ATOM     24  N   UNL     1      -4.214  11.166  17.549  0.00  0.00    +0.000 N 
ATOM     25  C   UNL     1      -5.529  11.079  18.122  0.00  0.00    +0.000 C 
ENDBRANCH  19  20
ENDBRANCH  18  19
ENDBRANCH  11  18
ENDBRANCH   1  15
BRANCH   6  26
ATOM     26  C   UNL     1       4.767   5.002  16.592  0.00  0.00    +0.000 A 
ATOM     27  C   UNL     1       5.354   5.639  15.509  0.00  0.00    +0.000 A 
ATOM     28  C   UNL     1       6.134   4.662  14.871  0.00  0.00    +0.000 A 
ATOM     29  N   UNL     1       6.062   3.483  15.487  0.00  0.00    +0.000 NA
ATOM     30  N   UNL     1       5.233   3.713  16.522  0.00  0.00    +0.000 N 
ATOM     31  H   UNL     1       5.046   2.947  17.158  0.00  0.00    +0.000 HD
ENDBRANCH   6  26
BRANCH   8  32
ATOM     32  C   UNL     1       2.130   4.011  20.709  0.00  0.00    +0.000 C 
ATOM     33  F   UNL     1       2.476   4.329  21.988  0.00  0.00    +0.000 F 
ATOM     34  F   UNL     1       0.776   3.887  20.713  0.00  0.00    +0.000 F 
ATOM     35  F   UNL     1       2.629   2.765  20.492  0.00  0.00    +0.000 F 
ENDBRANCH   8  32
TORSDOF 6
ENDMDL
MODEL 3
REMARK VINA RESULT:      -9.7      0.908      1.233
REMARK  Name = 
REMARK  8 active torsions:
REMARK  status: ('A' for Active; 'I' for Inactive)
REMARK    1  A    between atoms: C_1  and  C_2
REMARK    2  A    between atoms: C_2  and  C_3
REMARK    3  A    between atoms: C_2  and  C_10
REMARK    4  A    between atoms: C_3  and  C_4
REMARK    5  A    between atoms: N_8  and  C_9
REMARK    6  A    between atoms: C_14  and  N_15
REMARK    7  A    between atoms: C_20  and  C_21
REMARK    8  A    between atoms: C_27  and  C_28
REMARK                            x       y       z     vdW  Elec       q    Type
REMARK                         _______ _______ _______ _____ _____    ______ ____
ROOT
ATOM      1  N   UNL     1       1.906   8.166  19.425  0.00  0.00    +0.000 N 
ATOM      2  C   UNL     1       2.194   6.823  19.882  0.00  0.00    +0.000 C 
ATOM      3  C   UNL     1       3.083   6.260  18.845  0.00  0.00    +0.000 A 
ATOM      4  C   UNL     1       3.364   7.227  17.886  0.00  0.00    +0.000 A 
ATOM      5  C   UNL     1       4.208   6.950  16.820  0.00  0.00    +0.000 A 
ATOM      6  C   UNL     1       4.768   5.659  16.732  0.00  0.00    +0.000 A 
ATOM      7  C   UNL     1       4.433   4.686  17.706  0.00  0.00    +0.000 A 
ATOM      8  C   UNL     1       3.585   4.968  18.780  0.00  0.00    +0.000 A 
ATOM      9  C   UNL     1       2.600   8.459  18.243  0.00  0.00    +0.000 C 
ATOM     10  O   UNL     1       2.621   9.469  17.569  0.00  0.00    +0.000 OA
ENDROOT
BRANCH   1  15
ATOM     11  C   UNL     1      -0.549  10.914  20.108  0.00  0.00    +0.000 A 
ATOM     12  C   UNL     1      -0.855  10.678  21.447  0.00  0.00    +0.000 A 
ATOM     13  C   UNL     1      -0.276   9.592  22.124  0.00  0.00    +0.000 A 
ATOM     14  C   UNL     1       0.629   8.727  21.482  0.00  0.00    +0.000 A 
ATOM     15  C   UNL     1       0.967   8.947  20.153  0.00  0.00    +0.000 A 
ATOM     16  C   UNL     1       0.358  10.039  19.498  0.00  0.00    +0.000 A 
BRANCH  11  18
ATOM     17  C   UNL     1      -0.830  13.452  20.036  0.00  0.00    +0.000 C 
ATOM     18  C   UNL     1      -1.111  12.107  19.331  0.00  0.00    +0.000 C 
BRANCH  18  19
ATOM     19  C   UNL     1      -2.623  11.895  19.087  0.00  0.00    +0.000 C 
BRANCH  19  20
ATOM     20  C   UNL     1      -2.953  11.452  17.699  0.00  0.00    +0.000 A 
ATOM     21  N   UNL     1      -2.083  11.235  16.732  0.00  0.00    +0.000 NA
ATOM     22  N   UNL     1      -2.774  10.860  15.605  0.00  0.00    +0.000 NA
ATOM     23  C   UNL     1      -4.051  10.867  15.903  0.00  0.00    +0.000 A 
ATOM     24  N   UNL     1      -4.211  11.226  17.206  0.00  0.00    +0.000 N 
ATOM     25  C   UNL     1      -5.462  11.341  17.904  0.00  0.00    +0.000 C 
ENDBRANCH  19  20
ENDBRANCH  18  19
ENDBRANCH  11  18
ENDBRANCH   1  15
BRANCH   6  26
ATOM     26  C   UNL     1       5.702   5.267  15.673  0.00  0.00    +0.000 A 
ATOM     27  C   UNL     1       5.525   4.442  14.573  0.00  0.00    +0.000 A 
ATOM     28  C   UNL     1       6.749   4.459  13.885  0.00  0.00    +0.000 A 
ATOM     29  N   UNL     1       7.651   5.233  14.487  0.00  0.00    +0.000 NA
ATOM     30  N   UNL     1       6.997   5.710  15.562  0.00  0.00    +0.000 N 
ATOM     31  H   UNL     1       7.490   6.355  16.169  0.00  0.00    +0.000 HD
ENDBRANCH   6  26
BRANCH   8  32
ATOM     32  C   UNL     1       3.235   3.904  19.790  0.00  0.00    +0.000 C 
ATOM     33  F   UNL     1       2.913   4.398  21.018  0.00  0.00    +0.000 F 
ATOM     34  F   UNL     1       2.169   3.156  19.401  0.00  0.00    +0.000 F 
ATOM     35  F   UNL     1       4.259   3.034  20.001  0.00  0.00    +0.000 F 
ENDBRANCH   8  32
TORSDOF 6
ENDMDL
MODEL 4
REMARK VINA RESULT:      -9.4      1.611      2.303
REMARK  Name = 
REMARK  8 active torsions:
REMARK  status: ('A' for Active; 'I' for Inactive)
REMARK    1  A    between atoms: C_1  and  C_2
REMARK    2  A    between atoms: C_2  and  C_3
REMARK    3  A    between atoms: C_2  and  C_10
REMARK    4  A    between atoms: C_3  and  C_4
REMARK    5  A    between atoms: N_8  and  C_9
REMARK    6  A    between atoms: C_14  and  N_15
REMARK    7  A    between atoms: C_20  and  C_21
REMARK    8  A    between atoms: C_27  and  C_28
REMARK                            x       y       z     vdW  Elec       q    Type
REMARK                         _______ _______ _______ _____ _____    ______ ____
ROOT
ATOM      1  N   UNL     1       1.392   9.021  19.432  0.00  0.00    +0.000 N 
ATOM      2  C   UNL     1       1.504   7.720  20.057  0.00  0.00    +0.000 C 
ATOM      3  C   UNL     1       2.393   6.952  19.161  0.00  0.00    +0.000 A 
ATOM      4  C   UNL     1       2.837   7.765  18.124  0.00  0.00    +0.000 A 
ATOM      5  C   UNL     1       3.714   7.281  17.163  0.00  0.00    +0.000 A 
ATOM      6  C   UNL     1       4.137   5.939  17.264  0.00  0.00    +0.000 A 
ATOM      7  C   UNL     1       3.638   5.128  18.313  0.00  0.00    +0.000 A 
ATOM      8  C   UNL     1       2.757   5.619  19.281  0.00  0.00    +0.000 A 
ATOM      9  C   UNL     1       2.188   9.100  18.281  0.00  0.00    +0.000 C 
ATOM     10  O   UNL     1       2.361  10.016  17.501  0.00  0.00    +0.000 OA
ENDROOT
BRANCH   1  15
ATOM     11  C   UNL     1      -1.673  11.155  19.744  0.00  0.00    +0.000 A 
ATOM     12  C   UNL     1      -1.377  11.888  20.892  0.00  0.00    +0.000 A 
ATOM     13  C   UNL     1      -0.179  11.660  21.587  0.00  0.00    +0.000 A 
ATOM     14  C   UNL     1       0.755  10.706  21.144  0.00  0.00    +0.000 A 
ATOM     15  C   UNL     1       0.497   9.973  19.993  0.00  0.00    +0.000 A 
ATOM     16  C   UNL     1      -0.723  10.216  19.326  0.00  0.00    +0.000 A 
BRANCH  11  18
ATOM     17  C   UNL     1      -2.639  11.558  17.414  0.00  0.00    +0.000 C 
ATOM     18  C   UNL     1      -2.941  11.391  18.919  0.00  0.00    +0.000 C 
BRANCH  18  19
ATOM     19  C   UNL     1      -3.705  12.608  19.487  0.00  0.00    +0.000 C 
BRANCH  19  20
ATOM     20  C   UNL     1      -5.005  12.255  20.134  0.00  0.00    +0.000 A 
ATOM     21  N   UNL     1      -5.241  12.237  21.431  0.00  0.00    +0.000 NA
ATOM     22  N   UNL     1      -6.543  11.846  21.628  0.00  0.00    +0.000 NA
ATOM     23  C   UNL     1      -7.072  11.622  20.448  0.00  0.00    +0.000 A 
ATOM     24  N   UNL     1      -6.148  11.870  19.482  0.00  0.00    +0.000 N 
ATOM     25  C   UNL     1      -6.351  11.745  18.065  0.00  0.00    +0.000 C 
ENDBRANCH  19  20
ENDBRANCH  18  19
ENDBRANCH  11  18
ENDBRANCH   1  15
BRANCH   6  26
ATOM     26  C   UNL     1       5.090   5.334  16.331  0.00  0.00    +0.000 A 
ATOM     27  C   UNL     1       5.452   4.008  16.145  0.00  0.00    +0.000 A 
ATOM     28  C   UNL     1       6.380   4.013  15.091  0.00  0.00    +0.000 A 
ATOM     29  N   UNL     1       6.605   5.242  14.627  0.00  0.00    +0.000 NA
ATOM     30  N   UNL     1       5.816   6.020  15.390  0.00  0.00    +0.000 N 
ATOM     31  H   UNL     1       5.804   7.015  15.197  0.00  0.00    +0.000 HD
ENDBRANCH   6  26
BRANCH   8  32
ATOM     32  C   UNL     1       2.231   4.724  20.374  0.00  0.00    +0.000 C 
ATOM     33  F   UNL     1       2.488   5.183  21.630  0.00  0.00    +0.000 F 
ATOM     34  F   UNL     1       0.882   4.567  20.307  0.00  0.00    +0.000 F 
ATOM     35  F   UNL     1       2.766   3.475  20.322  0.00  0.00    +0.000 F 
ENDBRANCH   8  32
TORSDOF 6
ENDMDL
MODEL 5
REMARK VINA RESULT:      -9.4      0.926      1.197
REMARK  Name = 
REMARK  8 active torsions:
REMARK  status: ('A' for Active; 'I' for Inactive)
REMARK    1  A    between atoms: C_1  and  C_2
REMARK    2  A    between atoms: C_2  and  C_3
REMARK    3  A    between atoms: C_2  and  C_10
REMARK    4  A    between atoms: C_3  and  C_4
REMARK    5  A    between atoms: N_8  and  C_9
REMARK    6  A    between atoms: C_14  and  N_15
REMARK    7  A    between atoms: C_20  and  C_21
REMARK    8  A    between atoms: C_27  and  C_28
REMARK                            x       y       z     vdW  Elec       q    Type
REMARK                         _______ _______ _______ _____ _____    ______ ____
ROOT
ATOM      1  N   UNL     1       1.634   8.739  19.467  0.00  0.00    +0.000 N 
ATOM      2  C   UNL     1       1.770   7.399  19.995  0.00  0.00    +0.000 C 
ATOM      3  C   UNL     1       2.661   6.710  19.039  0.00  0.00    +0.000 A 
ATOM      4  C   UNL     1       3.085   7.603  18.060  0.00  0.00    +0.000 A 
ATOM      5  C   UNL     1       3.960   7.202  17.060  0.00  0.00    +0.000 A 
ATOM      6  C   UNL     1       4.403   5.863  17.060  0.00  0.00    +0.000 A 
ATOM      7  C   UNL     1       3.924   4.970  18.051  0.00  0.00    +0.000 A 
ATOM      8  C   UNL     1       3.045   5.378  19.059  0.00  0.00    +0.000 A 
ATOM      9  C   UNL     1       2.419   8.914  18.318  0.00  0.00    +0.000 C 
ATOM     10  O   UNL     1       2.572   9.885  17.605  0.00  0.00    +0.000 OA
ENDROOT
BRANCH   1  15
ATOM     11  C   UNL     1      -1.316  11.019  19.849  0.00  0.00    +0.000 A 
ATOM     12  C   UNL     1      -1.130  11.488  21.148  0.00  0.00    +0.000 A 
ATOM     13  C   UNL     1      -0.047  11.031  21.916  0.00  0.00    +0.000 A 
ATOM     14  C   UNL     1       0.880  10.108  21.400  0.00  0.00    +0.000 A 
ATOM     15  C   UNL     1       0.730   9.635  20.102  0.00  0.00    +0.000 A 
ATOM     16  C   UNL     1      -0.376  10.103  19.362  0.00  0.00    +0.000 A 
BRANCH  11  18
ATOM     17  C   UNL     1      -3.415  12.466  19.689  0.00  0.00    +0.000 C 
ATOM     18  C   UNL     1      -2.451  11.514  18.949  0.00  0.00    +0.000 C 
BRANCH  18  19
ATOM     19  C   UNL     1      -3.196  10.300  18.346  0.00  0.00    +0.000 C 
BRANCH  19  20
ATOM     20  C   UNL     1      -3.274  10.322  16.854  0.00  0.00    +0.000 A 
ATOM     21  N   UNL     1      -2.500   9.641  16.031  0.00  0.00    +0.000 NA
ATOM     22  N   UNL     1      -2.871   9.941  14.743  0.00  0.00    +0.000 NA
ATOM     23  C   UNL     1      -3.854  10.807  14.804  0.00  0.00    +0.000 A 
ATOM     24  N   UNL     1      -4.145  11.072  16.106  0.00  0.00    +0.000 N 
ATOM     25  C   UNL     1      -5.166  11.965  16.581  0.00  0.00    +0.000 C 
ENDBRANCH  19  20
ENDBRANCH  18  19
ENDBRANCH  11  18
ENDBRANCH   1  15
BRANCH   6  26
ATOM     26  C   UNL     1       5.357   5.340  16.079  0.00  0.00    +0.000 A 
ATOM     27  C   UNL     1       5.258   4.265  15.209  0.00  0.00    +0.000 A 
ATOM     28  C   UNL     1       6.457   4.256  14.479  0.00  0.00    +0.000 A 
ATOM     29  N   UNL     1       7.272   5.246  14.843  0.00  0.00    +0.000 NA
ATOM     30  N   UNL     1       6.586   5.886  15.808  0.00  0.00    +0.000 N 
ATOM     31  H   UNL     1       7.010   6.707  16.225  0.00  0.00    +0.000 HD
ENDBRANCH   6  26
BRANCH   8  32
ATOM     32  C   UNL     1       2.541   4.398  20.088  0.00  0.00    +0.000 C 
ATOM     33  F   UNL     1       2.709   4.817  21.373  0.00  0.00    +0.000 F 
ATOM     34  F   UNL     1       1.212   4.147  19.952  0.00  0.00    +0.000 F 
ATOM     35  F   UNL     1       3.169   3.195  20.009  0.00  0.00    +0.000 F 
ENDBRANCH   8  32
TORSDOF 6
ENDMDL
MODEL 6
REMARK VINA RESULT:      -9.4      1.268      1.574
REMARK  Name = 
REMARK  8 active torsions:
REMARK  status: ('A' for Active; 'I' for Inactive)
REMARK    1  A    between atoms: C_1  and  C_2
REMARK    2  A    between atoms: C_2  and  C_3
REMARK    3  A    between atoms: C_2  and  C_10
REMARK    4  A    between atoms: C_3  and  C_4
REMARK    5  A    between atoms: N_8  and  C_9
REMARK    6  A    between atoms: C_14  and  N_15
REMARK    7  A    between atoms: C_20  and  C_21
REMARK    8  A    between atoms: C_27  and  C_28
REMARK                            x       y       z     vdW  Elec       q    Type
REMARK                         _______ _______ _______ _____ _____    ______ ____
ROOT
ATOM      1  N   UNL     1       1.740   8.424  19.410  0.00  0.00    +0.000 N 
ATOM      2  C   UNL     1       1.950   7.078  19.899  0.00  0.00    +0.000 C 
ATOM      3  C   UNL     1       2.849   6.457  18.905  0.00  0.00    +0.000 A 
ATOM      4  C   UNL     1       3.208   7.393  17.941  0.00  0.00    +0.000 A 
ATOM      5  C   UNL     1       4.077   7.060  16.912  0.00  0.00    +0.000 A 
ATOM      6  C   UNL     1       4.581   5.743  16.866  0.00  0.00    +0.000 A 
ATOM      7  C   UNL     1       4.168   4.804  17.844  0.00  0.00    +0.000 A 
ATOM      8  C   UNL     1       3.295   5.144  18.881  0.00  0.00    +0.000 A 
ATOM      9  C   UNL     1       2.489   8.664  18.249  0.00  0.00    +0.000 C 
ATOM     10  O   UNL     1       2.580   9.660  17.559  0.00  0.00    +0.000 OA
ENDROOT
BRANCH   1  15
ATOM     11  C   UNL     1      -0.896  11.049  19.864  0.00  0.00    +0.000 A 
ATOM     12  C   UNL     1      -1.025  11.067  21.252  0.00  0.00    +0.000 A 
ATOM     13  C   UNL     1      -0.266  10.190  22.044  0.00  0.00    +0.000 A 
ATOM     14  C   UNL     1       0.648   9.288  21.469  0.00  0.00    +0.000 A 
ATOM     15  C   UNL     1       0.812   9.260  20.090  0.00  0.00    +0.000 A 
ATOM     16  C   UNL     1       0.024  10.143  19.322  0.00  0.00    +0.000 A 
BRANCH  11  18
ATOM     17  C   UNL     1      -0.785  13.188  18.471  0.00  0.00    +0.000 C 
ATOM     18  C   UNL     1      -1.662  12.011  18.952  0.00  0.00    +0.000 C 
BRANCH  18  19
ATOM     19  C   UNL     1      -2.934  12.506  19.679  0.00  0.00    +0.000 C 
BRANCH  19  20
ATOM     20  C   UNL     1      -4.206  12.024  19.062  0.00  0.00    +0.000 A 
ATOM     21  N   UNL     1      -4.344  11.580  17.827  0.00  0.00    +0.000 NA
ATOM     22  N   UNL     1      -5.664  11.249  17.633  0.00  0.00    +0.000 NA
ATOM     23  C   UNL     1      -6.306  11.509  18.747  0.00  0.00    +0.000 A 
ATOM     24  N   UNL     1      -5.432  11.990  19.672  0.00  0.00    +0.000 N 
ATOM     25  C   UNL     1      -5.755  12.381  21.017  0.00  0.00    +0.000 C 
ENDBRANCH  19  20
ENDBRANCH  18  19
ENDBRANCH  11  18
ENDBRANCH   1  15
BRANCH   6  26
ATOM     26  C   UNL     1       5.534   5.291  15.850  0.00  0.00    +0.000 A 
ATOM     27  C   UNL     1       5.411   4.324  14.864  0.00  0.00    +0.000 A 
ATOM     28  C   UNL     1       6.625   4.343  14.160  0.00  0.00    +0.000 A 
ATOM     29  N   UNL     1       7.472   5.250  14.645  0.00  0.00    +0.000 NA
ATOM     30  N   UNL     1       6.792   5.809  15.663  0.00  0.00    +0.000 N 
ATOM     31  H   UNL     1       7.239   6.560  16.177  0.00  0.00    +0.000 HD
ENDBRANCH   6  26
BRANCH   8  32
ATOM     32  C   UNL     1       2.862   4.115  19.895  0.00  0.00    +0.000 C 
ATOM     33  F   UNL     1       3.652   3.006  19.923  0.00  0.00    +0.000 F 
ATOM     34  F   UNL     1       2.871   4.607  21.163  0.00  0.00    +0.000 F 
ATOM     35  F   UNL     1       1.600   3.663  19.668  0.00  0.00    +0.000 F 
ENDBRANCH   8  32
TORSDOF 6
ENDMDL
MODEL 7
REMARK VINA RESULT:      -9.4      1.742      2.301
REMARK  Name = 
REMARK  8 active torsions:
REMARK  status: ('A' for Active; 'I' for Inactive)
REMARK    1  A    between atoms: C_1  and  C_2
REMARK    2  A    between atoms: C_2  and  C_3
REMARK    3  A    between atoms: C_2  and  C_10
REMARK    4  A    between atoms: C_3  and  C_4
REMARK    5  A    between atoms: N_8  and  C_9
REMARK    6  A    between atoms: C_14  and  N_15
REMARK    7  A    between atoms: C_20  and  C_21
REMARK    8  A    between atoms: C_27  and  C_28
REMARK                            x       y       z     vdW  Elec       q    Type
REMARK                         _______ _______ _______ _____ _____    ______ ____
ROOT
ATOM      1  N   UNL     1       1.382   8.454  20.086  0.00  0.00    +0.000 N 
ATOM      2  C   UNL     1       1.511   7.105  20.594  0.00  0.00    +0.000 C 
ATOM      3  C   UNL     1       2.338   6.406  19.589  0.00  0.00    +0.000 A 
ATOM      4  C   UNL     1       2.736   7.299  18.599  0.00  0.00    +0.000 A 
ATOM      5  C   UNL     1       3.552   6.889  17.554  0.00  0.00    +0.000 A 
ATOM      6  C   UNL     1       3.962   5.540  17.520  0.00  0.00    +0.000 A 
ATOM      7  C   UNL     1       3.510   4.648  18.524  0.00  0.00    +0.000 A 
ATOM      8  C   UNL     1       2.691   5.065  19.577  0.00  0.00    +0.000 A 
ATOM      9  C   UNL     1       2.115   8.622  18.902  0.00  0.00    +0.000 C 
ATOM     10  O   UNL     1       2.257   9.598  18.192  0.00  0.00    +0.000 OA
ENDROOT
BRANCH   1  15
ATOM     11  C   UNL     1      -1.202  11.127  20.554  0.00  0.00    +0.000 A 
ATOM     12  C   UNL     1      -1.171  11.296  21.937  0.00  0.00    +0.000 A 
ATOM     13  C   UNL     1      -0.319  10.507  22.726  0.00  0.00    +0.000 A 
ATOM     14  C   UNL     1       0.529   9.543  22.151  0.00  0.00    +0.000 A 
ATOM     15  C   UNL     1       0.533   9.364  20.774  0.00  0.00    +0.000 A 
ATOM     16  C   UNL     1      -0.345  10.163  20.010  0.00  0.00    +0.000 A 
BRANCH  11  18
ATOM     17  C   UNL     1      -1.267  12.630  18.489  0.00  0.00    +0.000 C 
ATOM     18  C   UNL     1      -2.075  11.988  19.638  0.00  0.00    +0.000 C 
BRANCH  18  19
ATOM     19  C   UNL     1      -2.812  13.054  20.482  0.00  0.00    +0.000 C 
BRANCH  19  20
ATOM     20  C   UNL     1      -4.202  12.662  20.866  0.00  0.00    +0.000 A 
ATOM     21  N   UNL     1      -4.656  12.541  22.099  0.00  0.00    +0.000 NA
ATOM     22  N   UNL     1      -5.971  12.149  22.037  0.00  0.00    +0.000 NA
ATOM     23  C   UNL     1      -6.290  12.026  20.770  0.00  0.00    +0.000 A 
ATOM     24  N   UNL     1      -5.215  12.343  20.000  0.00  0.00    +0.000 N 
ATOM     25  C   UNL     1      -5.172  12.336  18.563  0.00  0.00    +0.000 C 
ENDBRANCH  19  20
ENDBRANCH  18  19
ENDBRANCH  11  18
ENDBRANCH   1  15
BRANCH   6  26
ATOM     26  C   UNL     1       4.854   5.006  16.488  0.00  0.00    +0.000 A 
ATOM     27  C   UNL     1       5.403   5.611  15.368  0.00  0.00    +0.000 A 
ATOM     28  C   UNL     1       6.208   4.632  14.764  0.00  0.00    +0.000 A 
ATOM     29  N   UNL     1       6.186   3.481  15.435  0.00  0.00    +0.000 NA
ATOM     30  N   UNL     1       5.364   3.732  16.471  0.00  0.00    +0.000 N 
ATOM     31  H   UNL     1       5.213   2.990  17.145  0.00  0.00    +0.000 HD
ENDBRANCH   6  26
BRANCH   8  32
ATOM     32  C   UNL     1       2.214   4.086  20.620  0.00  0.00    +0.000 C 
ATOM     33  F   UNL     1       2.481   4.473  21.898  0.00  0.00    +0.000 F 
ATOM     34  F   UNL     1       0.869   3.892  20.566  0.00  0.00    +0.000 F 
ATOM     35  F   UNL     1       2.785   2.860  20.479  0.00  0.00    +0.000 F 
ENDBRANCH   8  32
TORSDOF 6
ENDMDL
MODEL 8
REMARK VINA RESULT:      -9.4      1.964      2.932
REMARK  Name = 
REMARK  8 active torsions:
REMARK  status: ('A' for Active; 'I' for Inactive)
REMARK    1  A    between atoms: C_1  and  C_2
REMARK    2  A    between atoms: C_2  and  C_3
REMARK    3  A    between atoms: C_2  and  C_10
REMARK    4  A    between atoms: C_3  and  C_4
REMARK    5  A    between atoms: N_8  and  C_9
REMARK    6  A    between atoms: C_14  and  N_15
REMARK    7  A    between atoms: C_20  and  C_21
REMARK    8  A    between atoms: C_27  and  C_28
REMARK                            x       y       z     vdW  Elec       q    Type
REMARK                         _______ _______ _______ _____ _____    ______ ____
ROOT
ATOM      1  N   UNL     1       1.396   8.578  19.993  0.00  0.00    +0.000 N 
ATOM      2  C   UNL     1       1.551   7.228  20.491  0.00  0.00    +0.000 C 
ATOM      3  C   UNL     1       2.400   6.555  19.487  0.00  0.00    +0.000 A 
ATOM      4  C   UNL     1       2.785   7.463  18.507  0.00  0.00    +0.000 A 
ATOM      5  C   UNL     1       3.617   7.078  17.465  0.00  0.00    +0.000 A 
ATOM      6  C   UNL     1       4.055   5.739  17.423  0.00  0.00    +0.000 A 
ATOM      7  C   UNL     1       3.616   4.830  18.418  0.00  0.00    +0.000 A 
ATOM      8  C   UNL     1       2.780   5.221  19.468  0.00  0.00    +0.000 A 
ATOM      9  C   UNL     1       2.134   8.771  18.816  0.00  0.00    +0.000 C 
ATOM     10  O   UNL     1       2.259   9.754  18.114  0.00  0.00    +0.000 OA
ENDROOT
BRANCH   1  15
ATOM     11  C   UNL     1      -1.019  11.401  20.483  0.00  0.00    +0.000 A 
ATOM     12  C   UNL     1      -1.187  11.377  21.867  0.00  0.00    +0.000 A 
ATOM     13  C   UNL     1      -0.529  10.409  22.642  0.00  0.00    +0.000 A 
ATOM     14  C   UNL     1       0.322   9.455  22.055  0.00  0.00    +0.000 A 
ATOM     15  C   UNL     1       0.523   9.464  20.681  0.00  0.00    +0.000 A 
ATOM     16  C   UNL     1      -0.165  10.441  19.929  0.00  0.00    +0.000 A 
BRANCH  11  18
ATOM     17  C   UNL     1      -3.035  11.993  19.030  0.00  0.00    +0.000 C 
ATOM     18  C   UNL     1      -1.674  12.459  19.591  0.00  0.00    +0.000 C 
BRANCH  18  19
ATOM     19  C   UNL     1      -0.696  12.855  18.461  0.00  0.00    +0.000 C 
BRANCH  19  20
ATOM     20  C   UNL     1       0.068  14.109  18.739  0.00  0.00    +0.000 A 
ATOM     21  N   UNL     1      -0.454  15.268  19.094  0.00  0.00    +0.000 NA
ATOM     22  N   UNL     1       0.567  16.175  19.239  0.00  0.00    +0.000 NA
ATOM     23  C   UNL     1       1.690  15.556  18.958  0.00  0.00    +0.000 A 
ATOM     24  N   UNL     1       1.427  14.259  18.646  0.00  0.00    +0.000 N 
ATOM     25  C   UNL     1       2.398  13.261  18.289  0.00  0.00    +0.000 C 
ENDBRANCH  19  20
ENDBRANCH  18  19
ENDBRANCH  11  18
ENDBRANCH   1  15
BRANCH   6  26
ATOM     26  C   UNL     1       4.966   5.231  16.394  0.00  0.00    +0.000 A 
ATOM     27  C   UNL     1       5.301   3.931  16.048  0.00  0.00    +0.000 A 
ATOM     28  C   UNL     1       6.191   4.044  14.967  0.00  0.00    +0.000 A 
ATOM     29  N   UNL     1       6.417   5.315  14.635  0.00  0.00    +0.000 NA
ATOM     30  N   UNL     1       5.667   6.011  15.509  0.00  0.00    +0.000 N 
ATOM     31  H   UNL     1       5.662   7.022  15.429  0.00  0.00    +0.000 HD
ENDBRANCH   6  26
BRANCH   8  32
ATOM     32  C   UNL     1       2.317   4.224  20.501  0.00  0.00    +0.000 C 
ATOM     33  F   UNL     1       2.629   4.575  21.779  0.00  0.00    +0.000 F 
ATOM     34  F   UNL     1       0.969   4.054  20.482  0.00  0.00    +0.000 F 
ATOM     35  F   UNL     1       2.863   2.993  20.313  0.00  0.00    +0.000 F 
ENDBRANCH   8  32
TORSDOF 6
ENDMDL
MODEL 9
REMARK VINA RESULT:      -9.4      1.733      2.267
REMARK  Name = 
REMARK  8 active torsions:
REMARK  status: ('A' for Active; 'I' for Inactive)
REMARK    1  A    between atoms: C_1  and  C_2
REMARK    2  A    between atoms: C_2  and  C_3
REMARK    3  A    between atoms: C_2  and  C_10
REMARK    4  A    between atoms: C_3  and  C_4
REMARK    5  A    between atoms: N_8  and  C_9
REMARK    6  A    between atoms: C_14  and  N_15
REMARK    7  A    between atoms: C_20  and  C_21
REMARK    8  A    between atoms: C_27  and  C_28
REMARK                            x       y       z     vdW  Elec       q    Type
REMARK                         _______ _______ _______ _____ _____    ______ ____
ROOT
ATOM      1  N   UNL     1       1.338   8.411  20.243  0.00  0.00    +0.000 N 
ATOM      2  C   UNL     1       1.459   7.053  20.729  0.00  0.00    +0.000 C 
ATOM      3  C   UNL     1       2.280   6.365  19.711  0.00  0.00    +0.000 A 
ATOM      4  C   UNL     1       2.682   7.271  18.735  0.00  0.00    +0.000 A 
ATOM      5  C   UNL     1       3.493   6.872  17.682  0.00  0.00    +0.000 A 
ATOM      6  C   UNL     1       3.894   5.522  17.625  0.00  0.00    +0.000 A 
ATOM      7  C   UNL     1       3.438   4.616  18.616  0.00  0.00    +0.000 A 
ATOM      8  C   UNL     1       2.624   5.022  19.677  0.00  0.00    +0.000 A 
ATOM      9  C   UNL     1       2.070   8.593  19.061  0.00  0.00    +0.000 C 
ATOM     10  O   UNL     1       2.217   9.579  18.366  0.00  0.00    +0.000 OA
ENDROOT
BRANCH   1  15
ATOM     11  C   UNL     1      -1.008  11.284  20.777  0.00  0.00    +0.000 A 
ATOM     12  C   UNL     1      -1.152  11.262  22.163  0.00  0.00    +0.000 A 
ATOM     13  C   UNL     1      -0.501  10.280  22.927  0.00  0.00    +0.000 A 
ATOM     14  C   UNL     1       0.318   9.308  22.324  0.00  0.00    +0.000 A 
ATOM     15  C   UNL     1       0.496   9.314  20.947  0.00  0.00    +0.000 A 
ATOM     16  C   UNL     1      -0.183  10.306  20.207  0.00  0.00    +0.000 A 
BRANCH  11  18
ATOM     17  C   UNL     1      -0.611  13.289  19.245  0.00  0.00    +0.000 C 
ATOM     18  C   UNL     1      -1.655  12.356  19.897  0.00  0.00    +0.000 C 
BRANCH  18  19
ATOM     19  C   UNL     1      -2.689  13.149  20.730  0.00  0.00    +0.000 C 
BRANCH  19  20
ATOM     20  C   UNL     1      -4.097  12.691  20.535  0.00  0.00    +0.000 A 
ATOM     21  N   UNL     1      -4.611  12.233  19.410  0.00  0.00    +0.000 NA
ATOM     22  N   UNL     1      -5.934  11.933  19.629  0.00  0.00    +0.000 NA
ATOM     23  C   UNL     1      -6.204  12.223  20.880  0.00  0.00    +0.000 A 
ATOM     24  N   UNL     1      -5.082  12.695  21.488  0.00  0.00    +0.000 N 
ATOM     25  C   UNL     1      -4.976  13.112  22.859  0.00  0.00    +0.000 C 
ENDBRANCH  19  20
ENDBRANCH  18  19
ENDBRANCH  11  18
ENDBRANCH   1  15
BRANCH   6  26
ATOM     26  C   UNL     1       4.781   4.998  16.583  0.00  0.00    +0.000 A 
ATOM     27  C   UNL     1       5.349   5.624  15.484  0.00  0.00    +0.000 A 
ATOM     28  C   UNL     1       6.137   4.646  14.856  0.00  0.00    +0.000 A 
ATOM     29  N   UNL     1       6.087   3.477  15.494  0.00  0.00    +0.000 NA
ATOM     30  N   UNL     1       5.264   3.715  16.532  0.00  0.00    +0.000 N 
ATOM     31  H   UNL     1       5.093   2.958  17.184  0.00  0.00    +0.000 HD
ENDBRANCH   6  26
BRANCH   8  32
ATOM     32  C   UNL     1       2.143   4.029  20.705  0.00  0.00    +0.000 C 
ATOM     33  F   UNL     1       2.488   4.352  21.983  0.00  0.00    +0.000 F 
ATOM     34  F   UNL     1       0.788   3.907  20.708  0.00  0.00    +0.000 F 
ATOM     35  F   UNL     1       2.640   2.782  20.493  0.00  0.00    +0.000 F 
ENDBRANCH   8  32
TORSDOF 6
ENDMDL
