MODEL 1
REMARK VINA RESULT:      -9.8      0.000      0.000
REMARK  Name = 
REMARK  9 active torsions:
REMARK  status: ('A' for Active; 'I' for Inactive)
REMARK    1  A    between atoms: C_1  and  N_2
REMARK    2  A    between atoms: C_6  and  C_7
REMARK    3  A    between atoms: C_7  and  C_8
REMARK    4  A    between atoms: C_8  and  C_9
REMARK    5  A    between atoms: C_13  and  N_14
REMARK    6  A    between atoms: C_19  and  C_20
REMARK    7  A    between atoms: C_20  and  N_21
REMARK    8  A    between atoms: C_24  and  C_25
REMARK    9  A    between atoms: C_33  and  C_34
REMARK                            x       y       z     vdW  Elec       q    Type
REMARK                         _______ _______ _______ _____ _____    ______ ____
ROOT
ATOM      1  N   UNL     1       2.250   7.371  19.119  0.00  0.00    +0.000 N 
ATOM      2  C   UNL     1       1.501   7.655  20.317  0.00  0.00    +0.000 C 
ATOM      3  C   UNL     1       1.024   9.038  20.145  0.00  0.00    +0.000 A 
ATOM      4  C   UNL     1       1.299   9.481  18.851  0.00  0.00    +0.000 A 
ATOM      5  C   UNL     1       0.734  10.667  18.391  0.00  0.00    +0.000 A 
ATOM      6  C   UNL     1      -0.123  11.386  19.263  0.00  0.00    +0.000 A 
ATOM      7  C   UNL     1      -0.271  10.954  20.603  0.00  0.00    +0.000 A 
ATOM      8  C   UNL     1       0.319   9.785  21.074  0.00  0.00    +0.000 A 
ATOM      9  C   UNL     1       2.216   8.461  18.225  0.00  0.00    +0.000 C 
ATOM     10  O   UNL     1       2.785   8.610  17.163  0.00  0.00    +0.000 OA
ENDROOT
BRANCH   1  15
ATOM     11  C   UNL     1       4.673   4.840  17.812  0.00  0.00    +0.000 A 
ATOM     12  C   UNL     1       4.369   3.765  18.657  0.00  0.00    +0.000 A 
ATOM     13  C   UNL     1       3.463   3.900  19.727  0.00  0.00    +0.000 A 
ATOM     14  C   UNL     1       2.802   5.114  19.979  0.00  0.00    +0.000 A 
ATOM     15  C   UNL     1       3.034   6.189  19.135  0.00  0.00    +0.000 A 
ATOM     16  C   UNL     1       4.004   6.037  18.116  0.00  0.00    +0.000 A 
BRANCH  11  17
ATOM     17  C   UNL     1       5.664   4.766  16.532  0.00  0.00    +0.000 C 
ATOM     18  C   UNL     1       5.232   5.560  15.256  0.00  0.00    +0.000 C 
ATOM     19  O   UNL     1       5.154   4.359  14.461  0.00  0.00    +0.000 OA
ATOM     20  C   UNL     1       5.509   3.540  15.590  0.00  0.00    +0.000 C 
BRANCH  17  21
ATOM     21  C   UNL     1       7.134   4.951  16.956  0.00  0.00    +0.000 C 
BRANCH  21  27
ATOM     22  C   UNL     1       8.123   5.700  19.866  0.00  0.00    +0.000 C 
ATOM     23  N   UNL     1       7.976   6.582  18.739  0.00  0.00    +0.000 N 
ATOM     24  C   UNL     1       8.332   7.897  18.723  0.00  0.00    +0.000 A 
ATOM     25  N   UNL     1       8.020   8.422  17.564  0.00  0.00    +0.000 NA
ATOM     26  N   UNL     1       7.482   7.424  16.788  0.00  0.00    +0.000 NA
ATOM     27  C   UNL     1       7.484   6.304  17.487  0.00  0.00    +0.000 A 
ENDBRANCH  21  27
ENDBRANCH  17  21
ENDBRANCH  11  17
ENDBRANCH   1  15
BRANCH   8  28
ATOM     28  C   UNL     1       0.223   9.399  22.526  0.00  0.00    +0.000 C 
ATOM     29  F   UNL     1       1.407   9.032  23.086  0.00  0.00    +0.000 F 
ATOM     30  F   UNL     1      -0.241  10.425  23.295  0.00  0.00    +0.000 F 
ATOM     31  F   UNL     1      -0.625   8.353  22.736  0.00  0.00    +0.000 F 
ENDBRANCH   8  28
BRANCH   6  32
ATOM     32  C   UNL     1      -0.870  12.649  18.868  0.00  0.00    +0.000 C 
BRANCH  32  33
ATOM     33  N   UNL     1      -0.423  13.940  19.402  0.00  0.00    +0.000 NA
ATOM     34  C   UNL     1       0.817  14.005  20.163  0.00  0.00    +0.000 C 
ATOM     35  C   UNL     1       0.406  14.046  21.626  0.00  0.00    +0.000 C 
ATOM     36  C   UNL     1      -0.970  14.725  21.641  0.00  0.00    +0.000 C 
ATOM     37  C   UNL     1      -1.429  14.672  20.167  0.00  0.00    +0.000 C 
BRANCH  36  38
ATOM     38  C   UNL     1      -2.031  14.187  22.585  0.00  0.00    +0.000 A 
ATOM     39  C   UNL     1      -2.740  14.986  23.491  0.00  0.00    +0.000 A 
ATOM     40  C   UNL     1      -3.613  14.415  24.419  0.00  0.00    +0.000 A 
ATOM     41  C   UNL     1      -3.820  13.040  24.436  0.00  0.00    +0.000 A 
ATOM     42  C   UNL     1      -3.185  12.236  23.496  0.00  0.00    +0.000 A 
ATOM     43  C   UNL     1      -2.309  12.806  22.570  0.00  0.00    +0.000 A 
ENDBRANCH  36  38
ENDBRANCH  32  33
ENDBRANCH   6  32
TORSDOF 8
ENDMDL
MODEL 2
REMARK VINA RESULT:      -9.7      2.663      4.500
REMARK  Name = 
REMARK  9 active torsions:
REMARK  status: ('A' for Active; 'I' for Inactive)
REMARK    1  A    between atoms: C_1  and  N_2
REMARK    2  A    between atoms: C_6  and  C_7
REMARK    3  A    between atoms: C_7  and  C_8
REMARK    4  A    between atoms: C_8  and  C_9
REMARK    5  A    between atoms: C_13  and  N_14
REMARK    6  A    between atoms: C_19  and  C_20
REMARK    7  A    between atoms: C_20  and  N_21
REMARK    8  A    between atoms: C_24  and  C_25
REMARK    9  A    between atoms: C_33  and  C_34
REMARK                            x       y       z     vdW  Elec       q    Type
REMARK                         _______ _______ _______ _____ _____    ______ ____
ROOT
ATOM      1  N   UNL     1       1.070   9.285  19.625  0.00  0.00    +0.000 N 
ATOM      2  C   UNL     1       0.106  10.104  18.934  0.00  0.00    +0.000 C 
ATOM      3  C   UNL     1      -0.731  10.682  19.999  0.00  0.00    +0.000 A 
ATOM      4  C   UNL     1      -0.183  10.390  21.249  0.00  0.00    +0.000 A 
ATOM      5  C   UNL     1      -0.673  11.029  22.384  0.00  0.00    +0.000 A 
ATOM      6  C   UNL     1      -1.717  11.976  22.226  0.00  0.00    +0.000 A 
ATOM      7  C   UNL     1      -2.315  12.144  20.954  0.00  0.00    +0.000 A 
ATOM      8  C   UNL     1      -1.847  11.483  19.823  0.00  0.00    +0.000 A 
ATOM      9  C   UNL     1       0.903   9.369  21.023  0.00  0.00    +0.000 C 
ATOM     10  O   UNL     1       1.476   8.770  21.909  0.00  0.00    +0.000 OA
ENDROOT
BRANCH   1  15
ATOM     11  C   UNL     1       2.752   6.085  18.667  0.00  0.00    +0.000 A 
ATOM     12  C   UNL     1       3.644   6.569  17.701  0.00  0.00    +0.000 A 
ATOM     13  C   UNL     1       3.616   7.911  17.276  0.00  0.00    +0.000 A 
ATOM     14  C   UNL     1       2.709   8.834  17.823  0.00  0.00    +0.000 A 
ATOM     15  C   UNL     1       1.843   8.410  18.820  0.00  0.00    +0.000 A 
ATOM     16  C   UNL     1       1.851   7.039  19.168  0.00  0.00    +0.000 A 
BRANCH  11  17
ATOM     17  C   UNL     1       2.741   4.574  19.250  0.00  0.00    +0.000 C 
ATOM     18  C   UNL     1       1.345   3.890  19.419  0.00  0.00    +0.000 C 
ATOM     19  O   UNL     1       1.514   3.758  20.845  0.00  0.00    +0.000 OA
ATOM     20  C   UNL     1       2.794   4.413  20.795  0.00  0.00    +0.000 C 
BRANCH  17  21
ATOM     21  C   UNL     1       3.820   3.708  18.570  0.00  0.00    +0.000 C 
BRANCH  21  27
ATOM     22  C   UNL     1       5.955   4.064  16.263  0.00  0.00    +0.000 C 
ATOM     23  N   UNL     1       6.096   4.424  17.649  0.00  0.00    +0.000 N 
ATOM     24  C   UNL     1       7.169   5.074  18.181  0.00  0.00    +0.000 A 
ATOM     25  N   UNL     1       7.005   5.204  19.475  0.00  0.00    +0.000 NA
ATOM     26  N   UNL     1       5.783   4.662  19.794  0.00  0.00    +0.000 NA
ATOM     27  C   UNL     1       5.219   4.219  18.686  0.00  0.00    +0.000 A 
ENDBRANCH  21  27
ENDBRANCH  17  21
ENDBRANCH  11  17
ENDBRANCH   1  15
BRANCH   8  28
ATOM     28  C   UNL     1      -2.560  11.608  18.503  0.00  0.00    +0.000 C 
ATOM     29  F   UNL     1      -1.853  12.269  17.547  0.00  0.00    +0.000 F 
ATOM     30  F   UNL     1      -2.850  10.389  17.965  0.00  0.00    +0.000 F 
ATOM     31  F   UNL     1      -3.748  12.269  18.608  0.00  0.00    +0.000 F 
ENDBRANCH   8  28
BRANCH   6  32
ATOM     32  C   UNL     1      -2.291  12.804  23.364  0.00  0.00    +0.000 C 
BRANCH  32  33
ATOM     33  N   UNL     1      -1.909  14.215  23.484  0.00  0.00    +0.000 NA
ATOM     34  C   UNL     1      -2.733  15.232  22.845  0.00  0.00    +0.000 C 
ATOM     35  C   UNL     1      -2.011  15.608  21.560  0.00  0.00    +0.000 C 
ATOM     36  C   UNL     1      -0.523  15.371  21.850  0.00  0.00    +0.000 C 
ATOM     37  C   UNL     1      -0.523  14.511  23.132  0.00  0.00    +0.000 C 
BRANCH  36  38
ATOM     38  C   UNL     1       0.337  14.759  20.757  0.00  0.00    +0.000 A 
ATOM     39  C   UNL     1       0.030  14.840  19.393  0.00  0.00    +0.000 A 
ATOM     40  C   UNL     1       0.791  14.151  18.445  0.00  0.00    +0.000 A 
ATOM     41  C   UNL     1       1.892  13.398  18.840  0.00  0.00    +0.000 A 
ATOM     42  C   UNL     1       2.260  13.366  20.180  0.00  0.00    +0.000 A 
ATOM     43  C   UNL     1       1.497  14.051  21.128  0.00  0.00    +0.000 A 
ENDBRANCH  36  38
ENDBRANCH  32  33
ENDBRANCH   6  32
TORSDOF 8
ENDMDL
MODEL 3
REMARK VINA RESULT:      -9.4      2.815     10.836
REMARK  Name = 
REMARK  9 active torsions:
REMARK  status: ('A' for Active; 'I' for Inactive)
REMARK    1  A    between atoms: C_1  and  N_2
REMARK    2  A    between atoms: C_6  and  C_7
REMARK    3  A    between atoms: C_7  and  C_8
REMARK    4  A    between atoms: C_8  and  C_9
REMARK    5  A    between atoms: C_13  and  N_14
REMARK    6  A    between atoms: C_19  and  C_20
REMARK    7  A    between atoms: C_20  and  N_21
REMARK    8  A    between atoms: C_24  and  C_25
REMARK    9  A    between atoms: C_33  and  C_34
REMARK                            x       y       z     vdW  Elec       q    Type
REMARK                         _______ _______ _______ _____ _____    ______ ____
ROOT
ATOM      1  N   UNL     1       1.561   7.947  20.213  0.00  0.00    +0.000 N 
ATOM      2  C   UNL     1       1.646   6.649  20.835  0.00  0.00    +0.000 C 
ATOM      3  C   UNL     1       2.284   5.788  19.824  0.00  0.00    +0.000 A 
ATOM      4  C   UNL     1       2.729   6.560  18.751  0.00  0.00    +0.000 A 
ATOM      5  C   UNL     1       3.564   5.994  17.792  0.00  0.00    +0.000 A 
ATOM      6  C   UNL     1       3.948   4.637  17.950  0.00  0.00    +0.000 A 
ATOM      7  C   UNL     1       3.370   3.870  18.990  0.00  0.00    +0.000 A 
ATOM      8  C   UNL     1       2.511   4.426  19.931  0.00  0.00    +0.000 A 
ATOM      9  C   UNL     1       2.141   7.937  18.929  0.00  0.00    +0.000 C 
ATOM     10  O   UNL     1       2.189   8.816  18.093  0.00  0.00    +0.000 OA
ENDROOT
BRANCH   1  15
ATOM     11  C   UNL     1       0.276  11.357  21.055  0.00  0.00    +0.000 A 
ATOM     12  C   UNL     1      -0.353  11.076  22.275  0.00  0.00    +0.000 A 
ATOM     13  C   UNL     1      -0.462   9.760  22.764  0.00  0.00    +0.000 A 
ATOM     14  C   UNL     1       0.079   8.671  22.063  0.00  0.00    +0.000 A 
ATOM     15  C   UNL     1       0.756   8.909  20.876  0.00  0.00    +0.000 A 
ATOM     16  C   UNL     1       0.782  10.233  20.380  0.00  0.00    +0.000 A 
BRANCH  11  17
ATOM     17  C   UNL     1       0.490  12.839  20.437  0.00  0.00    +0.000 C 
ATOM     18  C   UNL     1       1.656  13.017  19.410  0.00  0.00    +0.000 C 
ATOM     19  O   UNL     1       2.337  13.965  20.256  0.00  0.00    +0.000 OA
ATOM     20  C   UNL     1       1.331  13.840  21.278  0.00  0.00    +0.000 C 
BRANCH  17  21
ATOM     21  C   UNL     1      -0.855  13.467  20.020  0.00  0.00    +0.000 C 
BRANCH  21  27
ATOM     22  C   UNL     1      -3.838  12.632  20.662  0.00  0.00    +0.000 C 
ATOM     23  N   UNL     1      -3.069  12.298  19.493  0.00  0.00    +0.000 N 
ATOM     24  C   UNL     1      -3.547  11.625  18.409  0.00  0.00    +0.000 A 
ATOM     25  N   UNL     1      -2.579  11.441  17.545  0.00  0.00    +0.000 NA
ATOM     26  N   UNL     1      -1.451  12.038  18.054  0.00  0.00    +0.000 NA
ATOM     27  C   UNL     1      -1.754  12.584  19.217  0.00  0.00    +0.000 A 
ENDBRANCH  21  27
ENDBRANCH  17  21
ENDBRANCH  11  17
ENDBRANCH   1  15
BRANCH   8  28
ATOM     28  C   UNL     1       1.838   3.567  20.969  0.00  0.00    +0.000 C 
ATOM     29  F   UNL     1       0.483   3.683  20.997  0.00  0.00    +0.000 F 
ATOM     30  F   UNL     1       2.086   2.242  20.771  0.00  0.00    +0.000 F 
ATOM     31  F   UNL     1       2.259   3.848  22.235  0.00  0.00    +0.000 F 
ENDBRANCH   8  28
BRANCH   6  32
ATOM     32  C   UNL     1       4.916   3.916  17.027  0.00  0.00    +0.000 C 
BRANCH  32  33
ATOM     33  N   UNL     1       6.127   4.611  16.577  0.00  0.00    +0.000 NA
ATOM     34  C   UNL     1       6.035   6.005  16.165  0.00  0.00    +0.000 C 
ATOM     35  C   UNL     1       6.015   5.991  14.645  0.00  0.00    +0.000 C 
ATOM     36  C   UNL     1       6.807   4.738  14.243  0.00  0.00    +0.000 C 
ATOM     37  C   UNL     1       6.889   3.914  15.546  0.00  0.00    +0.000 C 
BRANCH  36  38
ATOM     38  C   UNL     1       6.299   3.907  13.077  0.00  0.00    +0.000 A 
ATOM     39  C   UNL     1       4.946   3.806  12.728  0.00  0.00    +0.000 A 
ATOM     40  C   UNL     1       4.529   2.928  11.725  0.00  0.00    +0.000 A 
ATOM     41  C   UNL     1       5.459   2.163  11.029  0.00  0.00    +0.000 A 
ATOM     42  C   UNL     1       6.814   2.304  11.307  0.00  0.00    +0.000 A 
ATOM     43  C   UNL     1       7.231   3.178  12.312  0.00  0.00    +0.000 A 
ENDBRANCH  36  38
ENDBRANCH  32  33
ENDBRANCH   6  32
TORSDOF 8
ENDMDL
MODEL 4
REMARK VINA RESULT:      -9.3      2.938     10.498
REMARK  Name = 
REMARK  9 active torsions:
REMARK  status: ('A' for Active; 'I' for Inactive)
REMARK    1  A    between atoms: C_1  and  N_2
REMARK    2  A    between atoms: C_6  and  C_7
REMARK    3  A    between atoms: C_7  and  C_8
REMARK    4  A    between atoms: C_8  and  C_9
REMARK    5  A    between atoms: C_13  and  N_14
REMARK    6  A    between atoms: C_19  and  C_20
REMARK    7  A    between atoms: C_20  and  N_21
REMARK    8  A    between atoms: C_24  and  C_25
REMARK    9  A    between atoms: C_33  and  C_34
REMARK                            x       y       z     vdW  Elec       q    Type
REMARK                         _______ _______ _______ _____ _____    ______ ____
ROOT
ATOM      1  N   UNL     1       1.552   7.962  20.109  0.00  0.00    +0.000 N 
ATOM      2  C   UNL     1       1.587   6.658  20.721  0.00  0.00    +0.000 C 
ATOM      3  C   UNL     1       2.286   5.802  19.746  0.00  0.00    +0.000 A 
ATOM      4  C   UNL     1       2.807   6.582  18.714  0.00  0.00    +0.000 A 
ATOM      5  C   UNL     1       3.702   6.019  17.808  0.00  0.00    +0.000 A 
ATOM      6  C   UNL     1       4.065   4.659  17.977  0.00  0.00    +0.000 A 
ATOM      7  C   UNL     1       3.414   3.885  18.967  0.00  0.00    +0.000 A 
ATOM      8  C   UNL     1       2.496   4.437  19.854  0.00  0.00    +0.000 A 
ATOM      9  C   UNL     1       2.218   7.961  18.866  0.00  0.00    +0.000 C 
ATOM     10  O   UNL     1       2.327   8.848  18.045  0.00  0.00    +0.000 OA
ENDROOT
BRANCH   1  15
ATOM     11  C   UNL     1      -0.824  10.846  20.274  0.00  0.00    +0.000 A 
ATOM     12  C   UNL     1      -0.683  11.189  21.624  0.00  0.00    +0.000 A 
ATOM     13  C   UNL     1       0.090  10.411  22.508  0.00  0.00    +0.000 A 
ATOM     14  C   UNL     1       0.779   9.269  22.067  0.00  0.00    +0.000 A 
ATOM     15  C   UNL     1       0.710   8.923  20.726  0.00  0.00    +0.000 A 
ATOM     16  C   UNL     1      -0.134   9.685  19.885  0.00  0.00    +0.000 A 
BRANCH  11  17
ATOM     17  C   UNL     1      -1.651  11.703  19.176  0.00  0.00    +0.000 C 
ATOM     18  C   UNL     1      -2.976  12.381  19.659  0.00  0.00    +0.000 C 
ATOM     19  O   UNL     1      -3.775  11.620  18.730  0.00  0.00    +0.000 OA
ATOM     20  C   UNL     1      -2.616  10.916  18.246  0.00  0.00    +0.000 C 
BRANCH  17  21
ATOM     21  C   UNL     1      -0.712  12.607  18.354  0.00  0.00    +0.000 C 
BRANCH  21  27
ATOM     22  C   UNL     1       2.437  12.318  18.275  0.00  0.00    +0.000 C 
ATOM     23  N   UNL     1       1.665  13.264  19.035  0.00  0.00    +0.000 N 
ATOM     24  C   UNL     1       2.187  14.270  19.792  0.00  0.00    +0.000 A 
ATOM     25  N   UNL     1       1.217  14.916  20.391  0.00  0.00    +0.000 NA
ATOM     26  N   UNL     1       0.031  14.349  19.990  0.00  0.00    +0.000 NA
ATOM     27  C   UNL     1       0.300  13.370  19.145  0.00  0.00    +0.000 A 
ENDBRANCH  21  27
ENDBRANCH  17  21
ENDBRANCH  11  17
ENDBRANCH   1  15
BRANCH   8  28
ATOM     28  C   UNL     1       1.749   3.573  20.835  0.00  0.00    +0.000 C 
ATOM     29  F   UNL     1       2.117   3.754  22.132  0.00  0.00    +0.000 F 
ATOM     30  F   UNL     1       0.407   3.809  20.801  0.00  0.00    +0.000 F 
ATOM     31  F   UNL     1       1.908   2.241  20.588  0.00  0.00    +0.000 F 
ENDBRANCH   8  28
BRANCH   6  32
ATOM     32  C   UNL     1       5.089   3.940  17.114  0.00  0.00    +0.000 C 
BRANCH  32  33
ATOM     33  N   UNL     1       6.240   4.688  16.597  0.00  0.00    +0.000 NA
ATOM     34  C   UNL     1       6.060   6.072  16.180  0.00  0.00    +0.000 C 
ATOM     35  C   UNL     1       5.963   6.041  14.663  0.00  0.00    +0.000 C 
ATOM     36  C   UNL     1       6.793   4.825  14.230  0.00  0.00    +0.000 C 
ATOM     37  C   UNL     1       6.982   4.018  15.534  0.00  0.00    +0.000 C 
BRANCH  36  38
ATOM     38  C   UNL     1       6.269   3.958  13.098  0.00  0.00    +0.000 A 
ATOM     39  C   UNL     1       4.915   3.876  12.749  0.00  0.00    +0.000 A 
ATOM     40  C   UNL     1       4.479   2.967  11.782  0.00  0.00    +0.000 A 
ATOM     41  C   UNL     1       5.391   2.150  11.122  0.00  0.00    +0.000 A 
ATOM     42  C   UNL     1       6.749   2.270  11.399  0.00  0.00    +0.000 A 
ATOM     43  C   UNL     1       7.184   3.175  12.368  0.00  0.00    +0.000 A 
ENDBRANCH  36  38
ENDBRANCH  32  33
ENDBRANCH   6  32
TORSDOF 8
ENDMDL
MODEL 5
REMARK VINA RESULT:      -9.2      1.644      3.309
REMARK  Name = 
REMARK  9 active torsions:
REMARK  status: ('A' for Active; 'I' for Inactive)
REMARK    1  A    between atoms: C_1  and  N_2
REMARK    2  A    between atoms: C_6  and  C_7
REMARK    3  A    between atoms: C_7  and  C_8
REMARK    4  A    between atoms: C_8  and  C_9
REMARK    5  A    between atoms: C_13  and  N_14
REMARK    6  A    between atoms: C_19  and  C_20
REMARK    7  A    between atoms: C_20  and  N_21
REMARK    8  A    between atoms: C_24  and  C_25
REMARK    9  A    between atoms: C_33  and  C_34
REMARK                            x       y       z     vdW  Elec       q    Type
REMARK                         _______ _______ _______ _____ _____    ______ ____
ROOT
ATOM      1  N   UNL     1       2.190   7.377  19.199  0.00  0.00    +0.000 N 
ATOM      2  C   UNL     1       1.478   7.646  20.424  0.00  0.00    +0.000 C 
ATOM      3  C   UNL     1       1.006   9.035  20.288  0.00  0.00    +0.000 A 
ATOM      4  C   UNL     1       1.246   9.497  18.993  0.00  0.00    +0.000 A 
ATOM      5  C   UNL     1       0.675  10.694  18.570  0.00  0.00    +0.000 A 
ATOM      6  C   UNL     1      -0.151  11.404  19.479  0.00  0.00    +0.000 A 
ATOM      7  C   UNL     1      -0.262  10.951  20.816  0.00  0.00    +0.000 A 
ATOM      8  C   UNL     1       0.333   9.771  21.249  0.00  0.00    +0.000 A 
ATOM      9  C   UNL     1       2.137   8.482  18.325  0.00  0.00    +0.000 C 
ATOM     10  O   UNL     1       2.675   8.645  17.249  0.00  0.00    +0.000 OA
ENDROOT
BRANCH   1  15
ATOM     11  C   UNL     1       4.610   4.887  17.810  0.00  0.00    +0.000 A 
ATOM     12  C   UNL     1       4.290   3.780  18.606  0.00  0.00    +0.000 A 
ATOM     13  C   UNL     1       3.375   3.876  19.672  0.00  0.00    +0.000 A 
ATOM     14  C   UNL     1       2.720   5.082  19.968  0.00  0.00    +0.000 A 
ATOM     15  C   UNL     1       2.966   6.190  19.172  0.00  0.00    +0.000 A 
ATOM     16  C   UNL     1       3.945   6.075  18.158  0.00  0.00    +0.000 A 
BRANCH  11  17
ATOM     17  C   UNL     1       5.612   4.860  16.537  0.00  0.00    +0.000 C 
ATOM     18  C   UNL     1       5.203   5.719  15.296  0.00  0.00    +0.000 C 
ATOM     19  O   UNL     1       5.118   4.559  14.445  0.00  0.00    +0.000 OA
ATOM     20  C   UNL     1       5.450   3.682  15.536  0.00  0.00    +0.000 C 
BRANCH  17  21
ATOM     21  C   UNL     1       7.080   5.005  16.983  0.00  0.00    +0.000 C 
BRANCH  21  27
ATOM     22  C   UNL     1       8.147   5.734  19.870  0.00  0.00    +0.000 C 
ATOM     23  N   UNL     1       7.987   6.620  18.748  0.00  0.00    +0.000 N 
ATOM     24  C   UNL     1       8.363   7.930  18.726  0.00  0.00    +0.000 A 
ATOM     25  N   UNL     1       8.032   8.461  17.575  0.00  0.00    +0.000 NA
ATOM     26  N   UNL     1       7.461   7.472  16.810  0.00  0.00    +0.000 NA
ATOM     27  C   UNL     1       7.462   6.351  17.508  0.00  0.00    +0.000 A 
ENDBRANCH  21  27
ENDBRANCH  17  21
ENDBRANCH  11  17
ENDBRANCH   1  15
BRANCH   8  28
ATOM     28  C   UNL     1       0.278   9.362  22.697  0.00  0.00    +0.000 C 
ATOM     29  F   UNL     1       1.492   9.090  23.248  0.00  0.00    +0.000 F 
ATOM     30  F   UNL     1      -0.268  10.335  23.480  0.00  0.00    +0.000 F 
ATOM     31  F   UNL     1      -0.477   8.244  22.898  0.00  0.00    +0.000 F 
ENDBRANCH   8  28
BRANCH   6  32
ATOM     32  C   UNL     1      -0.901  12.678  19.127  0.00  0.00    +0.000 C 
BRANCH  32  33
ATOM     33  N   UNL     1      -0.860  13.811  20.057  0.00  0.00    +0.000 NA
ATOM     34  C   UNL     1      -1.590  15.028  19.728  0.00  0.00    +0.000 C 
ATOM     35  C   UNL     1      -0.555  16.004  19.192  0.00  0.00    +0.000 C 
ATOM     36  C   UNL     1       0.758  15.622  19.889  0.00  0.00    +0.000 C 
ATOM     37  C   UNL     1       0.479  14.220  20.471  0.00  0.00    +0.000 C 
BRANCH  36  38
ATOM     38  C   UNL     1       2.042  15.654  19.077  0.00  0.00    +0.000 A 
ATOM     39  C   UNL     1       2.329  16.634  18.119  0.00  0.00    +0.000 A 
ATOM     40  C   UNL     1       3.469  16.540  17.317  0.00  0.00    +0.000 A 
ATOM     41  C   UNL     1       4.358  15.484  17.481  0.00  0.00    +0.000 A 
ATOM     42  C   UNL     1       4.132  14.541  18.478  0.00  0.00    +0.000 A 
ATOM     43  C   UNL     1       2.992  14.633  19.277  0.00  0.00    +0.000 A 
ENDBRANCH  36  38
ENDBRANCH  32  33
ENDBRANCH   6  32
TORSDOF 8
ENDMDL
MODEL 6
REMARK VINA RESULT:      -9.2      3.703     11.431
REMARK  Name = 
REMARK  9 active torsions:
REMARK  status: ('A' for Active; 'I' for Inactive)
REMARK    1  A    between atoms: C_1  and  N_2
REMARK    2  A    between atoms: C_6  and  C_7
REMARK    3  A    between atoms: C_7  and  C_8
REMARK    4  A    between atoms: C_8  and  C_9
REMARK    5  A    between atoms: C_13  and  N_14
REMARK    6  A    between atoms: C_19  and  C_20
REMARK    7  A    between atoms: C_20  and  N_21
REMARK    8  A    between atoms: C_24  and  C_25
REMARK    9  A    between atoms: C_33  and  C_34
REMARK                            x       y       z     vdW  Elec       q    Type
REMARK                         _______ _______ _______ _____ _____    ______ ____
ROOT
ATOM      1  N   UNL     1      -0.847  11.102  22.068  0.00  0.00    +0.000 N 
ATOM      2  C   UNL     1      -0.497  11.071  20.670  0.00  0.00    +0.000 C 
ATOM      3  C   UNL     1       0.409   9.918  20.534  0.00  0.00    +0.000 A 
ATOM      4  C   UNL     1       0.441   9.192  21.725  0.00  0.00    +0.000 A 
ATOM      5  C   UNL     1       1.045   7.938  21.754  0.00  0.00    +0.000 A 
ATOM      6  C   UNL     1       1.602   7.432  20.552  0.00  0.00    +0.000 A 
ATOM      7  C   UNL     1       1.648   8.260  19.405  0.00  0.00    +0.000 A 
ATOM      8  C   UNL     1       1.073   9.526  19.383  0.00  0.00    +0.000 A 
ATOM      9  C   UNL     1      -0.258  10.029  22.767  0.00  0.00    +0.000 C 
ATOM     10  O   UNL     1      -0.271   9.776  23.954  0.00  0.00    +0.000 OA
ENDROOT
BRANCH   1  15
ATOM     11  C   UNL     1      -3.618  13.604  22.304  0.00  0.00    +0.000 A 
ATOM     12  C   UNL     1      -2.919  14.674  22.878  0.00  0.00    +0.000 A 
ATOM     13  C   UNL     1      -1.581  14.543  23.298  0.00  0.00    +0.000 A 
ATOM     14  C   UNL     1      -0.877  13.339  23.134  0.00  0.00    +0.000 A 
ATOM     15  C   UNL     1      -1.513  12.270  22.522  0.00  0.00    +0.000 A 
ATOM     16  C   UNL     1      -2.878  12.415  22.181  0.00  0.00    +0.000 A 
BRANCH  11  17
ATOM     17  C   UNL     1      -5.138  13.674  21.750  0.00  0.00    +0.000 C 
ATOM     18  C   UNL     1      -5.529  14.934  20.910  0.00  0.00    +0.000 C 
ATOM     19  O   UNL     1      -6.534  15.333  21.864  0.00  0.00    +0.000 OA
ATOM     20  C   UNL     1      -6.219  14.222  22.723  0.00  0.00    +0.000 C 
BRANCH  17  21
ATOM     21  C   UNL     1      -5.574  12.323  21.150  0.00  0.00    +0.000 C 
BRANCH  21  27
ATOM     22  C   UNL     1      -3.806  11.771  18.586  0.00  0.00    +0.000 C 
ATOM     23  N   UNL     1      -5.216  12.050  18.632  0.00  0.00    +0.000 N 
ATOM     24  C   UNL     1      -6.052  12.034  17.555  0.00  0.00    +0.000 A 
ATOM     25  N   UNL     1      -7.258  12.381  17.931  0.00  0.00    +0.000 NA
ATOM     26  N   UNL     1      -7.225  12.593  19.288  0.00  0.00    +0.000 NA
ATOM     27  C   UNL     1      -5.997  12.363  19.718  0.00  0.00    +0.000 A 
ENDBRANCH  21  27
ENDBRANCH  17  21
ENDBRANCH  11  17
ENDBRANCH   1  15
BRANCH   8  28
ATOM     28  C   UNL     1       1.218  10.423  18.182  0.00  0.00    +0.000 C 
ATOM     29  F   UNL     1       0.057  10.652  17.513  0.00  0.00    +0.000 F 
ATOM     30  F   UNL     1       1.694  11.654  18.522  0.00  0.00    +0.000 F 
ATOM     31  F   UNL     1       2.085   9.923  17.256  0.00  0.00    +0.000 F 
ENDBRANCH   8  28
BRANCH   6  32
ATOM     32  C   UNL     1       2.219   6.049  20.419  0.00  0.00    +0.000 C 
BRANCH  32  33
ATOM     33  N   UNL     1       1.700   5.131  19.400  0.00  0.00    +0.000 NA
ATOM     34  C   UNL     1       1.628   3.706  19.695  0.00  0.00    +0.000 C 
ATOM     35  C   UNL     1       2.832   3.077  19.012  0.00  0.00    +0.000 C 
ATOM     36  C   UNL     1       3.119   3.970  17.797  0.00  0.00    +0.000 C 
ATOM     37  C   UNL     1       2.318   5.259  18.083  0.00  0.00    +0.000 C 
BRANCH  36  38
ATOM     38  C   UNL     1       4.567   4.268  17.446  0.00  0.00    +0.000 A 
ATOM     39  C   UNL     1       5.092   4.143  16.153  0.00  0.00    +0.000 A 
ATOM     40  C   UNL     1       6.458   4.311  15.916  0.00  0.00    +0.000 A 
ATOM     41  C   UNL     1       7.318   4.640  16.959  0.00  0.00    +0.000 A 
ATOM     42  C   UNL     1       6.806   4.844  18.236  0.00  0.00    +0.000 A 
ATOM     43  C   UNL     1       5.441   4.673  18.474  0.00  0.00    +0.000 A 
ENDBRANCH  36  38
ENDBRANCH  32  33
ENDBRANCH   6  32
TORSDOF 8
ENDMDL
MODEL 7
REMARK VINA RESULT:      -9.2      2.784      9.967
REMARK  Name = 
REMARK  9 active torsions:
REMARK  status: ('A' for Active; 'I' for Inactive)
REMARK    1  A    between atoms: C_1  and  N_2
REMARK    2  A    between atoms: C_6  and  C_7
REMARK    3  A    between atoms: C_7  and  C_8
REMARK    4  A    between atoms: C_8  and  C_9
REMARK    5  A    between atoms: C_13  and  N_14
REMARK    6  A    between atoms: C_19  and  C_20
REMARK    7  A    between atoms: C_20  and  N_21
REMARK    8  A    between atoms: C_24  and  C_25
REMARK    9  A    between atoms: C_33  and  C_34
REMARK                            x       y       z     vdW  Elec       q    Type
REMARK                         _______ _______ _______ _____ _____    ______ ____
ROOT
ATOM      1  N   UNL     1       1.168   8.599  20.268  0.00  0.00    +0.000 N 
ATOM      2  C   UNL     1       1.334   7.230  20.689  0.00  0.00    +0.000 C 
ATOM      3  C   UNL     1       2.063   6.582  19.584  0.00  0.00    +0.000 A 
ATOM      4  C   UNL     1       2.478   7.540  18.658  0.00  0.00    +0.000 A 
ATOM      5  C   UNL     1       3.380   7.188  17.658  0.00  0.00    +0.000 A 
ATOM      6  C   UNL     1       3.860   5.854  17.623  0.00  0.00    +0.000 A 
ATOM      7  C   UNL     1       3.314   4.897  18.512  0.00  0.00    +0.000 A 
ATOM      8  C   UNL     1       2.389   5.239  19.492  0.00  0.00    +0.000 A 
ATOM      9  C   UNL     1       1.783   8.828  19.020  0.00  0.00    +0.000 C 
ATOM     10  O   UNL     1       1.786   9.826  18.330  0.00  0.00    +0.000 OA
ENDROOT
BRANCH   1  15
ATOM     11  C   UNL     1      -1.124  11.460  21.004  0.00  0.00    +0.000 A 
ATOM     12  C   UNL     1      -1.167  11.373  22.401  0.00  0.00    +0.000 A 
ATOM     13  C   UNL     1      -0.550  10.314  23.095  0.00  0.00    +0.000 A 
ATOM     14  C   UNL     1       0.162   9.311  22.417  0.00  0.00    +0.000 A 
ATOM     15  C   UNL     1       0.275   9.387  21.037  0.00  0.00    +0.000 A 
ATOM     16  C   UNL     1      -0.420  10.424  20.370  0.00  0.00    +0.000 A 
BRANCH  11  17
ATOM     17  C   UNL     1      -1.763  12.663  20.126  0.00  0.00    +0.000 C 
ATOM     18  C   UNL     1      -0.828  13.347  19.075  0.00  0.00    +0.000 C 
ATOM     19  O   UNL     1      -0.928  14.627  19.730  0.00  0.00    +0.000 OA
ATOM     20  C   UNL     1      -1.765  14.079  20.765  0.00  0.00    +0.000 C 
BRANCH  17  21
ATOM     21  C   UNL     1      -3.168  12.290  19.613  0.00  0.00    +0.000 C 
BRANCH  21  27
ATOM     22  C   UNL     1      -5.722  11.490  17.926  0.00  0.00    +0.000 C 
ATOM     23  N   UNL     1      -4.346  11.427  17.512  0.00  0.00    +0.000 N 
ATOM     24  C   UNL     1      -3.921  11.087  16.263  0.00  0.00    +0.000 A 
ATOM     25  N   UNL     1      -2.611  11.078  16.233  0.00  0.00    +0.000 NA
ATOM     26  N   UNL     1      -2.165  11.457  17.477  0.00  0.00    +0.000 NA
ATOM     27  C   UNL     1      -3.214  11.699  18.241  0.00  0.00    +0.000 A 
ENDBRANCH  21  27
ENDBRANCH  17  21
ENDBRANCH  11  17
ENDBRANCH   1  15
BRANCH   8  28
ATOM     28  C   UNL     1       1.756   4.185  20.361  0.00  0.00    +0.000 C 
ATOM     29  F   UNL     1       2.055   2.909  19.999  0.00  0.00    +0.000 F 
ATOM     30  F   UNL     1       2.147   4.297  21.662  0.00  0.00    +0.000 F 
ATOM     31  F   UNL     1       0.394   4.258  20.366  0.00  0.00    +0.000 F 
ENDBRANCH   8  28
BRANCH   6  32
ATOM     32  C   UNL     1       4.905   5.354  16.640  0.00  0.00    +0.000 C 
BRANCH  32  33
ATOM     33  N   UNL     1       6.163   4.800  17.154  0.00  0.00    +0.000 NA
ATOM     34  C   UNL     1       6.238   4.376  18.545  0.00  0.00    +0.000 C 
ATOM     35  C   UNL     1       6.948   5.499  19.286  0.00  0.00    +0.000 C 
ATOM     36  C   UNL     1       7.872   6.146  18.245  0.00  0.00    +0.000 C 
ATOM     37  C   UNL     1       7.346   5.614  16.894  0.00  0.00    +0.000 C 
BRANCH  36  38
ATOM     38  C   UNL     1       8.009   7.659  18.244  0.00  0.00    +0.000 A 
ATOM     39  C   UNL     1       7.332   8.498  17.350  0.00  0.00    +0.000 A 
ATOM     40  C   UNL     1       7.594   9.869  17.315  0.00  0.00    +0.000 A 
ATOM     41  C   UNL     1       8.512  10.432  18.196  0.00  0.00    +0.000 A 
ATOM     42  C   UNL     1       9.139   9.630  19.143  0.00  0.00    +0.000 A 
ATOM     43  C   UNL     1       8.880   8.259  19.176  0.00  0.00    +0.000 A 
ENDBRANCH  36  38
ENDBRANCH  32  33
ENDBRANCH   6  32
TORSDOF 8
ENDMDL
MODEL 8
REMARK VINA RESULT:      -9.1      2.358      3.553
REMARK  Name = 
REMARK  9 active torsions:
REMARK  status: ('A' for Active; 'I' for Inactive)
REMARK    1  A    between atoms: C_1  and  N_2
REMARK    2  A    between atoms: C_6  and  C_7
REMARK    3  A    between atoms: C_7  and  C_8
REMARK    4  A    between atoms: C_8  and  C_9
REMARK    5  A    between atoms: C_13  and  N_14
REMARK    6  A    between atoms: C_19  and  C_20
REMARK    7  A    between atoms: C_20  and  N_21
REMARK    8  A    between atoms: C_24  and  C_25
REMARK    9  A    between atoms: C_33  and  C_34
REMARK                            x       y       z     vdW  Elec       q    Type
REMARK                         _______ _______ _______ _____ _____    ______ ____
ROOT
ATOM      1  N   UNL     1       2.518   5.607  19.498  0.00  0.00    +0.000 N 
ATOM      2  C   UNL     1       2.650   6.899  18.872  0.00  0.00    +0.000 C 
ATOM      3  C   UNL     1       1.752   7.782  19.637  0.00  0.00    +0.000 A 
ATOM      4  C   UNL     1       1.271   7.113  20.764  0.00  0.00    +0.000 A 
ATOM      5  C   UNL     1       0.596   7.824  21.752  0.00  0.00    +0.000 A 
ATOM      6  C   UNL     1       0.430   9.222  21.582  0.00  0.00    +0.000 A 
ATOM      7  C   UNL     1       0.831   9.826  20.366  0.00  0.00    +0.000 A 
ATOM      8  C   UNL     1       1.479   9.111  19.363  0.00  0.00    +0.000 A 
ATOM      9  C   UNL     1       1.649   5.662  20.606  0.00  0.00    +0.000 C 
ATOM     10  O   UNL     1       1.248   4.768  21.322  0.00  0.00    +0.000 OA
ENDROOT
BRANCH   1  15
ATOM     11  C   UNL     1       4.723   3.887  17.014  0.00  0.00    +0.000 A 
ATOM     12  C   UNL     1       4.087   2.640  16.960  0.00  0.00    +0.000 A 
ATOM     13  C   UNL     1       3.017   2.318  17.817  0.00  0.00    +0.000 A 
ATOM     14  C   UNL     1       2.520   3.245  18.748  0.00  0.00    +0.000 A 
ATOM     15  C   UNL     1       3.085   4.510  18.799  0.00  0.00    +0.000 A 
ATOM     16  C   UNL     1       4.205   4.772  17.974  0.00  0.00    +0.000 A 
BRANCH  11  17
ATOM     17  C   UNL     1       5.927   4.362  16.040  0.00  0.00    +0.000 C 
ATOM     18  C   UNL     1       5.595   5.480  14.997  0.00  0.00    +0.000 C 
ATOM     19  O   UNL     1       5.890   4.613  13.883  0.00  0.00    +0.000 OA
ATOM     20  C   UNL     1       6.179   3.511  14.763  0.00  0.00    +0.000 C 
BRANCH  17  21
ATOM     21  C   UNL     1       7.234   4.567  16.830  0.00  0.00    +0.000 C 
BRANCH  21  27
ATOM     22  C   UNL     1       7.826   5.512  19.791  0.00  0.00    +0.000 C 
ATOM     23  N   UNL     1       7.799   6.323  18.603  0.00  0.00    +0.000 N 
ATOM     24  C   UNL     1       8.121   7.646  18.553  0.00  0.00    +0.000 A 
ATOM     25  N   UNL     1       7.944   8.094  17.334  0.00  0.00    +0.000 NA
ATOM     26  N   UNL     1       7.536   7.036  16.558  0.00  0.00    +0.000 NA
ATOM     27  C   UNL     1       7.478   5.958  17.318  0.00  0.00    +0.000 A 
ENDBRANCH  21  27
ENDBRANCH  17  21
ENDBRANCH  11  17
ENDBRANCH   1  15
BRANCH   8  28
ATOM     28  C   UNL     1       1.810   9.756  18.044  0.00  0.00    +0.000 C 
ATOM     29  F   UNL     1       1.094   9.275  16.992  0.00  0.00    +0.000 F 
ATOM     30  F   UNL     1       1.576  11.099  18.061  0.00  0.00    +0.000 F 
ATOM     31  F   UNL     1       3.121   9.603  17.700  0.00  0.00    +0.000 F 
ENDBRANCH   8  28
BRANCH   6  32
ATOM     32  C   UNL     1      -0.214  10.132  22.615  0.00  0.00    +0.000 C 
BRANCH  32  33
ATOM     33  N   UNL     1      -0.279  11.574  22.355  0.00  0.00    +0.000 NA
ATOM     34  C   UNL     1      -1.287  12.375  23.035  0.00  0.00    +0.000 C 
ATOM     35  C   UNL     1      -2.400  12.594  22.022  0.00  0.00    +0.000 C 
ATOM     36  C   UNL     1      -1.709  12.564  20.652  0.00  0.00    +0.000 C 
ATOM     37  C   UNL     1      -0.325  11.944  20.944  0.00  0.00    +0.000 C 
BRANCH  36  38
ATOM     38  C   UNL     1      -2.413  11.864  19.503  0.00  0.00    +0.000 A 
ATOM     39  C   UNL     1      -3.764  12.058  19.188  0.00  0.00    +0.000 A 
ATOM     40  C   UNL     1      -4.386  11.292  18.199  0.00  0.00    +0.000 A 
ATOM     41  C   UNL     1      -3.662  10.343  17.485  0.00  0.00    +0.000 A 
ATOM     42  C   UNL     1      -2.302  10.187  17.729  0.00  0.00    +0.000 A 
ATOM     43  C   UNL     1      -1.681  10.950  18.719  0.00  0.00    +0.000 A 
ENDBRANCH  36  38
ENDBRANCH  32  33
ENDBRANCH   6  32
TORSDOF 8
ENDMDL
MODEL 9
REMARK VINA RESULT:      -9.1      2.911     10.856
REMARK  Name = 
REMARK  9 active torsions:
REMARK  status: ('A' for Active; 'I' for Inactive)
REMARK    1  A    between atoms: C_1  and  N_2
REMARK    2  A    between atoms: C_6  and  C_7
REMARK    3  A    between atoms: C_7  and  C_8
REMARK    4  A    between atoms: C_8  and  C_9
REMARK    5  A    between atoms: C_13  and  N_14
REMARK    6  A    between atoms: C_19  and  C_20
REMARK    7  A    between atoms: C_20  and  N_21
REMARK    8  A    between atoms: C_24  and  C_25
REMARK    9  A    between atoms: C_33  and  C_34
REMARK                            x       y       z     vdW  Elec       q    Type
REMARK                         _______ _______ _______ _____ _____    ______ ____
ROOT
ATOM      1  N   UNL     1       1.584   7.943  20.131  0.00  0.00    +0.000 N 
ATOM      2  C   UNL     1       1.654   6.651  20.767  0.00  0.00    +0.000 C 
ATOM      3  C   UNL     1       2.302   5.777  19.774  0.00  0.00    +0.000 A 
ATOM      4  C   UNL     1       2.767   6.536  18.699  0.00  0.00    +0.000 A 
ATOM      5  C   UNL     1       3.613   5.956  17.759  0.00  0.00    +0.000 A 
ATOM      6  C   UNL     1       3.988   4.599  17.936  0.00  0.00    +0.000 A 
ATOM      7  C   UNL     1       3.392   3.845  18.975  0.00  0.00    +0.000 A 
ATOM      8  C   UNL     1       2.521   4.415  19.898  0.00  0.00    +0.000 A 
ATOM      9  C   UNL     1       2.183   7.917  18.855  0.00  0.00    +0.000 C 
ATOM     10  O   UNL     1       2.247   8.787  18.011  0.00  0.00    +0.000 OA
ENDROOT
BRANCH   1  15
ATOM     11  C   UNL     1       0.448  11.375  21.089  0.00  0.00    +0.000 A 
ATOM     12  C   UNL     1      -0.340  11.058  22.204  0.00  0.00    +0.000 A 
ATOM     13  C   UNL     1      -0.599   9.723  22.571  0.00  0.00    +0.000 A 
ATOM     14  C   UNL     1      -0.054   8.647  21.850  0.00  0.00    +0.000 A 
ATOM     15  C   UNL     1       0.775   8.915  20.772  0.00  0.00    +0.000 A 
ATOM     16  C   UNL     1       0.952  10.266  20.389  0.00  0.00    +0.000 A 
BRANCH  11  17
ATOM     17  C   UNL     1       0.837  12.875  20.620  0.00  0.00    +0.000 C 
ATOM     18  C   UNL     1       2.360  13.222  20.546  0.00  0.00    +0.000 C 
ATOM     19  O   UNL     1       2.236  14.253  21.547  0.00  0.00    +0.000 OA
ATOM     20  C   UNL     1       0.832  13.980  21.713  0.00  0.00    +0.000 C 
BRANCH  17  21
ATOM     21  C   UNL     1       0.003  13.309  19.398  0.00  0.00    +0.000 C 
BRANCH  21  27
ATOM     22  C   UNL     1      -1.734  11.252  17.737  0.00  0.00    +0.000 C 
ATOM     23  N   UNL     1      -2.175  12.103  18.809  0.00  0.00    +0.000 N 
ATOM     24  C   UNL     1      -3.426  12.093  19.351  0.00  0.00    +0.000 A 
ATOM     25  N   UNL     1      -3.513  13.022  20.270  0.00  0.00    +0.000 NA
ATOM     26  N   UNL     1      -2.284  13.631  20.362  0.00  0.00    +0.000 NA
ATOM     27  C   UNL     1      -1.466  13.055  19.501  0.00  0.00    +0.000 A 
ENDBRANCH  21  27
ENDBRANCH  17  21
ENDBRANCH  11  17
ENDBRANCH   1  15
BRANCH   8  28
ATOM     28  C   UNL     1       1.829   3.570  20.935  0.00  0.00    +0.000 C 
ATOM     29  F   UNL     1       2.038   2.233  20.797  0.00  0.00    +0.000 F 
ATOM     30  F   UNL     1       2.242   3.875  22.197  0.00  0.00    +0.000 F 
ATOM     31  F   UNL     1       0.475   3.734  20.928  0.00  0.00    +0.000 F 
ENDBRANCH   8  28
BRANCH   6  32
ATOM     32  C   UNL     1       4.966   3.864  17.035  0.00  0.00    +0.000 C 
BRANCH  32  33
ATOM     33  N   UNL     1       6.107   4.593  16.473  0.00  0.00    +0.000 NA
ATOM     34  C   UNL     1       5.920   5.963  16.015  0.00  0.00    +0.000 C 
ATOM     35  C   UNL     1       5.797   5.883  14.501  0.00  0.00    +0.000 C 
ATOM     36  C   UNL     1       6.618   4.652  14.093  0.00  0.00    +0.000 C 
ATOM     37  C   UNL     1       6.830   3.888  15.419  0.00  0.00    +0.000 C 
BRANCH  36  38
ATOM     38  C   UNL     1       6.072   3.750  13.000  0.00  0.00    +0.000 A 
ATOM     39  C   UNL     1       6.836   2.772  12.349  0.00  0.00    +0.000 A 
ATOM     40  C   UNL     1       6.315   2.059  11.267  0.00  0.00    +0.000 A 
ATOM     41  C   UNL     1       5.012   2.286  10.837  0.00  0.00    +0.000 A 
ATOM     42  C   UNL     1       4.211   3.198  11.517  0.00  0.00    +0.000 A 
ATOM     43  C   UNL     1       4.732   3.913  12.596  0.00  0.00    +0.000 A 
ENDBRANCH  36  38
ENDBRANCH  32  33
ENDBRANCH   6  32
TORSDOF 8
ENDMDL
