MODEL 1
REMARK VINA RESULT:      -8.6      0.000      0.000
REMARK  Name = 
REMARK  10 active torsions:
REMARK  status: ('A' for Active; 'I' for Inactive)
REMARK    1  A    between atoms: C_1  and  C_2
REMARK    2  A    between atoms: C_2  and  S_3
REMARK    3  A    between atoms: C_2  and  C_10
REMARK    4  A    between atoms: S_3  and  C_4
REMARK    5  A    between atoms: N_8  and  C_9
REMARK    6  A    between atoms: C_14  and  N_15
REMARK    7  A    between atoms: C_20  and  C_21
REMARK    8  A    between atoms: N_24  and  C_25
REMARK    9  A    between atoms: C_27  and  C_28
REMARK   10  A    between atoms: C_27  and  C_29
REMARK                            x       y       z     vdW  Elec       q    Type
REMARK                         _______ _______ _______ _____ _____    ______ ____
ROOT
ATOM      1  N   UNL     1       0.829   9.220  19.137  0.00  0.00    +0.000 N 
ATOM      2  C   UNL     1       1.833   8.911  18.244  0.00  0.00    +0.000 C 
ATOM      3  O   UNL     1       2.079   9.543  17.218  0.00  0.00    +0.000 OA
ATOM      4  N   UNL     1       2.604   7.818  18.580  0.00  0.00    +0.000 N 
ATOM      5  C   UNL     1       3.716   7.468  17.711  0.00  0.00    +0.000 C 
ATOM      6  C   UNL     1       4.230   6.113  18.204  0.00  0.00    +0.000 C 
ATOM      7  C   UNL     1       2.973   5.484  18.878  0.00  0.00    +0.000 C 
ATOM      8  C   UNL     1       2.016   4.805  17.880  0.00  0.00    +0.000 C 
ATOM      9  C   UNL     1       3.357   4.470  19.961  0.00  0.00    +0.000 C 
ATOM     10  C   UNL     1       2.282   6.728  19.490  0.00  0.00    +0.000 C 
ATOM     11  H   UNL     1       0.981   8.910  20.083  0.00  0.00    +0.000 HD
ENDROOT
BRANCH   1  16
ATOM     12  C   UNL     1      -2.322  10.869  17.971  0.00  0.00    +0.000 A 
ATOM     13  C   UNL     1      -2.161  12.143  18.540  0.00  0.00    +0.000 A 
ATOM     14  C   UNL     1      -1.009  12.469  19.249  0.00  0.00    +0.000 A 
ATOM     15  C   UNL     1      -0.008  11.518  19.433  0.00  0.00    +0.000 A 
ATOM     16  C   UNL     1      -0.151  10.222  18.931  0.00  0.00    +0.000 A 
ATOM     17  C   UNL     1      -1.296   9.915  18.179  0.00  0.00    +0.000 A 
BRANCH  12  19
ATOM     18  C   UNL     1      -3.250  10.075  15.676  0.00  0.00    +0.000 C 
ATOM     19  C   UNL     1      -3.535  10.525  17.117  0.00  0.00    +0.000 C 
BRANCH  19  20
ATOM     20  S   UNL     1      -4.860  11.783  17.170  0.00  0.00    +0.000 S 
BRANCH  20  21
ATOM     21  C   UNL     1      -5.843  11.313  18.507  0.00  0.00    +0.000 A 
ATOM     22  N   UNL     1      -6.554  10.217  18.646  0.00  0.00    +0.000 NA
ATOM     23  N   UNL     1      -7.137  10.250  19.896  0.00  0.00    +0.000 NA
ATOM     24  C   UNL     1      -6.758  11.362  20.482  0.00  0.00    +0.000 A 
ATOM     25  N   UNL     1      -5.932  12.056  19.650  0.00  0.00    +0.000 N 
ATOM     26  C   UNL     1      -5.293  13.310  19.945  0.00  0.00    +0.000 C 
ENDBRANCH  20  21
ENDBRANCH  19  20
ENDBRANCH  12  19
ENDBRANCH   1  16
BRANCH   6  27
ATOM     27  C   UNL     1       4.871   5.280  17.137  0.00  0.00    +0.000 A 
ATOM     28  C   UNL     1       5.324   3.942  17.233  0.00  0.00    +0.000 A 
ATOM     29  N   UNL     1       5.784   3.466  16.072  0.00  0.00    +0.000 NA
ATOM     30  N   UNL     1       5.631   4.496  15.225  0.00  0.00    +0.000 N 
ATOM     31  C   UNL     1       5.899   4.341  13.817  0.00  0.00    +0.000 C 
ATOM     32  C   UNL     1       5.138   5.616  15.824  0.00  0.00    +0.000 A 
ENDBRANCH   6  27
TORSDOF 5
ENDMDL
MODEL 2
REMARK VINA RESULT:      -8.1      3.911     10.528
REMARK  Name = 
REMARK  10 active torsions:
REMARK  status: ('A' for Active; 'I' for Inactive)
REMARK    1  A    between atoms: C_1  and  C_2
REMARK    2  A    between atoms: C_2  and  S_3
REMARK    3  A    between atoms: C_2  and  C_10
REMARK    4  A    between atoms: S_3  and  C_4
REMARK    5  A    between atoms: N_8  and  C_9
REMARK    6  A    between atoms: C_14  and  N_15
REMARK    7  A    between atoms: C_20  and  C_21
REMARK    8  A    between atoms: N_24  and  C_25
REMARK    9  A    between atoms: C_27  and  C_28
REMARK   10  A    between atoms: C_27  and  C_29
REMARK                            x       y       z     vdW  Elec       q    Type
REMARK                         _______ _______ _______ _____ _____    ______ ____
ROOT
ATOM      1  N   UNL     1       2.278   7.852  18.376  0.00  0.00    +0.000 N 
ATOM      2  C   UNL     1       1.816   8.230  19.618  0.00  0.00    +0.000 C 
ATOM      3  O   UNL     1       1.765   7.494  20.602  0.00  0.00    +0.000 OA
ATOM      4  N   UNL     1       1.412   9.545  19.721  0.00  0.00    +0.000 N 
ATOM      5  C   UNL     1       0.964  10.026  21.018  0.00  0.00    +0.000 C 
ATOM      6  C   UNL     1       0.379  11.420  20.774  0.00  0.00    +0.000 C 
ATOM      7  C   UNL     1      -0.070  11.356  19.282  0.00  0.00    +0.000 C 
ATOM      8  C   UNL     1      -1.448  10.697  19.083  0.00  0.00    +0.000 C 
ATOM      9  C   UNL     1      -0.090  12.747  18.637  0.00  0.00    +0.000 C 
ATOM     10  C   UNL     1       1.027  10.460  18.656  0.00  0.00    +0.000 C 
ATOM     11  H   UNL     1       2.642   8.597  17.804  0.00  0.00    +0.000 HD
ENDROOT
BRANCH   1  16
ATOM     12  C   UNL     1       4.231   4.998  16.945  0.00  0.00    +0.000 A 
ATOM     13  C   UNL     1       3.414   3.922  17.327  0.00  0.00    +0.000 A 
ATOM     14  C   UNL     1       2.214   4.138  17.996  0.00  0.00    +0.000 A 
ATOM     15  C   UNL     1       1.821   5.431  18.328  0.00  0.00    +0.000 A 
ATOM     16  C   UNL     1       2.629   6.527  18.016  0.00  0.00    +0.000 A 
ATOM     17  C   UNL     1       3.817   6.304  17.301  0.00  0.00    +0.000 A 
BRANCH  12  19
ATOM     18  C   UNL     1       5.429   3.737  15.013  0.00  0.00    +0.000 C 
ATOM     19  C   UNL     1       5.502   4.785  16.133  0.00  0.00    +0.000 C 
BRANCH  19  20
ATOM     20  S   UNL     1       7.004   4.568  17.150  0.00  0.00    +0.000 S 
BRANCH  20  21
ATOM     21  C   UNL     1       7.518   6.175  17.506  0.00  0.00    +0.000 A 
ATOM     22  N   UNL     1       7.466   7.234  16.730  0.00  0.00    +0.000 NA
ATOM     23  N   UNL     1       7.942   8.308  17.454  0.00  0.00    +0.000 NA
ATOM     24  C   UNL     1       8.263   7.871  18.649  0.00  0.00    +0.000 A 
ATOM     25  N   UNL     1       8.000   6.537  18.732  0.00  0.00    +0.000 N 
ATOM     26  C   UNL     1       8.195   5.706  19.889  0.00  0.00    +0.000 C 
ENDBRANCH  20  21
ENDBRANCH  19  20
ENDBRANCH  12  19
ENDBRANCH   1  16
BRANCH   6  27
ATOM     27  C   UNL     1      -0.688  11.811  21.750  0.00  0.00    +0.000 A 
ATOM     28  C   UNL     1      -1.364  10.982  22.678  0.00  0.00    +0.000 A 
ATOM     29  N   UNL     1      -2.212  11.660  23.457  0.00  0.00    +0.000 NA
ATOM     30  N   UNL     1      -2.088  12.928  23.032  0.00  0.00    +0.000 N 
ATOM     31  C   UNL     1      -2.757  14.006  23.716  0.00  0.00    +0.000 C 
ATOM     32  C   UNL     1      -1.228  13.062  21.982  0.00  0.00    +0.000 A 
ENDBRANCH   6  27
TORSDOF 5
ENDMDL
MODEL 3
REMARK VINA RESULT:      -8.1      2.571      3.317
REMARK  Name = 
REMARK  10 active torsions:
REMARK  status: ('A' for Active; 'I' for Inactive)
REMARK    1  A    between atoms: C_1  and  C_2
REMARK    2  A    between atoms: C_2  and  S_3
REMARK    3  A    between atoms: C_2  and  C_10
REMARK    4  A    between atoms: S_3  and  C_4
REMARK    5  A    between atoms: N_8  and  C_9
REMARK    6  A    between atoms: C_14  and  N_15
REMARK    7  A    between atoms: C_20  and  C_21
REMARK    8  A    between atoms: N_24  and  C_25
REMARK    9  A    between atoms: C_27  and  C_28
REMARK   10  A    between atoms: C_27  and  C_29
REMARK                            x       y       z     vdW  Elec       q    Type
REMARK                         _______ _______ _______ _____ _____    ______ ____
ROOT
ATOM      1  N   UNL     1       0.770   9.165  19.167  0.00  0.00    +0.000 N 
ATOM      2  C   UNL     1       1.784   8.875  18.280  0.00  0.00    +0.000 C 
ATOM      3  O   UNL     1       2.032   9.520  17.263  0.00  0.00    +0.000 OA
ATOM      4  N   UNL     1       2.564   7.787  18.612  0.00  0.00    +0.000 N 
ATOM      5  C   UNL     1       3.687   7.458  17.748  0.00  0.00    +0.000 C 
ATOM      6  C   UNL     1       4.212   6.104  18.233  0.00  0.00    +0.000 C 
ATOM      7  C   UNL     1       2.956   5.455  18.890  0.00  0.00    +0.000 C 
ATOM      8  C   UNL     1       2.015   4.775  17.877  0.00  0.00    +0.000 C 
ATOM      9  C   UNL     1       3.343   4.434  19.966  0.00  0.00    +0.000 C 
ATOM     10  C   UNL     1       2.247   6.685  19.509  0.00  0.00    +0.000 C 
ATOM     11  H   UNL     1       0.917   8.846  20.111  0.00  0.00    +0.000 HD
ENDROOT
BRANCH   1  16
ATOM     12  C   UNL     1      -1.216  12.299  19.652  0.00  0.00    +0.000 A 
ATOM     13  C   UNL     1      -2.114  12.193  18.578  0.00  0.00    +0.000 A 
ATOM     14  C   UNL     1      -2.100  11.081  17.741  0.00  0.00    +0.000 A 
ATOM     15  C   UNL     1      -1.167  10.068  17.940  0.00  0.00    +0.000 A 
ATOM     16  C   UNL     1      -0.220  10.158  18.963  0.00  0.00    +0.000 A 
ATOM     17  C   UNL     1      -0.270  11.262  19.830  0.00  0.00    +0.000 A 
BRANCH  12  19
ATOM     18  C   UNL     1      -0.653  14.787  20.158  0.00  0.00    +0.000 C 
ATOM     19  C   UNL     1      -1.278  13.466  20.630  0.00  0.00    +0.000 C 
BRANCH  19  20
ATOM     20  S   UNL     1      -0.737  13.042  22.323  0.00  0.00    +0.000 S 
BRANCH  20  21
ATOM     21  C   UNL     1      -2.205  12.862  23.210  0.00  0.00    +0.000 A 
ATOM     22  N   UNL     1      -2.941  11.783  23.350  0.00  0.00    +0.000 NA
ATOM     23  N   UNL     1      -3.994  12.097  24.184  0.00  0.00    +0.000 NA
ATOM     24  C   UNL     1      -3.863  13.357  24.531  0.00  0.00    +0.000 A 
ATOM     25  N   UNL     1      -2.744  13.875  23.952  0.00  0.00    +0.000 N 
ATOM     26  C   UNL     1      -2.251  15.215  24.113  0.00  0.00    +0.000 C 
ENDBRANCH  20  21
ENDBRANCH  19  20
ENDBRANCH  12  19
ENDBRANCH   1  16
BRANCH   6  27
ATOM     27  C   UNL     1       4.871   5.289  17.163  0.00  0.00    +0.000 A 
ATOM     28  C   UNL     1       5.323   3.949  17.244  0.00  0.00    +0.000 A 
ATOM     29  N   UNL     1       5.802   3.492  16.084  0.00  0.00    +0.000 NA
ATOM     30  N   UNL     1       5.664   4.537  15.251  0.00  0.00    +0.000 N 
ATOM     31  C   UNL     1       5.955   4.405  13.845  0.00  0.00    +0.000 C 
ATOM     32  C   UNL     1       5.160   5.647  15.860  0.00  0.00    +0.000 A 
ENDBRANCH   6  27
TORSDOF 5
ENDMDL
MODEL 4
REMARK VINA RESULT:      -8.1      1.954      2.718
REMARK  Name = 
REMARK  10 active torsions:
REMARK  status: ('A' for Active; 'I' for Inactive)
REMARK    1  A    between atoms: C_1  and  C_2
REMARK    2  A    between atoms: C_2  and  S_3
REMARK    3  A    between atoms: C_2  and  C_10
REMARK    4  A    between atoms: S_3  and  C_4
REMARK    5  A    between atoms: N_8  and  C_9
REMARK    6  A    between atoms: C_14  and  N_15
REMARK    7  A    between atoms: C_20  and  C_21
REMARK    8  A    between atoms: N_24  and  C_25
REMARK    9  A    between atoms: C_27  and  C_28
REMARK   10  A    between atoms: C_27  and  C_29
REMARK                            x       y       z     vdW  Elec       q    Type
REMARK                         _______ _______ _______ _____ _____    ______ ____
ROOT
ATOM      1  N   UNL     1       0.808   9.096  19.358  0.00  0.00    +0.000 N 
ATOM      2  C   UNL     1       1.788   8.839  18.424  0.00  0.00    +0.000 C 
ATOM      3  O   UNL     1       1.991   9.514  17.416  0.00  0.00    +0.000 OA
ATOM      4  N   UNL     1       2.586   7.747  18.692  0.00  0.00    +0.000 N 
ATOM      5  C   UNL     1       3.676   7.450  17.775  0.00  0.00    +0.000 C 
ATOM      6  C   UNL     1       4.226   6.086  18.199  0.00  0.00    +0.000 C 
ATOM      7  C   UNL     1       3.002   5.410  18.886  0.00  0.00    +0.000 C 
ATOM      8  C   UNL     1       2.024   4.754  17.892  0.00  0.00    +0.000 C 
ATOM      9  C   UNL     1       3.437   4.361  19.915  0.00  0.00    +0.000 C 
ATOM     10  C   UNL     1       2.311   6.617  19.568  0.00  0.00    +0.000 C 
ATOM     11  H   UNL     1       0.995   8.751  20.286  0.00  0.00    +0.000 HD
ENDROOT
BRANCH   1  16
ATOM     12  C   UNL     1      -1.442  11.958  20.221  0.00  0.00    +0.000 A 
ATOM     13  C   UNL     1      -2.122  12.116  19.003  0.00  0.00    +0.000 A 
ATOM     14  C   UNL     1      -1.881  11.259  17.934  0.00  0.00    +0.000 A 
ATOM     15  C   UNL     1      -0.932  10.247  18.048  0.00  0.00    +0.000 A 
ATOM     16  C   UNL     1      -0.194  10.088  19.224  0.00  0.00    +0.000 A 
ATOM     17  C   UNL     1      -0.475  10.929  20.313  0.00  0.00    +0.000 A 
BRANCH  12  19
ATOM     18  C   UNL     1      -1.925  12.104  22.772  0.00  0.00    +0.000 C 
ATOM     19  C   UNL     1      -1.759  12.831  21.430  0.00  0.00    +0.000 C 
BRANCH  19  20
ATOM     20  S   UNL     1      -3.115  14.023  21.148  0.00  0.00    +0.000 S 
BRANCH  20  21
ATOM     21  C   UNL     1      -4.445  13.379  22.035  0.00  0.00    +0.000 A 
ATOM     22  N   UNL     1      -5.234  12.382  21.705  0.00  0.00    +0.000 NA
ATOM     23  N   UNL     1      -6.124  12.189  22.742  0.00  0.00    +0.000 NA
ATOM     24  C   UNL     1      -5.846  13.072  23.673  0.00  0.00    +0.000 A 
ATOM     25  N   UNL     1      -4.787  13.832  23.278  0.00  0.00    +0.000 N 
ATOM     26  C   UNL     1      -4.172  14.887  24.038  0.00  0.00    +0.000 C 
ENDBRANCH  20  21
ENDBRANCH  19  20
ENDBRANCH  12  19
ENDBRANCH   1  16
BRANCH   6  27
ATOM     27  C   UNL     1       4.847   5.307  17.079  0.00  0.00    +0.000 A 
ATOM     28  C   UNL     1       5.256   3.951  17.086  0.00  0.00    +0.000 A 
ATOM     29  N   UNL     1       5.706   3.539  15.898  0.00  0.00    +0.000 NA
ATOM     30  N   UNL     1       5.592   4.629  15.121  0.00  0.00    +0.000 N 
ATOM     31  C   UNL     1       5.862   4.560  13.707  0.00  0.00    +0.000 C 
ATOM     32  C   UNL     1       5.131   5.722  15.793  0.00  0.00    +0.000 A 
ENDBRANCH   6  27
TORSDOF 5
ENDMDL
MODEL 5
REMARK VINA RESULT:      -8.0      3.014      4.707
REMARK  Name = 
REMARK  10 active torsions:
REMARK  status: ('A' for Active; 'I' for Inactive)
REMARK    1  A    between atoms: C_1  and  C_2
REMARK    2  A    between atoms: C_2  and  S_3
REMARK    3  A    between atoms: C_2  and  C_10
REMARK    4  A    between atoms: S_3  and  C_4
REMARK    5  A    between atoms: N_8  and  C_9
REMARK    6  A    between atoms: C_14  and  N_15
REMARK    7  A    between atoms: C_20  and  C_21
REMARK    8  A    between atoms: N_24  and  C_25
REMARK    9  A    between atoms: C_27  and  C_28
REMARK   10  A    between atoms: C_27  and  C_29
REMARK                            x       y       z     vdW  Elec       q    Type
REMARK                         _______ _______ _______ _____ _____    ______ ____
ROOT
ATOM      1  N   UNL     1       0.881   9.141  19.226  0.00  0.00    +0.000 N 
ATOM      2  C   UNL     1       1.872   8.853  18.313  0.00  0.00    +0.000 C 
ATOM      3  O   UNL     1       2.106   9.512  17.301  0.00  0.00    +0.000 OA
ATOM      4  N   UNL     1       2.644   7.750  18.609  0.00  0.00    +0.000 N 
ATOM      5  C   UNL     1       3.743   7.420  17.716  0.00  0.00    +0.000 C 
ATOM      6  C   UNL     1       4.260   6.051  18.166  0.00  0.00    +0.000 C 
ATOM      7  C   UNL     1       3.010   5.408  18.840  0.00  0.00    +0.000 C 
ATOM      8  C   UNL     1       2.038   4.758  17.837  0.00  0.00    +0.000 C 
ATOM      9  C   UNL     1       3.406   4.364  19.891  0.00  0.00    +0.000 C 
ATOM     10  C   UNL     1       2.331   6.637  19.494  0.00  0.00    +0.000 C 
ATOM     11  H   UNL     1       1.044   8.805  20.162  0.00  0.00    +0.000 HD
ENDROOT
BRANCH   1  16
ATOM     12  C   UNL     1      -1.081  12.269  19.836  0.00  0.00    +0.000 A 
ATOM     13  C   UNL     1      -1.974  12.217  18.754  0.00  0.00    +0.000 A 
ATOM     14  C   UNL     1      -1.965  11.142  17.871  0.00  0.00    +0.000 A 
ATOM     15  C   UNL     1      -1.041  10.113  18.030  0.00  0.00    +0.000 A 
ATOM     16  C   UNL     1      -0.099  10.151  19.061  0.00  0.00    +0.000 A 
ATOM     17  C   UNL     1      -0.144  11.216  19.974  0.00  0.00    +0.000 A 
BRANCH  12  19
ATOM     18  C   UNL     1      -2.528  13.748  21.410  0.00  0.00    +0.000 C 
ATOM     19  C   UNL     1      -1.138  13.393  20.864  0.00  0.00    +0.000 C 
BRANCH  19  20
ATOM     20  S   UNL     1      -0.212  14.891  20.376  0.00  0.00    +0.000 S 
BRANCH  20  21
ATOM     21  C   UNL     1       1.376  14.636  20.997  0.00  0.00    +0.000 A 
ATOM     22  N   UNL     1       1.809  14.831  22.222  0.00  0.00    +0.000 NA
ATOM     23  N   UNL     1       3.133  14.446  22.266  0.00  0.00    +0.000 NA
ATOM     24  C   UNL     1       3.463  14.022  21.068  0.00  0.00    +0.000 A 
ATOM     25  N   UNL     1       2.385  14.110  20.240  0.00  0.00    +0.000 N 
ATOM     26  C   UNL     1       2.344  13.717  18.859  0.00  0.00    +0.000 C 
ENDBRANCH  20  21
ENDBRANCH  19  20
ENDBRANCH  12  19
ENDBRANCH   1  16
BRANCH   6  27
ATOM     27  C   UNL     1       4.884   5.246  17.069  0.00  0.00    +0.000 A 
ATOM     28  C   UNL     1       5.288   3.888  17.107  0.00  0.00    +0.000 A 
ATOM     29  N   UNL     1       5.744   3.450  15.931  0.00  0.00    +0.000 NA
ATOM     30  N   UNL     1       5.641   4.523  15.131  0.00  0.00    +0.000 N 
ATOM     31  C   UNL     1       5.921   4.423  13.720  0.00  0.00    +0.000 C 
ATOM     32  C   UNL     1       5.180   5.632  15.775  0.00  0.00    +0.000 A 
ENDBRANCH   6  27
TORSDOF 5
ENDMDL
MODEL 6
REMARK VINA RESULT:      -8.0      2.640      3.436
REMARK  Name = 
REMARK  10 active torsions:
REMARK  status: ('A' for Active; 'I' for Inactive)
REMARK    1  A    between atoms: C_1  and  C_2
REMARK    2  A    between atoms: C_2  and  S_3
REMARK    3  A    between atoms: C_2  and  C_10
REMARK    4  A    between atoms: S_3  and  C_4
REMARK    5  A    between atoms: N_8  and  C_9
REMARK    6  A    between atoms: C_14  and  N_15
REMARK    7  A    between atoms: C_20  and  C_21
REMARK    8  A    between atoms: N_24  and  C_25
REMARK    9  A    between atoms: C_27  and  C_28
REMARK   10  A    between atoms: C_27  and  C_29
REMARK                            x       y       z     vdW  Elec       q    Type
REMARK                         _______ _______ _______ _____ _____    ______ ____
ROOT
ATOM      1  N   UNL     1       0.964   9.237  19.155  0.00  0.00    +0.000 N 
ATOM      2  C   UNL     1       1.942   8.902  18.244  0.00  0.00    +0.000 C 
ATOM      3  O   UNL     1       2.189   9.530  17.216  0.00  0.00    +0.000 OA
ATOM      4  N   UNL     1       2.686   7.785  18.563  0.00  0.00    +0.000 N 
ATOM      5  C   UNL     1       3.772   7.405  17.673  0.00  0.00    +0.000 C 
ATOM      6  C   UNL     1       4.253   6.033  18.153  0.00  0.00    +0.000 C 
ATOM      7  C   UNL     1       2.990   5.440  18.847  0.00  0.00    +0.000 C 
ATOM      8  C   UNL     1       1.996   4.793  17.863  0.00  0.00    +0.000 C 
ATOM      9  C   UNL     1       3.363   4.410  19.920  0.00  0.00    +0.000 C 
ATOM     10  C   UNL     1       2.348   6.702  19.475  0.00  0.00    +0.000 C 
ATOM     11  H   UNL     1       1.123   8.919  20.097  0.00  0.00    +0.000 HD
ENDROOT
BRANCH   1  16
ATOM     12  C   UNL     1      -0.688  12.585  19.418  0.00  0.00    +0.000 A 
ATOM     13  C   UNL     1      -1.806  12.376  18.594  0.00  0.00    +0.000 A 
ATOM     14  C   UNL     1      -2.039  11.136  18.007  0.00  0.00    +0.000 A 
ATOM     15  C   UNL     1      -1.143  10.089  18.203  0.00  0.00    +0.000 A 
ATOM     16  C   UNL     1       0.011  10.269  18.970  0.00  0.00    +0.000 A 
ATOM     17  C   UNL     1       0.215  11.509  19.596  0.00  0.00    +0.000 A 
BRANCH  12  19
ATOM     18  C   UNL     1       0.455  14.920  19.443  0.00  0.00    +0.000 C 
ATOM     19  C   UNL     1      -0.466  13.908  20.140  0.00  0.00    +0.000 C 
BRANCH  19  20
ATOM     20  S   UNL     1      -0.038  13.725  21.907  0.00  0.00    +0.000 S 
BRANCH  20  21
ATOM     21  C   UNL     1      -1.537  13.355  22.675  0.00  0.00    +0.000 A 
ATOM     22  N   UNL     1      -2.553  14.156  22.900  0.00  0.00    +0.000 NA
ATOM     23  N   UNL     1      -3.551  13.412  23.496  0.00  0.00    +0.000 NA
ATOM     24  C   UNL     1      -3.113  12.179  23.610  0.00  0.00    +0.000 A 
ATOM     25  N   UNL     1      -1.855  12.093  23.094  0.00  0.00    +0.000 N 
ATOM     26  C   UNL     1      -1.053  10.904  23.014  0.00  0.00    +0.000 C 
ENDBRANCH  20  21
ENDBRANCH  19  20
ENDBRANCH  12  19
ENDBRANCH   1  16
BRANCH   6  27
ATOM     27  C   UNL     1       4.851   5.186  17.072  0.00  0.00    +0.000 A 
ATOM     28  C   UNL     1       5.140   3.800  17.113  0.00  0.00    +0.000 A 
ATOM     29  N   UNL     1       5.603   3.333  15.950  0.00  0.00    +0.000 NA
ATOM     30  N   UNL     1       5.618   4.416  15.156  0.00  0.00    +0.000 N 
ATOM     31  C   UNL     1       5.942   4.302  13.756  0.00  0.00    +0.000 C 
ATOM     32  C   UNL     1       5.226   5.555  15.794  0.00  0.00    +0.000 A 
ENDBRANCH   6  27
TORSDOF 5
ENDMDL
MODEL 7
REMARK VINA RESULT:      -8.0      2.310      3.319
REMARK  Name = 
REMARK  10 active torsions:
REMARK  status: ('A' for Active; 'I' for Inactive)
REMARK    1  A    between atoms: C_1  and  C_2
REMARK    2  A    between atoms: C_2  and  S_3
REMARK    3  A    between atoms: C_2  and  C_10
REMARK    4  A    between atoms: S_3  and  C_4
REMARK    5  A    between atoms: N_8  and  C_9
REMARK    6  A    between atoms: C_14  and  N_15
REMARK    7  A    between atoms: C_20  and  C_21
REMARK    8  A    between atoms: N_24  and  C_25
REMARK    9  A    between atoms: C_27  and  C_28
REMARK   10  A    between atoms: C_27  and  C_29
REMARK                            x       y       z     vdW  Elec       q    Type
REMARK                         _______ _______ _______ _____ _____    ______ ____
ROOT
ATOM      1  N   UNL     1       0.845   9.225  18.991  0.00  0.00    +0.000 N 
ATOM      2  C   UNL     1       1.865   8.897  18.125  0.00  0.00    +0.000 C 
ATOM      3  O   UNL     1       2.136   9.512  17.095  0.00  0.00    +0.000 OA
ATOM      4  N   UNL     1       2.622   7.805  18.494  0.00  0.00    +0.000 N 
ATOM      5  C   UNL     1       3.750   7.435  17.653  0.00  0.00    +0.000 C 
ATOM      6  C   UNL     1       4.245   6.085  18.178  0.00  0.00    +0.000 C 
ATOM      7  C   UNL     1       2.971   5.474  18.834  0.00  0.00    +0.000 C 
ATOM      8  C   UNL     1       2.031   4.785  17.826  0.00  0.00    +0.000 C 
ATOM      9  C   UNL     1       3.326   4.474  19.941  0.00  0.00    +0.000 C 
ATOM     10  C   UNL     1       2.275   6.731  19.413  0.00  0.00    +0.000 C 
ATOM     11  H   UNL     1       0.974   8.928  19.945  0.00  0.00    +0.000 HD
ENDROOT
BRANCH   1  16
ATOM     12  C   UNL     1      -0.734  12.613  18.798  0.00  0.00    +0.000 A 
ATOM     13  C   UNL     1      -1.977  12.277  18.237  0.00  0.00    +0.000 A 
ATOM     14  C   UNL     1      -2.309  10.950  17.979  0.00  0.00    +0.000 A 
ATOM     15  C   UNL     1      -1.393   9.935  18.243  0.00  0.00    +0.000 A 
ATOM     16  C   UNL     1      -0.125  10.230  18.750  0.00  0.00    +0.000 A 
ATOM     17  C   UNL     1       0.185  11.566  19.050  0.00  0.00    +0.000 A 
BRANCH  12  19
ATOM     18  C   UNL     1       1.100  14.417  19.172  0.00  0.00    +0.000 C 
ATOM     19  C   UNL     1      -0.391  14.050  19.171  0.00  0.00    +0.000 C 
BRANCH  19  20
ATOM     20  S   UNL     1      -1.223  14.641  20.686  0.00  0.00    +0.000 S 
BRANCH  20  21
ATOM     21  C   UNL     1      -1.195  13.283  21.749  0.00  0.00    +0.000 A 
ATOM     22  N   UNL     1      -0.160  12.753  22.361  0.00  0.00    +0.000 NA
ATOM     23  N   UNL     1      -0.622  11.716  23.144  0.00  0.00    +0.000 NA
ATOM     24  C   UNL     1      -1.924  11.650  22.990  0.00  0.00    +0.000 A 
ATOM     25  N   UNL     1      -2.331  12.627  22.131  0.00  0.00    +0.000 N 
ATOM     26  C   UNL     1      -3.686  12.892  21.732  0.00  0.00    +0.000 C 
ENDBRANCH  20  21
ENDBRANCH  19  20
ENDBRANCH  12  19
ENDBRANCH   1  16
BRANCH   6  27
ATOM     27  C   UNL     1       4.904   5.233  17.137  0.00  0.00    +0.000 A 
ATOM     28  C   UNL     1       5.162   3.841  17.188  0.00  0.00    +0.000 A 
ATOM     29  N   UNL     1       5.700   3.372  16.060  0.00  0.00    +0.000 NA
ATOM     30  N   UNL     1       5.795   4.460  15.278  0.00  0.00    +0.000 N 
ATOM     31  C   UNL     1       6.219   4.348  13.904  0.00  0.00    +0.000 C 
ATOM     32  C   UNL     1       5.380   5.602  15.893  0.00  0.00    +0.000 A 
ENDBRANCH   6  27
TORSDOF 5
ENDMDL
MODEL 8
REMARK VINA RESULT:      -8.0      0.604      1.101
REMARK  Name = 
REMARK  10 active torsions:
REMARK  status: ('A' for Active; 'I' for Inactive)
REMARK    1  A    between atoms: C_1  and  C_2
REMARK    2  A    between atoms: C_2  and  S_3
REMARK    3  A    between atoms: C_2  and  C_10
REMARK    4  A    between atoms: S_3  and  C_4
REMARK    5  A    between atoms: N_8  and  C_9
REMARK    6  A    between atoms: C_14  and  N_15
REMARK    7  A    between atoms: C_20  and  C_21
REMARK    8  A    between atoms: N_24  and  C_25
REMARK    9  A    between atoms: C_27  and  C_28
REMARK   10  A    between atoms: C_27  and  C_29
REMARK                            x       y       z     vdW  Elec       q    Type
REMARK                         _______ _______ _______ _____ _____    ______ ____
ROOT
ATOM      1  N   UNL     1       0.952   9.236  19.161  0.00  0.00    +0.000 N 
ATOM      2  C   UNL     1       1.943   8.900  18.263  0.00  0.00    +0.000 C 
ATOM      3  O   UNL     1       2.214   9.536  17.247  0.00  0.00    +0.000 OA
ATOM      4  N   UNL     1       2.668   7.771  18.582  0.00  0.00    +0.000 N 
ATOM      5  C   UNL     1       3.765   7.389  17.707  0.00  0.00    +0.000 C 
ATOM      6  C   UNL     1       4.223   6.007  18.180  0.00  0.00    +0.000 C 
ATOM      7  C   UNL     1       2.941   5.420  18.845  0.00  0.00    +0.000 C 
ATOM      8  C   UNL     1       1.957   4.795  17.837  0.00  0.00    +0.000 C 
ATOM      9  C   UNL     1       3.284   4.374  19.912  0.00  0.00    +0.000 C 
ATOM     10  C   UNL     1       2.302   6.682  19.476  0.00  0.00    +0.000 C 
ATOM     11  H   UNL     1       1.091   8.905  20.102  0.00  0.00    +0.000 HD
ENDROOT
BRANCH   1  16
ATOM     12  C   UNL     1      -2.220  10.983  18.218  0.00  0.00    +0.000 A 
ATOM     13  C   UNL     1      -1.915  12.291  18.626  0.00  0.00    +0.000 A 
ATOM     14  C   UNL     1      -0.664  12.602  19.152  0.00  0.00    +0.000 A 
ATOM     15  C   UNL     1       0.295  11.605  19.313  0.00  0.00    +0.000 A 
ATOM     16  C   UNL     1       0.014  10.281  18.971  0.00  0.00    +0.000 A 
ATOM     17  C   UNL     1      -1.234   9.984  18.399  0.00  0.00    +0.000 A 
BRANCH  12  19
ATOM     18  C   UNL     1      -3.478  10.016  16.158  0.00  0.00    +0.000 C 
ATOM     19  C   UNL     1      -3.551  10.644  17.558  0.00  0.00    +0.000 C 
BRANCH  19  20
ATOM     20  S   UNL     1      -4.773  12.002  17.615  0.00  0.00    +0.000 S 
BRANCH  20  21
ATOM     21  C   UNL     1      -5.405  11.943  19.218  0.00  0.00    +0.000 A 
ATOM     22  N   UNL     1      -5.100  12.712  20.239  0.00  0.00    +0.000 NA
ATOM     23  N   UNL     1      -5.890  12.329  21.303  0.00  0.00    +0.000 NA
ATOM     24  C   UNL     1      -6.656  11.344  20.896  0.00  0.00    +0.000 A 
ATOM     25  N   UNL     1      -6.395  11.076  19.586  0.00  0.00    +0.000 N 
ATOM     26  C   UNL     1      -7.049  10.082  18.779  0.00  0.00    +0.000 C 
ENDBRANCH  20  21
ENDBRANCH  19  20
ENDBRANCH  12  19
ENDBRANCH   1  16
BRANCH   6  27
ATOM     27  C   UNL     1       4.829   5.165  17.099  0.00  0.00    +0.000 A 
ATOM     28  C   UNL     1       5.149   3.786  17.147  0.00  0.00    +0.000 A 
ATOM     29  N   UNL     1       5.612   3.320  15.984  0.00  0.00    +0.000 NA
ATOM     30  N   UNL     1       5.597   4.398  15.183  0.00  0.00    +0.000 N 
ATOM     31  C   UNL     1       5.912   4.281  13.781  0.00  0.00    +0.000 C 
ATOM     32  C   UNL     1       5.186   5.532  15.816  0.00  0.00    +0.000 A 
ENDBRANCH   6  27
TORSDOF 5
ENDMDL
MODEL 9
REMARK VINA RESULT:      -7.9      3.659     10.980
REMARK  Name = 
REMARK  10 active torsions:
REMARK  status: ('A' for Active; 'I' for Inactive)
REMARK    1  A    between atoms: C_1  and  C_2
REMARK    2  A    between atoms: C_2  and  S_3
REMARK    3  A    between atoms: C_2  and  C_10
REMARK    4  A    between atoms: S_3  and  C_4
REMARK    5  A    between atoms: N_8  and  C_9
REMARK    6  A    between atoms: C_14  and  N_15
REMARK    7  A    between atoms: C_20  and  C_21
REMARK    8  A    between atoms: N_24  and  C_25
REMARK    9  A    between atoms: C_27  and  C_28
REMARK   10  A    between atoms: C_27  and  C_29
REMARK                            x       y       z     vdW  Elec       q    Type
REMARK                         _______ _______ _______ _____ _____    ______ ____
ROOT
ATOM      1  N   UNL     1       2.174   8.063  18.492  0.00  0.00    +0.000 N 
ATOM      2  C   UNL     1       1.639   8.438  19.705  0.00  0.00    +0.000 C 
ATOM      3  O   UNL     1       1.559   7.708  20.692  0.00  0.00    +0.000 OA
ATOM      4  N   UNL     1       1.193   9.741  19.776  0.00  0.00    +0.000 N 
ATOM      5  C   UNL     1       0.666  10.219  21.044  0.00  0.00    +0.000 C 
ATOM      6  C   UNL     1       0.055  11.593  20.758  0.00  0.00    +0.000 C 
ATOM      7  C   UNL     1      -0.316  11.505  19.247  0.00  0.00    +0.000 C 
ATOM      8  C   UNL     1      -1.663  10.805  18.985  0.00  0.00    +0.000 C 
ATOM      9  C   UNL     1      -0.344  12.890  18.588  0.00  0.00    +0.000 C 
ATOM     10  C   UNL     1       0.836  10.636  18.685  0.00  0.00    +0.000 C 
ATOM     11  H   UNL     1       2.544   8.814  17.932  0.00  0.00    +0.000 HD
ENDROOT
BRANCH   1  16
ATOM     12  C   UNL     1       4.366   5.224  17.426  0.00  0.00    +0.000 A 
ATOM     13  C   UNL     1       3.467   4.154  17.554  0.00  0.00    +0.000 A 
ATOM     14  C   UNL     1       2.145   4.372  17.932  0.00  0.00    +0.000 A 
ATOM     15  C   UNL     1       1.704   5.660  18.223  0.00  0.00    +0.000 A 
ATOM     16  C   UNL     1       2.580   6.746  18.162  0.00  0.00    +0.000 A 
ATOM     17  C   UNL     1       3.899   6.524  17.735  0.00  0.00    +0.000 A 
BRANCH  12  19
ATOM     18  C   UNL     1       6.595   6.281  16.604  0.00  0.00    +0.000 C 
ATOM     19  C   UNL     1       5.790   5.013  16.925  0.00  0.00    +0.000 C 
BRANCH  19  20
ATOM     20  S   UNL     1       5.929   3.780  15.585  0.00  0.00    +0.000 S 
BRANCH  20  21
ATOM     21  C   UNL     1       6.866   4.568  14.371  0.00  0.00    +0.000 A 
ATOM     22  N   UNL     1       7.838   5.437  14.534  0.00  0.00    +0.000 NA
ATOM     23  N   UNL     1       8.327   5.759  13.284  0.00  0.00    +0.000 NA
ATOM     24  C   UNL     1       7.641   5.072  12.400  0.00  0.00    +0.000 A 
ATOM     25  N   UNL     1       6.720   4.298  13.040  0.00  0.00    +0.000 N 
ATOM     26  C   UNL     1       5.800   3.388  12.415  0.00  0.00    +0.000 C 
ENDBRANCH  20  21
ENDBRANCH  19  20
ENDBRANCH  12  19
ENDBRANCH   1  16
BRANCH   6  27
ATOM     27  C   UNL     1      -1.070  11.961  21.676  0.00  0.00    +0.000 A 
ATOM     28  C   UNL     1      -1.514  11.269  22.829  0.00  0.00    +0.000 A 
ATOM     29  N   UNL     1      -2.499  11.905  23.469  0.00  0.00    +0.000 NA
ATOM     30  N   UNL     1      -2.698  13.008  22.728  0.00  0.00    +0.000 N 
ATOM     31  C   UNL     1      -3.610  14.036  23.162  0.00  0.00    +0.000 C 
ATOM     32  C   UNL     1      -1.904  13.062  21.621  0.00  0.00    +0.000 A 
ENDBRANCH   6  27
TORSDOF 5
ENDMDL
