MODEL 1
REMARK VINA RESULT:      -8.5      0.000      0.000
REMARK  Name = 
REMARK  8 active torsions:
REMARK  status: ('A' for Active; 'I' for Inactive)
REMARK    1  A    between atoms: C_1  and  C_2
REMARK    2  A    between atoms: C_2  and  S_3
REMARK    3  A    between atoms: C_2  and  C_10
REMARK    4  A    between atoms: S_3  and  C_4
REMARK    5  A    between atoms: N_8  and  C_9
REMARK    6  A    between atoms: C_14  and  N_15
REMARK    7  A    between atoms: C_20  and  C_21
REMARK    8  A    between atoms: C_26  and  O_27
REMARK                            x       y       z     vdW  Elec       q    Type
REMARK                         _______ _______ _______ _____ _____    ______ ____
ROOT
ATOM      1  N   UNL     1       8.253   9.444  17.659  0.00  0.00    +0.000 N 
ATOM      2  C   UNL     1       9.036  10.240  18.469  0.00  0.00    +0.000 C 
ATOM      3  O   UNL     1       9.582   9.896  19.513  0.00  0.00    +0.000 OA
ATOM      4  N   UNL     1       9.215  11.508  17.943  0.00  0.00    +0.000 N 
ATOM      5  C   UNL     1       9.963  12.567  18.615  0.00  0.00    +0.000 C 
ATOM      6  C   UNL     1       8.783  13.510  18.356  0.00  0.00    +0.000 C 
ATOM      7  C   UNL     1       8.141  12.400  17.508  0.00  0.00    +0.000 C 
ATOM      8  H   UNL     1       8.155   9.769  16.708  0.00  0.00    +0.000 HD
ENDROOT
BRANCH   6   9
ATOM      9  C   UNL     1       8.040  14.012  19.619  0.00  0.00    +0.000 C 
ATOM     10  O   UNL     1       8.213  13.509  20.736  0.00  0.00    +0.000 OA
ATOM     11  N   UNL     1       7.136  15.068  19.443  0.00  0.00    +0.000 N 
ATOM     12  C   UNL     1       6.749  15.625  18.150  0.00  0.00    +0.000 C 
ATOM     13  C   UNL     1       5.313  15.220  17.836  0.00  0.00    +0.000 C 
ATOM     14  C   UNL     1       4.364  15.646  18.959  0.00  0.00    +0.000 C 
ATOM     15  C   UNL     1       4.855  15.196  20.340  0.00  0.00    +0.000 C 
ATOM     16  C   UNL     1       6.329  15.529  20.571  0.00  0.00    +0.000 C 
BRANCH  14  17
ATOM     17  O   UNL     1       4.173  17.060  18.925  0.00  0.00    +0.000 OA
ATOM     18  H   UNL     1       5.037  17.503  18.896  0.00  0.00    +0.000 HD
ENDBRANCH  14  17
ENDBRANCH   6   9
BRANCH   1  23
ATOM     19  C   UNL     1       6.356   6.262  17.367  0.00  0.00    +0.000 A 
ATOM     20  C   UNL     1       6.988   5.493  18.361  0.00  0.00    +0.000 A 
ATOM     21  C   UNL     1       8.005   6.035  19.145  0.00  0.00    +0.000 A 
ATOM     22  C   UNL     1       8.427   7.348  18.937  0.00  0.00    +0.000 A 
ATOM     23  C   UNL     1       7.849   8.122  17.932  0.00  0.00    +0.000 A 
ATOM     24  C   UNL     1       6.805   7.581  17.168  0.00  0.00    +0.000 A 
BRANCH  19  26
ATOM     25  C   UNL     1       3.884   5.461  17.303  0.00  0.00    +0.000 C 
ATOM     26  C   UNL     1       5.215   5.647  16.569  0.00  0.00    +0.000 C 
BRANCH  26  27
ATOM     27  S   UNL     1       5.701   4.130  15.661  0.00  0.00    +0.000 S 
BRANCH  27  28
ATOM     28  C   UNL     1       6.776   4.685  14.430  0.00  0.00    +0.000 A 
ATOM     29  N   UNL     1       7.800   5.498  14.558  0.00  0.00    +0.000 NA
ATOM     30  N   UNL     1       8.323   5.721  13.304  0.00  0.00    +0.000 NA
ATOM     31  C   UNL     1       7.613   5.019  12.451  0.00  0.00    +0.000 A 
ATOM     32  N   UNL     1       6.670   4.299  13.121  0.00  0.00    +0.000 N 
ATOM     33  C   UNL     1       5.794   3.314  12.550  0.00  0.00    +0.000 C 
ENDBRANCH  27  28
ENDBRANCH  26  27
ENDBRANCH  19  26
ENDBRANCH   1  23
TORSDOF 6
ENDMDL
MODEL 2
REMARK VINA RESULT:      -8.5      3.782      9.666
REMARK  Name = 
REMARK  8 active torsions:
REMARK  status: ('A' for Active; 'I' for Inactive)
REMARK    1  A    between atoms: C_1  and  C_2
REMARK    2  A    between atoms: C_2  and  S_3
REMARK    3  A    between atoms: C_2  and  C_10
REMARK    4  A    between atoms: S_3  and  C_4
REMARK    5  A    between atoms: N_8  and  C_9
REMARK    6  A    between atoms: C_14  and  N_15
REMARK    7  A    between atoms: C_20  and  C_21
REMARK    8  A    between atoms: C_26  and  O_27
REMARK                            x       y       z     vdW  Elec       q    Type
REMARK                         _______ _______ _______ _____ _____    ______ ____
ROOT
ATOM      1  N   UNL     1       8.784   8.590  18.880  0.00  0.00    +0.000 N 
ATOM      2  C   UNL     1       7.865   8.214  17.921  0.00  0.00    +0.000 C 
ATOM      3  O   UNL     1       7.246   8.968  17.176  0.00  0.00    +0.000 OA
ATOM      4  N   UNL     1       7.741   6.839  17.824  0.00  0.00    +0.000 N 
ATOM      5  C   UNL     1       6.807   6.170  16.922  0.00  0.00    +0.000 C 
ATOM      6  C   UNL     1       6.342   5.314  18.105  0.00  0.00    +0.000 C 
ATOM      7  C   UNL     1       7.471   5.935  18.942  0.00  0.00    +0.000 C 
ATOM      8  H   UNL     1       9.421   7.861  19.168  0.00  0.00    +0.000 HD
ENDROOT
BRANCH   6   9
ATOM      9  C   UNL     1       4.873   5.532  18.550  0.00  0.00    +0.000 C 
ATOM     10  O   UNL     1       4.534   6.465  19.286  0.00  0.00    +0.000 OA
ATOM     11  N   UNL     1       3.929   4.605  18.087  0.00  0.00    +0.000 N 
ATOM     12  C   UNL     1       4.250   3.390  17.344  0.00  0.00    +0.000 C 
ATOM     13  C   UNL     1       4.023   2.177  18.240  0.00  0.00    +0.000 C 
ATOM     14  C   UNL     1       2.595   2.160  18.791  0.00  0.00    +0.000 C 
ATOM     15  C   UNL     1       2.202   3.496  19.433  0.00  0.00    +0.000 C 
ATOM     16  C   UNL     1       2.544   4.692  18.544  0.00  0.00    +0.000 C 
BRANCH  14  17
ATOM     17  O   UNL     1       1.678   1.806  17.756  0.00  0.00    +0.000 OA
ATOM     18  H   UNL     1       0.776   2.042  18.027  0.00  0.00    +0.000 HD
ENDBRANCH  14  17
ENDBRANCH   6   9
BRANCH   1  23
ATOM     19  C   UNL     1       9.664  12.183  18.523  0.00  0.00    +0.000 A 
ATOM     20  C   UNL     1       9.715  12.570  19.874  0.00  0.00    +0.000 A 
ATOM     21  C   UNL     1       9.497  11.644  20.893  0.00  0.00    +0.000 A 
ATOM     22  C   UNL     1       9.203  10.317  20.582  0.00  0.00    +0.000 A 
ATOM     23  C   UNL     1       9.105   9.911  19.252  0.00  0.00    +0.000 A 
ATOM     24  C   UNL     1       9.355  10.841  18.233  0.00  0.00    +0.000 A 
BRANCH  19  26
ATOM     25  C   UNL     1      11.338  13.146  16.784  0.00  0.00    +0.000 C 
ATOM     26  C   UNL     1       9.958  13.215  17.444  0.00  0.00    +0.000 C 
BRANCH  26  27
ATOM     27  S   UNL     1       9.537  14.927  17.947  0.00  0.00    +0.000 S 
BRANCH  27  28
ATOM     28  C   UNL     1       7.814  14.940  18.049  0.00  0.00    +0.000 A 
ATOM     29  N   UNL     1       6.965  14.113  17.483  0.00  0.00    +0.000 NA
ATOM     30  N   UNL     1       5.692  14.545  17.778  0.00  0.00    +0.000 NA
ATOM     31  C   UNL     1       5.804  15.612  18.535  0.00  0.00    +0.000 A 
ATOM     32  N   UNL     1       7.120  15.860  18.787  0.00  0.00    +0.000 N 
ATOM     33  C   UNL     1       7.636  16.858  19.682  0.00  0.00    +0.000 C 
ENDBRANCH  27  28
ENDBRANCH  26  27
ENDBRANCH  19  26
ENDBRANCH   1  23
TORSDOF 6
ENDMDL
MODEL 3
REMARK VINA RESULT:      -8.4      2.434      3.334
REMARK  Name = 
REMARK  8 active torsions:
REMARK  status: ('A' for Active; 'I' for Inactive)
REMARK    1  A    between atoms: C_1  and  C_2
REMARK    2  A    between atoms: C_2  and  S_3
REMARK    3  A    between atoms: C_2  and  C_10
REMARK    4  A    between atoms: S_3  and  C_4
REMARK    5  A    between atoms: N_8  and  C_9
REMARK    6  A    between atoms: C_14  and  N_15
REMARK    7  A    between atoms: C_20  and  C_21
REMARK    8  A    between atoms: C_26  and  O_27
REMARK                            x       y       z     vdW  Elec       q    Type
REMARK                         _______ _______ _______ _____ _____    ______ ____
ROOT
ATOM      1  N   UNL     1       8.087   9.316  17.636  0.00  0.00    +0.000 N 
ATOM      2  C   UNL     1       8.923  10.096  18.409  0.00  0.00    +0.000 C 
ATOM      3  O   UNL     1       9.484   9.751  19.445  0.00  0.00    +0.000 OA
ATOM      4  N   UNL     1       9.137  11.345  17.852  0.00  0.00    +0.000 N 
ATOM      5  C   UNL     1       9.945  12.387  18.482  0.00  0.00    +0.000 C 
ATOM      6  C   UNL     1       8.796  13.370  18.235  0.00  0.00    +0.000 C 
ATOM      7  C   UNL     1       8.088  12.271  17.428  0.00  0.00    +0.000 C 
ATOM      8  H   UNL     1       7.977   9.627  16.681  0.00  0.00    +0.000 HD
ENDROOT
BRANCH   6   9
ATOM      9  C   UNL     1       8.108  13.926  19.507  0.00  0.00    +0.000 C 
ATOM     10  O   UNL     1       8.313  13.457  20.632  0.00  0.00    +0.000 OA
ATOM     11  N   UNL     1       7.217  14.993  19.328  0.00  0.00    +0.000 N 
ATOM     12  C   UNL     1       6.793  15.515  18.033  0.00  0.00    +0.000 C 
ATOM     13  C   UNL     1       5.340  15.127  17.783  0.00  0.00    +0.000 C 
ATOM     14  C   UNL     1       4.440  15.606  18.925  0.00  0.00    +0.000 C 
ATOM     15  C   UNL     1       4.973  15.191  20.302  0.00  0.00    +0.000 C 
ATOM     16  C   UNL     1       6.460  15.504  20.469  0.00  0.00    +0.000 C 
BRANCH  14  17
ATOM     17  O   UNL     1       4.273  17.021  18.852  0.00  0.00    +0.000 OA
ATOM     18  H   UNL     1       3.464  17.278  19.324  0.00  0.00    +0.000 HD
ENDBRANCH  14  17
ENDBRANCH   6   9
BRANCH   1  23
ATOM     19  C   UNL     1       5.920   6.298  17.636  0.00  0.00    +0.000 A 
ATOM     20  C   UNL     1       6.669   5.443  18.465  0.00  0.00    +0.000 A 
ATOM     21  C   UNL     1       7.860   5.874  19.047  0.00  0.00    +0.000 A 
ATOM     22  C   UNL     1       8.337   7.160  18.796  0.00  0.00    +0.000 A 
ATOM     23  C   UNL     1       7.639   8.017  17.947  0.00  0.00    +0.000 A 
ATOM     24  C   UNL     1       6.426   7.587  17.389  0.00  0.00    +0.000 A 
BRANCH  19  26
ATOM     25  C   UNL     1       3.324   6.289  17.756  0.00  0.00    +0.000 C 
ATOM     26  C   UNL     1       4.599   5.803  17.063  0.00  0.00    +0.000 C 
BRANCH  26  27
ATOM     27  S   UNL     1       4.565   3.992  16.782  0.00  0.00    +0.000 S 
BRANCH  27  28
ATOM     28  C   UNL     1       3.152   3.449  17.611  0.00  0.00    +0.000 A 
ATOM     29  N   UNL     1       1.918   3.410  17.163  0.00  0.00    +0.000 NA
ATOM     30  N   UNL     1       1.109   2.976  18.189  0.00  0.00    +0.000 NA
ATOM     31  C   UNL     1       1.880   2.742  19.226  0.00  0.00    +0.000 A 
ATOM     32  N   UNL     1       3.182   2.962  18.890  0.00  0.00    +0.000 N 
ATOM     33  C   UNL     1       4.326   2.688  19.713  0.00  0.00    +0.000 C 
ENDBRANCH  27  28
ENDBRANCH  26  27
ENDBRANCH  19  26
ENDBRANCH   1  23
TORSDOF 6
ENDMDL
MODEL 4
REMARK VINA RESULT:      -8.3      8.406     12.214
REMARK  Name = 
REMARK  8 active torsions:
REMARK  status: ('A' for Active; 'I' for Inactive)
REMARK    1  A    between atoms: C_1  and  C_2
REMARK    2  A    between atoms: C_2  and  S_3
REMARK    3  A    between atoms: C_2  and  C_10
REMARK    4  A    between atoms: S_3  and  C_4
REMARK    5  A    between atoms: N_8  and  C_9
REMARK    6  A    between atoms: C_14  and  N_15
REMARK    7  A    between atoms: C_20  and  C_21
REMARK    8  A    between atoms: C_26  and  O_27
REMARK                            x       y       z     vdW  Elec       q    Type
REMARK                         _______ _______ _______ _____ _____    ______ ____
ROOT
ATOM      1  N   UNL     1       0.852   9.662  19.349  0.00  0.00    +0.000 N 
ATOM      2  C   UNL     1       1.653   9.095  18.380  0.00  0.00    +0.000 C 
ATOM      3  O   UNL     1       1.609   9.328  17.176  0.00  0.00    +0.000 OA
ATOM      4  N   UNL     1       2.603   8.243  18.918  0.00  0.00    +0.000 N 
ATOM      5  C   UNL     1       3.552   7.476  18.115  0.00  0.00    +0.000 C 
ATOM      6  C   UNL     1       3.161   6.230  18.916  0.00  0.00    +0.000 C 
ATOM      7  C   UNL     1       2.323   7.137  19.832  0.00  0.00    +0.000 C 
ATOM      8  H   UNL     1       1.220   9.614  20.289  0.00  0.00    +0.000 HD
ENDROOT
BRANCH   6   9
ATOM      9  C   UNL     1       2.447   5.115  18.111  0.00  0.00    +0.000 C 
ATOM     10  O   UNL     1       1.320   5.264  17.626  0.00  0.00    +0.000 OA
ATOM     11  N   UNL     1       3.137   3.905  17.960  0.00  0.00    +0.000 N 
ATOM     12  C   UNL     1       4.399   3.578  18.618  0.00  0.00    +0.000 C 
ATOM     13  C   UNL     1       4.147   2.536  19.703  0.00  0.00    +0.000 C 
ATOM     14  C   UNL     1       3.456   1.298  19.126  0.00  0.00    +0.000 C 
ATOM     15  C   UNL     1       2.215   1.655  18.299  0.00  0.00    +0.000 C 
ATOM     16  C   UNL     1       2.487   2.777  17.296  0.00  0.00    +0.000 C 
BRANCH  14  17
ATOM     17  O   UNL     1       4.383   0.542  18.348  0.00  0.00    +0.000 OA
ATOM     18  H   UNL     1       4.391  -0.379  18.658  0.00  0.00    +0.000 HD
ENDBRANCH  14  17
ENDBRANCH   6   9
BRANCH   1  23
ATOM     19  C   UNL     1      -2.451  10.856  18.134  0.00  0.00    +0.000 A 
ATOM     20  C   UNL     1      -2.459  12.163  18.655  0.00  0.00    +0.000 A 
ATOM     21  C   UNL     1      -1.368  12.655  19.369  0.00  0.00    +0.000 A 
ATOM     22  C   UNL     1      -0.256  11.846  19.595  0.00  0.00    +0.000 A 
ATOM     23  C   UNL     1      -0.233  10.533  19.127  0.00  0.00    +0.000 A 
ATOM     24  C   UNL     1      -1.322  10.054  18.383  0.00  0.00    +0.000 A 
BRANCH  19  26
ATOM     25  C   UNL     1      -3.348   9.881  15.898  0.00  0.00    +0.000 C 
ATOM     26  C   UNL     1      -3.642  10.377  17.316  0.00  0.00    +0.000 C 
BRANCH  26  27
ATOM     27  S   UNL     1      -5.054  11.545  17.343  0.00  0.00    +0.000 S 
BRANCH  27  28
ATOM     28  C   UNL     1      -6.031  11.017  18.664  0.00  0.00    +0.000 A 
ATOM     29  N   UNL     1      -6.578   9.837  18.844  0.00  0.00    +0.000 NA
ATOM     30  N   UNL     1      -7.331   9.889  19.996  0.00  0.00    +0.000 NA
ATOM     31  C   UNL     1      -7.201  11.097  20.496  0.00  0.00    +0.000 A 
ATOM     32  N   UNL     1      -6.340  11.822  19.728  0.00  0.00    +0.000 N 
ATOM     33  C   UNL     1      -5.843  13.137  20.025  0.00  0.00    +0.000 C 
ENDBRANCH  27  28
ENDBRANCH  26  27
ENDBRANCH  19  26
ENDBRANCH   1  23
TORSDOF 6
ENDMDL
MODEL 5
REMARK VINA RESULT:      -8.3      4.139     10.224
REMARK  Name = 
REMARK  8 active torsions:
REMARK  status: ('A' for Active; 'I' for Inactive)
REMARK    1  A    between atoms: C_1  and  C_2
REMARK    2  A    between atoms: C_2  and  S_3
REMARK    3  A    between atoms: C_2  and  C_10
REMARK    4  A    between atoms: S_3  and  C_4
REMARK    5  A    between atoms: N_8  and  C_9
REMARK    6  A    between atoms: C_14  and  N_15
REMARK    7  A    between atoms: C_20  and  C_21
REMARK    8  A    between atoms: C_26  and  O_27
REMARK                            x       y       z     vdW  Elec       q    Type
REMARK                         _______ _______ _______ _____ _____    ______ ____
ROOT
ATOM      1  N   UNL     1       8.614   8.260  18.925  0.00  0.00    +0.000 N 
ATOM      2  C   UNL     1       7.924   7.639  17.906  0.00  0.00    +0.000 C 
ATOM      3  O   UNL     1       7.584   8.151  16.843  0.00  0.00    +0.000 OA
ATOM      4  N   UNL     1       7.689   6.300  18.170  0.00  0.00    +0.000 N 
ATOM      5  C   UNL     1       6.941   5.416  17.281  0.00  0.00    +0.000 C 
ATOM      6  C   UNL     1       6.118   4.963  18.491  0.00  0.00    +0.000 C 
ATOM      7  C   UNL     1       7.066   5.778  19.385  0.00  0.00    +0.000 C 
ATOM      8  H   UNL     1       9.085   7.635  19.564  0.00  0.00    +0.000 HD
ENDROOT
BRANCH   6   9
ATOM      9  C   UNL     1       4.615   5.339  18.455  0.00  0.00    +0.000 C 
ATOM     10  O   UNL     1       4.215   6.495  18.636  0.00  0.00    +0.000 OA
ATOM     11  N   UNL     1       3.708   4.297  18.217  0.00  0.00    +0.000 N 
ATOM     12  C   UNL     1       4.066   2.884  18.143  0.00  0.00    +0.000 C 
ATOM     13  C   UNL     1       3.545   2.166  19.384  0.00  0.00    +0.000 C 
ATOM     14  C   UNL     1       2.038   2.375  19.548  0.00  0.00    +0.000 C 
ATOM     15  C   UNL     1       1.642   3.855  19.467  0.00  0.00    +0.000 C 
ATOM     16  C   UNL     1       2.272   4.560  18.265  0.00  0.00    +0.000 C 
BRANCH  14  17
ATOM     17  O   UNL     1       1.331   1.608  18.575  0.00  0.00    +0.000 OA
ATOM     18  H   UNL     1       0.587   1.151  19.000  0.00  0.00    +0.000 HD
ENDBRANCH  14  17
ENDBRANCH   6   9
BRANCH   1  23
ATOM     19  C   UNL     1       9.408  11.585  20.384  0.00  0.00    +0.000 A 
ATOM     20  C   UNL     1       9.693  12.317  19.217  0.00  0.00    +0.000 A 
ATOM     21  C   UNL     1       9.586  11.726  17.959  0.00  0.00    +0.000 A 
ATOM     22  C   UNL     1       9.215  10.387  17.843  0.00  0.00    +0.000 A 
ATOM     23  C   UNL     1       8.966   9.624  18.982  0.00  0.00    +0.000 A 
ATOM     24  C   UNL     1       9.045  10.233  20.243  0.00  0.00    +0.000 A 
BRANCH  19  26
ATOM     25  C   UNL     1       8.410  11.922  22.760  0.00  0.00    +0.000 C 
ATOM     26  C   UNL     1       9.487  12.283  21.735  0.00  0.00    +0.000 C 
BRANCH  26  27
ATOM     27  S   UNL     1       9.706  14.098  21.599  0.00  0.00    +0.000 S 
BRANCH  27  28
ATOM     28  C   UNL     1       8.100  14.730  21.570  0.00  0.00    +0.000 A 
ATOM     29  N   UNL     1       7.218  14.652  20.600  0.00  0.00    +0.000 NA
ATOM     30  N   UNL     1       6.102  15.359  20.985  0.00  0.00    +0.000 NA
ATOM     31  C   UNL     1       6.329  15.829  22.190  0.00  0.00    +0.000 A 
ATOM     32  N   UNL     1       7.548  15.404  22.626  0.00  0.00    +0.000 N 
ATOM     33  C   UNL     1       8.091  15.598  23.942  0.00  0.00    +0.000 C 
ENDBRANCH  27  28
ENDBRANCH  26  27
ENDBRANCH  19  26
ENDBRANCH   1  23
TORSDOF 6
ENDMDL
MODEL 6
REMARK VINA RESULT:      -8.2      4.140     10.171
REMARK  Name = 
REMARK  8 active torsions:
REMARK  status: ('A' for Active; 'I' for Inactive)
REMARK    1  A    between atoms: C_1  and  C_2
REMARK    2  A    between atoms: C_2  and  S_3
REMARK    3  A    between atoms: C_2  and  C_10
REMARK    4  A    between atoms: S_3  and  C_4
REMARK    5  A    between atoms: N_8  and  C_9
REMARK    6  A    between atoms: C_14  and  N_15
REMARK    7  A    between atoms: C_20  and  C_21
REMARK    8  A    between atoms: C_26  and  O_27
REMARK                            x       y       z     vdW  Elec       q    Type
REMARK                         _______ _______ _______ _____ _____    ______ ____
ROOT
ATOM      1  N   UNL     1       8.636   8.272  18.922  0.00  0.00    +0.000 N 
ATOM      2  C   UNL     1       7.902   7.658  17.928  0.00  0.00    +0.000 C 
ATOM      3  O   UNL     1       7.514   8.179  16.887  0.00  0.00    +0.000 OA
ATOM      4  N   UNL     1       7.683   6.316  18.191  0.00  0.00    +0.000 N 
ATOM      5  C   UNL     1       6.897   5.438  17.328  0.00  0.00    +0.000 C 
ATOM      6  C   UNL     1       6.130   4.972  18.570  0.00  0.00    +0.000 C 
ATOM      7  C   UNL     1       7.115   5.781  19.428  0.00  0.00    +0.000 C 
ATOM      8  H   UNL     1       9.137   7.642  19.533  0.00  0.00    +0.000 HD
ENDROOT
BRANCH   6   9
ATOM      9  C   UNL     1       4.626   5.344  18.604  0.00  0.00    +0.000 C 
ATOM     10  O   UNL     1       4.230   6.482  18.884  0.00  0.00    +0.000 OA
ATOM     11  N   UNL     1       3.715   4.320  18.313  0.00  0.00    +0.000 N 
ATOM     12  C   UNL     1       4.072   2.918  18.121  0.00  0.00    +0.000 C 
ATOM     13  C   UNL     1       3.587   2.106  19.317  0.00  0.00    +0.000 C 
ATOM     14  C   UNL     1       2.085   2.297  19.539  0.00  0.00    +0.000 C 
ATOM     15  C   UNL     1       1.685   3.777  19.582  0.00  0.00    +0.000 C 
ATOM     16  C   UNL     1       2.280   4.574  18.421  0.00  0.00    +0.000 C 
BRANCH  14  17
ATOM     17  O   UNL     1       1.352   1.603  18.530  0.00  0.00    +0.000 OA
ATOM     18  H   UNL     1       0.428   1.501  18.812  0.00  0.00    +0.000 HD
ENDBRANCH  14  17
ENDBRANCH   6   9
BRANCH   1  23
ATOM     19  C   UNL     1       9.432  11.599  20.373  0.00  0.00    +0.000 A 
ATOM     20  C   UNL     1       9.712  12.329  19.204  0.00  0.00    +0.000 A 
ATOM     21  C   UNL     1       9.603  11.736  17.947  0.00  0.00    +0.000 A 
ATOM     22  C   UNL     1       9.232  10.397  17.834  0.00  0.00    +0.000 A 
ATOM     23  C   UNL     1       8.987   9.636  18.975  0.00  0.00    +0.000 A 
ATOM     24  C   UNL     1       9.069  10.246  20.235  0.00  0.00    +0.000 A 
BRANCH  19  26
ATOM     25  C   UNL     1       8.410  11.979  22.732  0.00  0.00    +0.000 C 
ATOM     26  C   UNL     1       9.514  12.300  21.722  0.00  0.00    +0.000 C 
BRANCH  26  27
ATOM     27  S   UNL     1       9.796  14.106  21.582  0.00  0.00    +0.000 S 
BRANCH  27  28
ATOM     28  C   UNL     1       8.311  14.819  22.097  0.00  0.00    +0.000 A 
ATOM     29  N   UNL     1       7.996  15.255  23.295  0.00  0.00    +0.000 NA
ATOM     30  N   UNL     1       6.685  15.675  23.263  0.00  0.00    +0.000 NA
ATOM     31  C   UNL     1       6.247  15.501  22.037  0.00  0.00    +0.000 A 
ATOM     32  N   UNL     1       7.254  15.027  21.252  0.00  0.00    +0.000 N 
ATOM     33  C   UNL     1       7.200  14.839  19.829  0.00  0.00    +0.000 C 
ENDBRANCH  27  28
ENDBRANCH  26  27
ENDBRANCH  19  26
ENDBRANCH   1  23
TORSDOF 6
ENDMDL
MODEL 7
REMARK VINA RESULT:      -8.2      7.020      8.527
REMARK  Name = 
REMARK  8 active torsions:
REMARK  status: ('A' for Active; 'I' for Inactive)
REMARK    1  A    between atoms: C_1  and  C_2
REMARK    2  A    between atoms: C_2  and  S_3
REMARK    3  A    between atoms: C_2  and  C_10
REMARK    4  A    between atoms: S_3  and  C_4
REMARK    5  A    between atoms: N_8  and  C_9
REMARK    6  A    between atoms: C_14  and  N_15
REMARK    7  A    between atoms: C_20  and  C_21
REMARK    8  A    between atoms: C_26  and  O_27
REMARK                            x       y       z     vdW  Elec       q    Type
REMARK                         _______ _______ _______ _____ _____    ______ ____
ROOT
ATOM      1  N   UNL     1       1.369   9.164  20.766  0.00  0.00    +0.000 N 
ATOM      2  C   UNL     1       0.205   9.119  21.505  0.00  0.00    +0.000 C 
ATOM      3  O   UNL     1      -0.623   8.213  21.499  0.00  0.00    +0.000 OA
ATOM      4  N   UNL     1       0.074  10.212  22.345  0.00  0.00    +0.000 N 
ATOM      5  C   UNL     1      -1.083  10.441  23.205  0.00  0.00    +0.000 C 
ATOM      6  C   UNL     1      -1.151  11.873  22.665  0.00  0.00    +0.000 C 
ATOM      7  C   UNL     1       0.173  11.611  21.930  0.00  0.00    +0.000 C 
ATOM      8  H   UNL     1       2.073   9.797  21.118  0.00  0.00    +0.000 HD
ENDROOT
BRANCH   6   9
ATOM      9  C   UNL     1      -2.414  12.214  21.834  0.00  0.00    +0.000 C 
ATOM     10  O   UNL     1      -2.417  12.209  20.598  0.00  0.00    +0.000 OA
ATOM     11  N   UNL     1      -3.571  12.546  22.551  0.00  0.00    +0.000 N 
ATOM     12  C   UNL     1      -3.631  12.728  23.998  0.00  0.00    +0.000 C 
ATOM     13  C   UNL     1      -3.809  14.209  24.314  0.00  0.00    +0.000 C 
ATOM     14  C   UNL     1      -5.042  14.777  23.607  0.00  0.00    +0.000 C 
ATOM     15  C   UNL     1      -5.059  14.448  22.109  0.00  0.00    +0.000 C 
ATOM     16  C   UNL     1      -4.772  12.972  21.834  0.00  0.00    +0.000 C 
BRANCH  14  17
ATOM     17  O   UNL     1      -6.228  14.304  24.243  0.00  0.00    +0.000 OA
ATOM     18  H   UNL     1      -6.460  14.894  24.978  0.00  0.00    +0.000 HD
ENDBRANCH  14  17
ENDBRANCH   6   9
BRANCH   1  23
ATOM     19  C   UNL     1       2.262   5.888  19.255  0.00  0.00    +0.000 A 
ATOM     20  C   UNL     1       2.529   6.280  17.931  0.00  0.00    +0.000 A 
ATOM     21  C   UNL     1       2.449   7.619  17.551  0.00  0.00    +0.000 A 
ATOM     22  C   UNL     1       2.082   8.591  18.482  0.00  0.00    +0.000 A 
ATOM     23  C   UNL     1       1.772   8.229  19.792  0.00  0.00    +0.000 A 
ATOM     24  C   UNL     1       1.883   6.884  20.174  0.00  0.00    +0.000 A 
BRANCH  19  26
ATOM     25  C   UNL     1       2.649   4.120  21.120  0.00  0.00    +0.000 C 
ATOM     26  C   UNL     1       2.411   4.423  19.638  0.00  0.00    +0.000 C 
BRANCH  26  27
ATOM     27  S   UNL     1       3.585   3.510  18.566  0.00  0.00    +0.000 S 
BRANCH  27  28
ATOM     28  C   UNL     1       5.096   4.312  18.794  0.00  0.00    +0.000 A 
ATOM     29  N   UNL     1       5.632   4.721  19.921  0.00  0.00    +0.000 NA
ATOM     30  N   UNL     1       6.807   5.373  19.621  0.00  0.00    +0.000 NA
ATOM     31  C   UNL     1       6.962   5.322  18.317  0.00  0.00    +0.000 A 
ATOM     32  N   UNL     1       5.944   4.608  17.761  0.00  0.00    +0.000 N 
ATOM     33  C   UNL     1       5.837   4.222  16.381  0.00  0.00    +0.000 C 
ENDBRANCH  27  28
ENDBRANCH  26  27
ENDBRANCH  19  26
ENDBRANCH   1  23
TORSDOF 6
ENDMDL
MODEL 8
REMARK VINA RESULT:      -8.2      4.358     10.338
REMARK  Name = 
REMARK  8 active torsions:
REMARK  status: ('A' for Active; 'I' for Inactive)
REMARK    1  A    between atoms: C_1  and  C_2
REMARK    2  A    between atoms: C_2  and  S_3
REMARK    3  A    between atoms: C_2  and  C_10
REMARK    4  A    between atoms: S_3  and  C_4
REMARK    5  A    between atoms: N_8  and  C_9
REMARK    6  A    between atoms: C_14  and  N_15
REMARK    7  A    between atoms: C_20  and  C_21
REMARK    8  A    between atoms: C_26  and  O_27
REMARK                            x       y       z     vdW  Elec       q    Type
REMARK                         _______ _______ _______ _____ _____    ______ ____
ROOT
ATOM      1  N   UNL     1       8.779   8.425  18.976  0.00  0.00    +0.000 N 
ATOM      2  C   UNL     1       8.001   7.897  17.967  0.00  0.00    +0.000 C 
ATOM      3  O   UNL     1       7.555   8.508  17.000  0.00  0.00    +0.000 OA
ATOM      4  N   UNL     1       7.807   6.534  18.112  0.00  0.00    +0.000 N 
ATOM      5  C   UNL     1       6.986   5.731  17.210  0.00  0.00    +0.000 C 
ATOM      6  C   UNL     1       6.287   5.139  18.438  0.00  0.00    +0.000 C 
ATOM      7  C   UNL     1       7.308   5.877  19.319  0.00  0.00    +0.000 C 
ATOM      8  H   UNL     1       9.315   7.747  19.499  0.00  0.00    +0.000 HD
ENDROOT
BRANCH   6   9
ATOM      9  C   UNL     1       4.784   5.486  18.583  0.00  0.00    +0.000 C 
ATOM     10  O   UNL     1       4.391   6.606  18.927  0.00  0.00    +0.000 OA
ATOM     11  N   UNL     1       3.870   4.457  18.316  0.00  0.00    +0.000 N 
ATOM     12  C   UNL     1       4.233   3.068  18.053  0.00  0.00    +0.000 C 
ATOM     13  C   UNL     1       3.839   2.209  19.250  0.00  0.00    +0.000 C 
ATOM     14  C   UNL     1       2.352   2.368  19.575  0.00  0.00    +0.000 C 
ATOM     15  C   UNL     1       1.935   3.839  19.695  0.00  0.00    +0.000 C 
ATOM     16  C   UNL     1       2.441   4.684  18.526  0.00  0.00    +0.000 C 
BRANCH  14  17
ATOM     17  O   UNL     1       1.564   1.697  18.592  0.00  0.00    +0.000 OA
ATOM     18  H   UNL     1       1.854   0.773  18.519  0.00  0.00    +0.000 HD
ENDBRANCH  14  17
ENDBRANCH   6   9
BRANCH   1  23
ATOM     19  C   UNL     1       9.185  11.728  20.630  0.00  0.00    +0.000 A 
ATOM     20  C   UNL     1       9.790  12.462  19.594  0.00  0.00    +0.000 A 
ATOM     21  C   UNL     1      10.027  11.880  18.349  0.00  0.00    +0.000 A 
ATOM     22  C   UNL     1       9.683  10.548  18.122  0.00  0.00    +0.000 A 
ATOM     23  C   UNL     1       9.120   9.782  19.141  0.00  0.00    +0.000 A 
ATOM     24  C   UNL     1       8.857  10.382  20.381  0.00  0.00    +0.000 A 
BRANCH  19  26
ATOM     25  C   UNL     1       8.352  11.538  23.084  0.00  0.00    +0.000 C 
ATOM     26  C   UNL     1       8.898  12.417  21.956  0.00  0.00    +0.000 C 
BRANCH  26  27
ATOM     27  S   UNL     1       7.926  13.961  21.774  0.00  0.00    +0.000 S 
BRANCH  27  28
ATOM     28  C   UNL     1       6.826  13.942  23.104  0.00  0.00    +0.000 A 
ATOM     29  N   UNL     1       5.599  13.475  23.130  0.00  0.00    +0.000 NA
ATOM     30  N   UNL     1       5.072  13.737  24.375  0.00  0.00    +0.000 NA
ATOM     31  C   UNL     1       6.005  14.338  25.078  0.00  0.00    +0.000 A 
ATOM     32  N   UNL     1       7.147  14.430  24.342  0.00  0.00    +0.000 N 
ATOM     33  C   UNL     1       8.421  14.902  24.811  0.00  0.00    +0.000 C 
ENDBRANCH  27  28
ENDBRANCH  26  27
ENDBRANCH  19  26
ENDBRANCH   1  23
TORSDOF 6
ENDMDL
MODEL 9
REMARK VINA RESULT:      -8.1      7.184      8.694
REMARK  Name = 
REMARK  8 active torsions:
REMARK  status: ('A' for Active; 'I' for Inactive)
REMARK    1  A    between atoms: C_1  and  C_2
REMARK    2  A    between atoms: C_2  and  S_3
REMARK    3  A    between atoms: C_2  and  C_10
REMARK    4  A    between atoms: S_3  and  C_4
REMARK    5  A    between atoms: N_8  and  C_9
REMARK    6  A    between atoms: C_14  and  N_15
REMARK    7  A    between atoms: C_20  and  C_21
REMARK    8  A    between atoms: C_26  and  O_27
REMARK                            x       y       z     vdW  Elec       q    Type
REMARK                         _______ _______ _______ _____ _____    ______ ____
ROOT
ATOM      1  N   UNL     1       1.124   9.745  20.778  0.00  0.00    +0.000 N 
ATOM      2  C   UNL     1      -0.012   9.569  21.540  0.00  0.00    +0.000 C 
ATOM      3  O   UNL     1      -0.745   8.584  21.533  0.00  0.00    +0.000 OA
ATOM      4  N   UNL     1      -0.234  10.629  22.404  0.00  0.00    +0.000 N 
ATOM      5  C   UNL     1      -1.389  10.723  23.293  0.00  0.00    +0.000 C 
ATOM      6  C   UNL     1      -1.613  12.151  22.783  0.00  0.00    +0.000 C 
ATOM      7  C   UNL     1      -0.286  12.037  22.016  0.00  0.00    +0.000 C 
ATOM      8  H   UNL     1       1.769  10.439  21.128  0.00  0.00    +0.000 HD
ENDROOT
BRANCH   6   9
ATOM      9  C   UNL     1      -2.922  12.377  21.985  0.00  0.00    +0.000 C 
ATOM     10  O   UNL     1      -2.993  12.206  20.762  0.00  0.00    +0.000 OA
ATOM     11  N   UNL     1      -4.040  12.802  22.714  0.00  0.00    +0.000 N 
ATOM     12  C   UNL     1      -4.021  13.177  24.125  0.00  0.00    +0.000 C 
ATOM     13  C   UNL     1      -4.193  14.687  24.248  0.00  0.00    +0.000 C 
ATOM     14  C   UNL     1      -5.467  15.155  23.541  0.00  0.00    +0.000 C 
ATOM     15  C   UNL     1      -5.564  14.628  22.104  0.00  0.00    +0.000 C 
ATOM     16  C   UNL     1      -5.281  13.128  22.014  0.00  0.00    +0.000 C 
BRANCH  14  17
ATOM     17  O   UNL     1      -6.613  14.771  24.299  0.00  0.00    +0.000 OA
ATOM     18  H   UNL     1      -6.379  14.041  24.895  0.00  0.00    +0.000 HD
ENDBRANCH  14  17
ENDBRANCH   6   9
BRANCH   1  23
ATOM     19  C   UNL     1       2.454   6.647  19.215  0.00  0.00    +0.000 A 
ATOM     20  C   UNL     1       2.519   7.045  17.868  0.00  0.00    +0.000 A 
ATOM     21  C   UNL     1       2.161   8.338  17.487  0.00  0.00    +0.000 A 
ATOM     22  C   UNL     1       1.712   9.251  18.441  0.00  0.00    +0.000 A 
ATOM     23  C   UNL     1       1.598   8.873  19.777  0.00  0.00    +0.000 A 
ATOM     24  C   UNL     1       1.988   7.581  20.159  0.00  0.00    +0.000 A 
BRANCH  19  26
ATOM     25  C   UNL     1       2.261   4.629  20.842  0.00  0.00    +0.000 C 
ATOM     26  C   UNL     1       2.902   5.242  19.595  0.00  0.00    +0.000 C 
BRANCH  26  27
ATOM     27  S   UNL     1       4.725   5.043  19.607  0.00  0.00    +0.000 S 
BRANCH  27  28
ATOM     28  C   UNL     1       5.130   4.643  17.977  0.00  0.00    +0.000 A 
ATOM     29  N   UNL     1       4.361   4.092  17.066  0.00  0.00    +0.000 NA
ATOM     30  N   UNL     1       5.122   3.888  15.937  0.00  0.00    +0.000 NA
ATOM     31  C   UNL     1       6.328   4.343  16.188  0.00  0.00    +0.000 A 
ATOM     32  N   UNL     1       6.364   4.887  17.437  0.00  0.00    +0.000 N 
ATOM     33  C   UNL     1       7.466   5.602  18.017  0.00  0.00    +0.000 C 
ENDBRANCH  27  28
ENDBRANCH  26  27
ENDBRANCH  19  26
ENDBRANCH   1  23
TORSDOF 6
ENDMDL
