MODEL 1
REMARK VINA RESULT:      -8.4      0.000      0.000
REMARK  Name = 
REMARK  9 active torsions:
REMARK  status: ('A' for Active; 'I' for Inactive)
REMARK    1  A    between atoms: C_1  and  N_2
REMARK    2  A    between atoms: C_3  and  C_5
REMARK    3  A    between atoms: C_5  and  C_6
REMARK    4  A    between atoms: N_15  and  C_16
REMARK    5  A    between atoms: C_20  and  C_21
REMARK    6  A    between atoms: C_21  and  C_22
REMARK    7  A    between atoms: C_21  and  S_23
REMARK    8  A    between atoms: S_23  and  C_24
REMARK    9  A    between atoms: N_28  and  C_29
REMARK                            x       y       z     vdW  Elec       q    Type
REMARK                         _______ _______ _______ _____ _____    ______ ____
ROOT
ATOM      1  C   UNL     1       9.997  11.601  19.024  0.00  0.00    +0.000 C 
ATOM      2  C   UNL     1       9.272  11.907  17.688  0.00  0.00    +0.000 C 
ATOM      3  C   UNL     1       8.059  10.987  17.697  0.00  0.00    +0.000 C 
ATOM      4  N   UNL     1       8.572   9.793  18.336  0.00  0.00    +0.000 N 
ATOM      5  C   UNL     1       8.163   8.479  18.244  0.00  0.00    +0.000 C 
ATOM      6  O   UNL     1       8.676   7.637  18.979  0.00  0.00    +0.000 OA
ATOM      7  N   UNL     1       7.218   8.212  17.281  0.00  0.00    +0.000 N 
ATOM      8  C   UNL     1       9.660  10.123  19.252  0.00  0.00    +0.000 C 
ATOM      9  H   UNL     1       7.079   8.919  16.579  0.00  0.00    +0.000 HD
ENDROOT
BRANCH   7  10
ATOM     10  C   UNL     1       6.666   6.938  16.996  0.00  0.00    +0.000 A 
ATOM     11  C   UNL     1       7.352   5.950  16.286  0.00  0.00    +0.000 A 
ATOM     12  C   UNL     1       6.752   4.722  16.008  0.00  0.00    +0.000 A 
ATOM     13  C   UNL     1       5.457   4.463  16.442  0.00  0.00    +0.000 A 
ATOM     14  C   UNL     1       4.740   5.429  17.163  0.00  0.00    +0.000 A 
ATOM     15  C   UNL     1       5.367   6.661  17.449  0.00  0.00    +0.000 A 
BRANCH  14  16
ATOM     16  C   UNL     1       3.308   5.122  17.574  0.00  0.00    +0.000 C 
ATOM     17  C   UNL     1       3.021   5.659  18.978  0.00  0.00    +0.000 C 
BRANCH  16  18
ATOM     18  S   UNL     1       2.927   3.336  17.540  0.00  0.00    +0.000 S 
BRANCH  18  19
ATOM     19  C   UNL     1       3.434   2.876  19.127  0.00  0.00    +0.000 A 
ATOM     20  N   UNL     1       4.660   2.653  19.532  0.00  0.00    +0.000 NA
ATOM     21  N   UNL     1       4.598   2.305  20.866  0.00  0.00    +0.000 NA
ATOM     22  C   UNL     1       3.335   2.337  21.225  0.00  0.00    +0.000 A 
ATOM     23  N   UNL     1       2.566   2.694  20.158  0.00  0.00    +0.000 N 
ATOM     24  C   UNL     1       1.139   2.859  20.152  0.00  0.00    +0.000 C 
ENDBRANCH  18  19
ENDBRANCH  16  18
ENDBRANCH  14  16
ENDBRANCH   7  10
BRANCH   1  27
ATOM     25  C   UNL     1       8.094  14.402  20.811  0.00  0.00    +0.000 C 
ATOM     26  N   UNL     1       8.726  13.591  19.795  0.00  0.00    +0.000 N 
ATOM     27  C   UNL     1       9.422  12.454  20.152  0.00  0.00    +0.000 C 
ATOM     28  O   UNL     1       9.604  12.163  21.334  0.00  0.00    +0.000 OA
ATOM     29  H   UNL     1       8.404  13.722  18.843  0.00  0.00    +0.000 HD
ENDBRANCH   1  27
BRANCH   1  30
ATOM     30  C   UNL     1      11.496  11.847  18.922  0.00  0.00    +0.000 C 
ATOM     31  F   UNL     1      12.042  11.369  17.781  0.00  0.00    +0.000 F 
ATOM     32  F   UNL     1      11.797  13.167  18.946  0.00  0.00    +0.000 F 
ATOM     33  F   UNL     1      12.185  11.276  19.937  0.00  0.00    +0.000 F 
ENDBRANCH   1  30
TORSDOF 6
ENDMDL
MODEL 2
REMARK VINA RESULT:      -8.4      4.239      9.666
REMARK  Name = 
REMARK  9 active torsions:
REMARK  status: ('A' for Active; 'I' for Inactive)
REMARK    1  A    between atoms: C_1  and  N_2
REMARK    2  A    between atoms: C_3  and  C_5
REMARK    3  A    between atoms: C_5  and  C_6
REMARK    4  A    between atoms: N_15  and  C_16
REMARK    5  A    between atoms: C_20  and  C_21
REMARK    6  A    between atoms: C_21  and  C_22
REMARK    7  A    between atoms: C_21  and  S_23
REMARK    8  A    between atoms: S_23  and  C_24
REMARK    9  A    between atoms: N_28  and  C_29
REMARK                            x       y       z     vdW  Elec       q    Type
REMARK                         _______ _______ _______ _____ _____    ______ ____
ROOT
ATOM      1  C   UNL     1       6.379   5.316  16.811  0.00  0.00    +0.000 C 
ATOM      2  C   UNL     1       7.624   4.909  17.641  0.00  0.00    +0.000 C 
ATOM      3  C   UNL     1       7.798   6.041  18.643  0.00  0.00    +0.000 C 
ATOM      4  N   UNL     1       7.414   7.207  17.873  0.00  0.00    +0.000 N 
ATOM      5  C   UNL     1       7.768   8.532  18.014  0.00  0.00    +0.000 C 
ATOM      6  O   UNL     1       7.219   9.379  17.311  0.00  0.00    +0.000 OA
ATOM      7  N   UNL     1       8.763   8.792  18.928  0.00  0.00    +0.000 N 
ATOM      8  C   UNL     1       6.453   6.847  16.835  0.00  0.00    +0.000 C 
ATOM      9  H   UNL     1       9.307   8.006  19.237  0.00  0.00    +0.000 HD
ENDROOT
BRANCH   7  10
ATOM     10  C   UNL     1       9.296  10.071  19.225  0.00  0.00    +0.000 A 
ATOM     11  C   UNL     1       9.615  10.484  20.521  0.00  0.00    +0.000 A 
ATOM     12  C   UNL     1      10.112  11.765  20.762  0.00  0.00    +0.000 A 
ATOM     13  C   UNL     1      10.301  12.651  19.708  0.00  0.00    +0.000 A 
ATOM     14  C   UNL     1       9.997  12.270  18.393  0.00  0.00    +0.000 A 
ATOM     15  C   UNL     1       9.510  10.965  18.163  0.00  0.00    +0.000 A 
BRANCH  14  16
ATOM     16  C   UNL     1      10.172  13.288  17.276  0.00  0.00    +0.000 C 
ATOM     17  C   UNL     1      11.566  13.176  16.654  0.00  0.00    +0.000 C 
BRANCH  16  18
ATOM     18  S   UNL     1       9.916  15.007  17.837  0.00  0.00    +0.000 S 
BRANCH  18  19
ATOM     19  C   UNL     1       8.224  14.974  18.190  0.00  0.00    +0.000 A 
ATOM     20  N   UNL     1       7.267  14.494  17.433  0.00  0.00    +0.000 NA
ATOM     21  N   UNL     1       6.076  14.683  18.103  0.00  0.00    +0.000 NA
ATOM     22  C   UNL     1       6.354  15.265  19.247  0.00  0.00    +0.000 A 
ATOM     23  N   UNL     1       7.698  15.465  19.343  0.00  0.00    +0.000 N 
ATOM     24  C   UNL     1       8.395  16.056  20.451  0.00  0.00    +0.000 C 
ENDBRANCH  18  19
ENDBRANCH  16  18
ENDBRANCH  14  16
ENDBRANCH   7  10
BRANCH   1  27
ATOM     25  C   UNL     1       3.999   3.156  18.892  0.00  0.00    +0.000 C 
ATOM     26  N   UNL     1       5.153   3.631  18.162  0.00  0.00    +0.000 N 
ATOM     27  C   UNL     1       5.101   4.838  17.495  0.00  0.00    +0.000 C 
ATOM     28  O   UNL     1       4.054   5.482  17.424  0.00  0.00    +0.000 OA
ATOM     29  H   UNL     1       6.043   3.206  18.393  0.00  0.00    +0.000 HD
ENDBRANCH   1  27
BRANCH   1  30
ATOM     30  C   UNL     1       6.433   4.753  15.398  0.00  0.00    +0.000 C 
ATOM     31  F   UNL     1       6.317   3.406  15.352  0.00  0.00    +0.000 F 
ATOM     32  F   UNL     1       5.433   5.233  14.621  0.00  0.00    +0.000 F 
ATOM     33  F   UNL     1       7.591   5.052  14.765  0.00  0.00    +0.000 F 
ENDBRANCH   1  30
TORSDOF 6
ENDMDL
MODEL 3
REMARK VINA RESULT:      -8.3      1.285      1.685
REMARK  Name = 
REMARK  9 active torsions:
REMARK  status: ('A' for Active; 'I' for Inactive)
REMARK    1  A    between atoms: C_1  and  N_2
REMARK    2  A    between atoms: C_3  and  C_5
REMARK    3  A    between atoms: C_5  and  C_6
REMARK    4  A    between atoms: N_15  and  C_16
REMARK    5  A    between atoms: C_20  and  C_21
REMARK    6  A    between atoms: C_21  and  C_22
REMARK    7  A    between atoms: C_21  and  S_23
REMARK    8  A    between atoms: S_23  and  C_24
REMARK    9  A    between atoms: N_28  and  C_29
REMARK                            x       y       z     vdW  Elec       q    Type
REMARK                         _______ _______ _______ _____ _____    ______ ____
ROOT
ATOM      1  C   UNL     1      10.110  11.667  19.227  0.00  0.00    +0.000 C 
ATOM      2  C   UNL     1       9.443  12.031  17.876  0.00  0.00    +0.000 C 
ATOM      3  C   UNL     1       8.216  11.134  17.806  0.00  0.00    +0.000 C 
ATOM      4  N   UNL     1       8.683   9.910  18.424  0.00  0.00    +0.000 N 
ATOM      5  C   UNL     1       8.254   8.607  18.272  0.00  0.00    +0.000 C 
ATOM      6  O   UNL     1       8.724   7.732  18.997  0.00  0.00    +0.000 OA
ATOM      7  N   UNL     1       7.344   8.391  17.264  0.00  0.00    +0.000 N 
ATOM      8  C   UNL     1       9.739  10.190  19.392  0.00  0.00    +0.000 C 
ATOM      9  H   UNL     1       7.244   9.122  16.582  0.00  0.00    +0.000 HD
ENDROOT
BRANCH   7  10
ATOM     10  C   UNL     1       6.782   7.137  16.915  0.00  0.00    +0.000 A 
ATOM     11  C   UNL     1       7.389   6.248  16.026  0.00  0.00    +0.000 A 
ATOM     12  C   UNL     1       6.779   5.038  15.695  0.00  0.00    +0.000 A 
ATOM     13  C   UNL     1       5.552   4.698  16.253  0.00  0.00    +0.000 A 
ATOM     14  C   UNL     1       4.915   5.563  17.155  0.00  0.00    +0.000 A 
ATOM     15  C   UNL     1       5.553   6.777  17.491  0.00  0.00    +0.000 A 
BRANCH  14  16
ATOM     16  C   UNL     1       3.550   5.174  17.703  0.00  0.00    +0.000 C 
ATOM     17  C   UNL     1       2.708   6.419  17.993  0.00  0.00    +0.000 C 
BRANCH  16  18
ATOM     18  S   UNL     1       3.658   4.171  19.225  0.00  0.00    +0.000 S 
BRANCH  18  19
ATOM     19  C   UNL     1       2.177   3.285  19.123  0.00  0.00    +0.000 A 
ATOM     20  N   UNL     1       1.533   2.943  18.034  0.00  0.00    +0.000 NA
ATOM     21  N   UNL     1       0.401   2.255  18.421  0.00  0.00    +0.000 NA
ATOM     22  C   UNL     1       0.403   2.198  19.733  0.00  0.00    +0.000 A 
ATOM     23  N   UNL     1       1.507   2.833  20.217  0.00  0.00    +0.000 N 
ATOM     24  C   UNL     1       1.877   2.968  21.598  0.00  0.00    +0.000 C 
ENDBRANCH  18  19
ENDBRANCH  16  18
ENDBRANCH  14  16
ENDBRANCH   7  10
BRANCH   1  27
ATOM     25  C   UNL     1       8.788  12.595  22.699  0.00  0.00    +0.000 C 
ATOM     26  N   UNL     1       9.289  11.853  21.564  0.00  0.00    +0.000 N 
ATOM     27  C   UNL     1       9.506  12.493  20.360  0.00  0.00    +0.000 C 
ATOM     28  O   UNL     1       9.189  13.671  20.199  0.00  0.00    +0.000 OA
ATOM     29  H   UNL     1       9.727  10.961  21.762  0.00  0.00    +0.000 HD
ENDBRANCH   1  27
BRANCH   1  30
ATOM     30  C   UNL     1      11.616  11.888  19.192  0.00  0.00    +0.000 C 
ATOM     31  F   UNL     1      11.965  13.148  18.842  0.00  0.00    +0.000 F 
ATOM     32  F   UNL     1      12.189  11.673  20.400  0.00  0.00    +0.000 F 
ATOM     33  F   UNL     1      12.240  11.068  18.316  0.00  0.00    +0.000 F 
ENDBRANCH   1  30
TORSDOF 6
ENDMDL
MODEL 4
REMARK VINA RESULT:      -8.3      4.417      9.718
REMARK  Name = 
REMARK  9 active torsions:
REMARK  status: ('A' for Active; 'I' for Inactive)
REMARK    1  A    between atoms: C_1  and  N_2
REMARK    2  A    between atoms: C_3  and  C_5
REMARK    3  A    between atoms: C_5  and  C_6
REMARK    4  A    between atoms: N_15  and  C_16
REMARK    5  A    between atoms: C_20  and  C_21
REMARK    6  A    between atoms: C_21  and  C_22
REMARK    7  A    between atoms: C_21  and  S_23
REMARK    8  A    between atoms: S_23  and  C_24
REMARK    9  A    between atoms: N_28  and  C_29
REMARK                            x       y       z     vdW  Elec       q    Type
REMARK                         _______ _______ _______ _____ _____    ______ ____
ROOT
ATOM      1  C   UNL     1       6.439   5.430  16.905  0.00  0.00    +0.000 C 
ATOM      2  C   UNL     1       7.686   5.023  17.731  0.00  0.00    +0.000 C 
ATOM      3  C   UNL     1       7.866   6.158  18.729  0.00  0.00    +0.000 C 
ATOM      4  N   UNL     1       7.481   7.322  17.957  0.00  0.00    +0.000 N 
ATOM      5  C   UNL     1       7.837   8.647  18.093  0.00  0.00    +0.000 C 
ATOM      6  O   UNL     1       7.287   9.493  17.390  0.00  0.00    +0.000 OA
ATOM      7  N   UNL     1       8.836   8.908  19.003  0.00  0.00    +0.000 N 
ATOM      8  C   UNL     1       6.515   6.960  16.924  0.00  0.00    +0.000 C 
ATOM      9  H   UNL     1       9.380   8.122  19.312  0.00  0.00    +0.000 HD
ENDROOT
BRANCH   7  10
ATOM     10  C   UNL     1       9.373  10.187  19.294  0.00  0.00    +0.000 A 
ATOM     11  C   UNL     1       9.700  10.602  20.587  0.00  0.00    +0.000 A 
ATOM     12  C   UNL     1      10.199  11.883  20.822  0.00  0.00    +0.000 A 
ATOM     13  C   UNL     1      10.383  12.767  19.765  0.00  0.00    +0.000 A 
ATOM     14  C   UNL     1      10.071  12.383  18.453  0.00  0.00    +0.000 A 
ATOM     15  C   UNL     1       9.581  11.079  18.229  0.00  0.00    +0.000 A 
BRANCH  14  16
ATOM     16  C   UNL     1      10.240  13.399  17.333  0.00  0.00    +0.000 C 
ATOM     17  C   UNL     1      11.643  13.310  16.728  0.00  0.00    +0.000 C 
BRANCH  16  18
ATOM     18  S   UNL     1       9.947  15.115  17.883  0.00  0.00    +0.000 S 
BRANCH  18  19
ATOM     19  C   UNL     1       8.220  15.130  17.960  0.00  0.00    +0.000 A 
ATOM     20  N   UNL     1       7.406  14.143  17.672  0.00  0.00    +0.000 NA
ATOM     21  N   UNL     1       6.118  14.598  17.867  0.00  0.00    +0.000 NA
ATOM     22  C   UNL     1       6.197  15.845  18.274  0.00  0.00    +0.000 A 
ATOM     23  N   UNL     1       7.505  16.220  18.349  0.00  0.00    +0.000 N 
ATOM     24  C   UNL     1       8.002  17.499  18.773  0.00  0.00    +0.000 C 
ENDBRANCH  18  19
ENDBRANCH  16  18
ENDBRANCH  14  16
ENDBRANCH   7  10
BRANCH   1  27
ATOM     25  C   UNL     1       2.783   5.325  18.037  0.00  0.00    +0.000 C 
ATOM     26  N   UNL     1       4.043   5.753  17.471  0.00  0.00    +0.000 N 
ATOM     27  C   UNL     1       5.163   4.956  17.595  0.00  0.00    +0.000 C 
ATOM     28  O   UNL     1       5.140   3.925  18.268  0.00  0.00    +0.000 OA
ATOM     29  H   UNL     1       4.000   6.478  16.765  0.00  0.00    +0.000 HD
ENDBRANCH   1  27
BRANCH   1  30
ATOM     30  C   UNL     1       6.487   4.862  15.493  0.00  0.00    +0.000 C 
ATOM     31  F   UNL     1       7.644   5.131  14.845  0.00  0.00    +0.000 F 
ATOM     32  F   UNL     1       6.368   3.513  15.483  0.00  0.00    +0.000 F 
ATOM     33  F   UNL     1       5.496   5.343  14.707  0.00  0.00    +0.000 F 
ENDBRANCH   1  30
TORSDOF 6
ENDMDL
MODEL 5
REMARK VINA RESULT:      -8.2      5.971      7.825
REMARK  Name = 
REMARK  9 active torsions:
REMARK  status: ('A' for Active; 'I' for Inactive)
REMARK    1  A    between atoms: C_1  and  N_2
REMARK    2  A    between atoms: C_3  and  C_5
REMARK    3  A    between atoms: C_5  and  C_6
REMARK    4  A    between atoms: N_15  and  C_16
REMARK    5  A    between atoms: C_20  and  C_21
REMARK    6  A    between atoms: C_21  and  C_22
REMARK    7  A    between atoms: C_21  and  S_23
REMARK    8  A    between atoms: S_23  and  C_24
REMARK    9  A    between atoms: N_28  and  C_29
REMARK                            x       y       z     vdW  Elec       q    Type
REMARK                         _______ _______ _______ _____ _____    ______ ____
ROOT
ATOM      1  C   UNL     1       0.197  11.197  20.294  0.00  0.00    +0.000 C 
ATOM      2  C   UNL     1       0.230  10.136  21.424  0.00  0.00    +0.000 C 
ATOM      3  C   UNL     1       1.382   9.216  21.044  0.00  0.00    +0.000 C 
ATOM      4  N   UNL     1       1.291   9.174  19.600  0.00  0.00    +0.000 N 
ATOM      5  C   UNL     1       1.708   8.214  18.701  0.00  0.00    +0.000 C 
ATOM      6  O   UNL     1       1.634   8.447  17.496  0.00  0.00    +0.000 OA
ATOM      7  N   UNL     1       2.143   7.030  19.249  0.00  0.00    +0.000 N 
ATOM      8  C   UNL     1       0.703  10.407  19.083  0.00  0.00    +0.000 C 
ATOM      9  H   UNL     1       1.906   6.866  20.212  0.00  0.00    +0.000 HD
ENDROOT
BRANCH   7  10
ATOM     10  C   UNL     1       2.599   5.902  18.521  0.00  0.00    +0.000 A 
ATOM     11  C   UNL     1       2.012   4.639  18.624  0.00  0.00    +0.000 A 
ATOM     12  C   UNL     1       2.518   3.555  17.906  0.00  0.00    +0.000 A 
ATOM     13  C   UNL     1       3.617   3.721  17.072  0.00  0.00    +0.000 A 
ATOM     14  C   UNL     1       4.228   4.976  16.939  0.00  0.00    +0.000 A 
ATOM     15  C   UNL     1       3.695   6.066  17.660  0.00  0.00    +0.000 A 
BRANCH  14  16
ATOM     16  C   UNL     1       5.459   5.102  16.054  0.00  0.00    +0.000 C 
ATOM     17  C   UNL     1       5.332   4.208  14.818  0.00  0.00    +0.000 C 
BRANCH  16  18
ATOM     18  S   UNL     1       7.007   4.679  16.927  0.00  0.00    +0.000 S 
BRANCH  18  19
ATOM     19  C   UNL     1       7.541   6.253  17.401  0.00  0.00    +0.000 A 
ATOM     20  N   UNL     1       7.641   7.317  16.642  0.00  0.00    +0.000 NA
ATOM     21  N   UNL     1       8.114   8.346  17.431  0.00  0.00    +0.000 NA
ATOM     22  C   UNL     1       8.276   7.870  18.645  0.00  0.00    +0.000 A 
ATOM     23  N   UNL     1       7.924   6.554  18.671  0.00  0.00    +0.000 N 
ATOM     24  C   UNL     1       7.944   5.689  19.817  0.00  0.00    +0.000 C 
ENDBRANCH  18  19
ENDBRANCH  16  18
ENDBRANCH  14  16
ENDBRANCH   7  10
BRANCH   1  27
ATOM     25  C   UNL     1       2.921  13.848  19.833  0.00  0.00    +0.000 C 
ATOM     26  N   UNL     1       2.040  12.720  19.625  0.00  0.00    +0.000 N 
ATOM     27  C   UNL     1       1.151  12.346  20.611  0.00  0.00    +0.000 C 
ATOM     28  O   UNL     1       1.156  12.892  21.715  0.00  0.00    +0.000 OA
ATOM     29  H   UNL     1       1.906  12.420  18.666  0.00  0.00    +0.000 HD
ENDBRANCH   1  27
BRANCH   1  30
ATOM     30  C   UNL     1      -1.205  11.753  20.082  0.00  0.00    +0.000 C 
ATOM     31  F   UNL     1      -1.950  11.017  19.226  0.00  0.00    +0.000 F 
ATOM     32  F   UNL     1      -1.913  11.798  21.236  0.00  0.00    +0.000 F 
ATOM     33  F   UNL     1      -1.194  13.011  19.586  0.00  0.00    +0.000 F 
ENDBRANCH   1  30
TORSDOF 6
ENDMDL
MODEL 6
REMARK VINA RESULT:      -8.1      7.456      9.922
REMARK  Name = 
REMARK  9 active torsions:
REMARK  status: ('A' for Active; 'I' for Inactive)
REMARK    1  A    between atoms: C_1  and  N_2
REMARK    2  A    between atoms: C_3  and  C_5
REMARK    3  A    between atoms: C_5  and  C_6
REMARK    4  A    between atoms: N_15  and  C_16
REMARK    5  A    between atoms: C_20  and  C_21
REMARK    6  A    between atoms: C_21  and  C_22
REMARK    7  A    between atoms: C_21  and  S_23
REMARK    8  A    between atoms: S_23  and  C_24
REMARK    9  A    between atoms: N_28  and  C_29
REMARK                            x       y       z     vdW  Elec       q    Type
REMARK                         _______ _______ _______ _____ _____    ______ ____
ROOT
ATOM      1  C   UNL     1       3.768   4.521  18.270  0.00  0.00    +0.000 C 
ATOM      2  C   UNL     1       3.562   5.645  17.223  0.00  0.00    +0.000 C 
ATOM      3  C   UNL     1       3.457   6.918  18.051  0.00  0.00    +0.000 C 
ATOM      4  N   UNL     1       2.745   6.471  19.230  0.00  0.00    +0.000 N 
ATOM      5  C   UNL     1       1.951   7.167  20.117  0.00  0.00    +0.000 C 
ATOM      6  O   UNL     1       1.539   6.600  21.128  0.00  0.00    +0.000 OA
ATOM      7  N   UNL     1       1.646   8.460  19.761  0.00  0.00    +0.000 N 
ATOM      8  C   UNL     1       3.005   5.057  19.486  0.00  0.00    +0.000 C 
ATOM      9  H   UNL     1       1.815   8.715  18.803  0.00  0.00    +0.000 HD
ENDROOT
BRANCH   7  10
ATOM     10  C   UNL     1       0.836   9.353  20.506  0.00  0.00    +0.000 A 
ATOM     11  C   UNL     1       0.612   9.216  21.878  0.00  0.00    +0.000 A 
ATOM     12  C   UNL     1      -0.217  10.107  22.560  0.00  0.00    +0.000 A 
ATOM     13  C   UNL     1      -0.832  11.151  21.878  0.00  0.00    +0.000 A 
ATOM     14  C   UNL     1      -0.626  11.322  20.501  0.00  0.00    +0.000 A 
ATOM     15  C   UNL     1       0.229  10.422  19.829  0.00  0.00    +0.000 A 
BRANCH  14  16
ATOM     16  C   UNL     1      -1.358  12.448  19.786  0.00  0.00    +0.000 C 
ATOM     17  C   UNL     1      -1.196  13.768  20.544  0.00  0.00    +0.000 C 
BRANCH  16  18
ATOM     18  S   UNL     1      -3.139  12.110  19.569  0.00  0.00    +0.000 S 
BRANCH  18  19
ATOM     19  C   UNL     1      -3.158  11.562  17.930  0.00  0.00    +0.000 A 
ATOM     20  N   UNL     1      -2.124  11.369  17.148  0.00  0.00    +0.000 NA
ATOM     21  N   UNL     1      -2.602  10.939  15.927  0.00  0.00    +0.000 NA
ATOM     22  C   UNL     1      -3.912  10.880  16.014  0.00  0.00    +0.000 A 
ATOM     23  N   UNL     1      -4.304  11.263  17.261  0.00  0.00    +0.000 N 
ATOM     24  C   UNL     1      -5.653  11.312  17.753  0.00  0.00    +0.000 C 
ENDBRANCH  18  19
ENDBRANCH  16  18
ENDBRANCH  14  16
ENDBRANCH   7  10
BRANCH   1  27
ATOM     25  C   UNL     1       7.576   4.743  17.942  0.00  0.00    +0.000 C 
ATOM     26  N   UNL     1       6.159   4.794  17.658  0.00  0.00    +0.000 N 
ATOM     27  C   UNL     1       5.249   4.365  18.603  0.00  0.00    +0.000 C 
ATOM     28  O   UNL     1       5.620   3.842  19.654  0.00  0.00    +0.000 OA
ATOM     29  H   UNL     1       5.870   5.398  16.899  0.00  0.00    +0.000 HD
ENDBRANCH   1  27
BRANCH   1  30
ATOM     30  C   UNL     1       3.220   3.186  17.781  0.00  0.00    +0.000 C 
ATOM     31  F   UNL     1       2.297   3.312  16.801  0.00  0.00    +0.000 F 
ATOM     32  F   UNL     1       4.192   2.396  17.268  0.00  0.00    +0.000 F 
ATOM     33  F   UNL     1       2.626   2.478  18.768  0.00  0.00    +0.000 F 
ENDBRANCH   1  30
TORSDOF 6
ENDMDL
MODEL 7
REMARK VINA RESULT:      -8.0      7.971     10.296
REMARK  Name = 
REMARK  9 active torsions:
REMARK  status: ('A' for Active; 'I' for Inactive)
REMARK    1  A    between atoms: C_1  and  N_2
REMARK    2  A    between atoms: C_3  and  C_5
REMARK    3  A    between atoms: C_5  and  C_6
REMARK    4  A    between atoms: N_15  and  C_16
REMARK    5  A    between atoms: C_20  and  C_21
REMARK    6  A    between atoms: C_21  and  C_22
REMARK    7  A    between atoms: C_21  and  S_23
REMARK    8  A    between atoms: S_23  and  C_24
REMARK    9  A    between atoms: N_28  and  C_29
REMARK                            x       y       z     vdW  Elec       q    Type
REMARK                         _______ _______ _______ _____ _____    ______ ____
ROOT
ATOM      1  C   UNL     1       3.932   4.837  17.969  0.00  0.00    +0.000 C 
ATOM      2  C   UNL     1       3.856   6.171  17.183  0.00  0.00    +0.000 C 
ATOM      3  C   UNL     1       3.698   7.235  18.260  0.00  0.00    +0.000 C 
ATOM      4  N   UNL     1       2.863   6.573  19.240  0.00  0.00    +0.000 N 
ATOM      5  C   UNL     1       2.001   7.092  20.183  0.00  0.00    +0.000 C 
ATOM      6  O   UNL     1       1.479   6.336  21.002  0.00  0.00    +0.000 OA
ATOM      7  N   UNL     1       1.762   8.444  20.096  0.00  0.00    +0.000 N 
ATOM      8  C   UNL     1       3.065   5.127  19.199  0.00  0.00    +0.000 C 
ATOM      9  H   UNL     1       2.030   8.894  19.238  0.00  0.00    +0.000 HD
ENDROOT
BRANCH   7  10
ATOM     10  C   UNL     1       0.903   9.186  20.944  0.00  0.00    +0.000 A 
ATOM     11  C   UNL     1       0.830   8.984  22.324  0.00  0.00    +0.000 A 
ATOM     12  C   UNL     1      -0.054   9.724  23.110  0.00  0.00    +0.000 A 
ATOM     13  C   UNL     1      -0.877  10.679  22.525  0.00  0.00    +0.000 A 
ATOM     14  C   UNL     1      -0.828  10.913  21.143  0.00  0.00    +0.000 A 
ATOM     15  C   UNL     1       0.083  10.168  20.364  0.00  0.00    +0.000 A 
BRANCH  14  16
ATOM     16  C   UNL     1      -1.782  11.933  20.538  0.00  0.00    +0.000 C 
ATOM     17  C   UNL     1      -1.296  12.375  19.156  0.00  0.00    +0.000 C 
BRANCH  16  18
ATOM     18  S   UNL     1      -1.995  13.413  21.587  0.00  0.00    +0.000 S 
BRANCH  18  19
ATOM     19  C   UNL     1      -3.551  13.094  22.269  0.00  0.00    +0.000 A 
ATOM     20  N   UNL     1      -4.532  12.420  21.720  0.00  0.00    +0.000 NA
ATOM     21  N   UNL     1      -5.585  12.421  22.613  0.00  0.00    +0.000 NA
ATOM     22  C   UNL     1      -5.200  13.090  23.676  0.00  0.00    +0.000 A 
ATOM     23  N   UNL     1      -3.923  13.530  23.502  0.00  0.00    +0.000 N 
ATOM     24  C   UNL     1      -3.143  14.281  24.447  0.00  0.00    +0.000 C 
ENDBRANCH  18  19
ENDBRANCH  16  18
ENDBRANCH  14  16
ENDBRANCH   7  10
BRANCH   1  27
ATOM     25  C   UNL     1       7.754   4.628  17.839  0.00  0.00    +0.000 C 
ATOM     26  N   UNL     1       6.366   4.810  17.475  0.00  0.00    +0.000 N 
ATOM     27  C   UNL     1       5.370   4.548  18.393  0.00  0.00    +0.000 C 
ATOM     28  O   UNL     1       5.630   4.064  19.495  0.00  0.00    +0.000 OA
ATOM     29  H   UNL     1       6.182   5.387  16.663  0.00  0.00    +0.000 HD
ENDBRANCH   1  27
BRANCH   1  30
ATOM     30  C   UNL     1       3.406   3.667  17.149  0.00  0.00    +0.000 C 
ATOM     31  F   UNL     1       3.857   3.660  15.874  0.00  0.00    +0.000 F 
ATOM     32  F   UNL     1       3.773   2.474  17.673  0.00  0.00    +0.000 F 
ATOM     33  F   UNL     1       2.056   3.656  17.070  0.00  0.00    +0.000 F 
ENDBRANCH   1  30
TORSDOF 6
ENDMDL
MODEL 8
REMARK VINA RESULT:      -8.0      4.160      9.754
REMARK  Name = 
REMARK  9 active torsions:
REMARK  status: ('A' for Active; 'I' for Inactive)
REMARK    1  A    between atoms: C_1  and  N_2
REMARK    2  A    between atoms: C_3  and  C_5
REMARK    3  A    between atoms: C_5  and  C_6
REMARK    4  A    between atoms: N_15  and  C_16
REMARK    5  A    between atoms: C_20  and  C_21
REMARK    6  A    between atoms: C_21  and  C_22
REMARK    7  A    between atoms: C_21  and  S_23
REMARK    8  A    between atoms: S_23  and  C_24
REMARK    9  A    between atoms: N_28  and  C_29
REMARK                            x       y       z     vdW  Elec       q    Type
REMARK                         _______ _______ _______ _____ _____    ______ ____
ROOT
ATOM      1  C   UNL     1       6.431   5.208  17.152  0.00  0.00    +0.000 C 
ATOM      2  C   UNL     1       7.732   4.891  17.934  0.00  0.00    +0.000 C 
ATOM      3  C   UNL     1       7.948   6.110  18.819  0.00  0.00    +0.000 C 
ATOM      4  N   UNL     1       7.496   7.197  17.976  0.00  0.00    +0.000 N 
ATOM      5  C   UNL     1       7.835   8.535  17.978  0.00  0.00    +0.000 C 
ATOM      6  O   UNL     1       7.229   9.309  17.239  0.00  0.00    +0.000 OA
ATOM      7  N   UNL     1       8.880   8.886  18.800  0.00  0.00    +0.000 N 
ATOM      8  C   UNL     1       6.479   6.736  17.037  0.00  0.00    +0.000 C 
ATOM      9  H   UNL     1       9.456   8.137  19.142  0.00  0.00    +0.000 HD
ENDROOT
BRANCH   7  10
ATOM     10  C   UNL     1       9.409  10.193  18.949  0.00  0.00    +0.000 A 
ATOM     11  C   UNL     1      10.309  10.761  18.045  0.00  0.00    +0.000 A 
ATOM     12  C   UNL     1      10.821  12.041  18.254  0.00  0.00    +0.000 A 
ATOM     13  C   UNL     1      10.437  12.775  19.370  0.00  0.00    +0.000 A 
ATOM     14  C   UNL     1       9.530  12.239  20.297  0.00  0.00    +0.000 A 
ATOM     15  C   UNL     1       9.009  10.948  20.063  0.00  0.00    +0.000 A 
BRANCH  14  16
ATOM     16  C   UNL     1       9.176  13.056  21.530  0.00  0.00    +0.000 C 
ATOM     17  C   UNL     1       8.879  12.140  22.720  0.00  0.00    +0.000 C 
BRANCH  16  18
ATOM     18  S   UNL     1       7.741  14.154  21.265  0.00  0.00    +0.000 S 
BRANCH  18  19
ATOM     19  C   UNL     1       8.423  15.303  20.168  0.00  0.00    +0.000 A 
ATOM     20  N   UNL     1       9.355  16.189  20.429  0.00  0.00    +0.000 NA
ATOM     21  N   UNL     1       9.587  16.898  19.268  0.00  0.00    +0.000 NA
ATOM     22  C   UNL     1       8.793  16.411  18.342  0.00  0.00    +0.000 A 
ATOM     23  N   UNL     1       8.043  15.402  18.866  0.00  0.00    +0.000 N 
ATOM     24  C   UNL     1       7.073  14.608  18.166  0.00  0.00    +0.000 C 
ENDBRANCH  18  19
ENDBRANCH  16  18
ENDBRANCH  14  16
ENDBRANCH   7  10
BRANCH   1  27
ATOM     25  C   UNL     1       4.250   3.278  19.638  0.00  0.00    +0.000 C 
ATOM     26  N   UNL     1       5.350   3.692  18.795  0.00  0.00    +0.000 N 
ATOM     27  C   UNL     1       5.206   4.777  17.955  0.00  0.00    +0.000 C 
ATOM     28  O   UNL     1       4.123   5.349  17.831  0.00  0.00    +0.000 OA
ATOM     29  H   UNL     1       6.270   3.354  19.051  0.00  0.00    +0.000 HD
ENDBRANCH   1  27
BRANCH   1  30
ATOM     30  C   UNL     1       6.407   4.522  15.793  0.00  0.00    +0.000 C 
ATOM     31  F   UNL     1       5.539   5.087  14.922  0.00  0.00    +0.000 F 
ATOM     32  F   UNL     1       7.615   4.563  15.182  0.00  0.00    +0.000 F 
ATOM     33  F   UNL     1       6.060   3.218  15.877  0.00  0.00    +0.000 F 
ENDBRANCH   1  30
TORSDOF 6
ENDMDL
MODEL 9
REMARK VINA RESULT:      -8.0      6.390      8.149
REMARK  Name = 
REMARK  9 active torsions:
REMARK  status: ('A' for Active; 'I' for Inactive)
REMARK    1  A    between atoms: C_1  and  N_2
REMARK    2  A    between atoms: C_3  and  C_5
REMARK    3  A    between atoms: C_5  and  C_6
REMARK    4  A    between atoms: N_15  and  C_16
REMARK    5  A    between atoms: C_20  and  C_21
REMARK    6  A    between atoms: C_21  and  C_22
REMARK    7  A    between atoms: C_21  and  S_23
REMARK    8  A    between atoms: S_23  and  C_24
REMARK    9  A    between atoms: N_28  and  C_29
REMARK                            x       y       z     vdW  Elec       q    Type
REMARK                         _______ _______ _______ _____ _____    ______ ____
ROOT
ATOM      1  C   UNL     1      -0.013  11.670  20.137  0.00  0.00    +0.000 C 
ATOM      2  C   UNL     1      -0.315  10.562  21.178  0.00  0.00    +0.000 C 
ATOM      3  C   UNL     1       0.839   9.581  21.032  0.00  0.00    +0.000 C 
ATOM      4  N   UNL     1       1.099   9.607  19.608  0.00  0.00    +0.000 N 
ATOM      5  C   UNL     1       1.666   8.660  18.781  0.00  0.00    +0.000 C 
ATOM      6  O   UNL     1       1.901   8.949  17.609  0.00  0.00    +0.000 OA
ATOM      7  N   UNL     1       1.886   7.426  19.347  0.00  0.00    +0.000 N 
ATOM      8  C   UNL     1       0.726  10.899  19.038  0.00  0.00    +0.000 C 
ATOM      9  H   UNL     1       1.414   7.238  20.215  0.00  0.00    +0.000 HD
ENDROOT
BRANCH   7  10
ATOM     10  C   UNL     1       2.440   6.302  18.685  0.00  0.00    +0.000 A 
ATOM     11  C   UNL     1       1.915   5.012  18.800  0.00  0.00    +0.000 A 
ATOM     12  C   UNL     1       2.515   3.934  18.149  0.00  0.00    +0.000 A 
ATOM     13  C   UNL     1       3.649   4.132  17.370  0.00  0.00    +0.000 A 
ATOM     14  C   UNL     1       4.201   5.413  17.228  0.00  0.00    +0.000 A 
ATOM     15  C   UNL     1       3.573   6.496  17.880  0.00  0.00    +0.000 A 
BRANCH  14  16
ATOM     16  C   UNL     1       5.472   5.576  16.406  0.00  0.00    +0.000 C 
ATOM     17  C   UNL     1       5.275   6.621  15.305  0.00  0.00    +0.000 C 
BRANCH  16  18
ATOM     18  S   UNL     1       6.025   4.013  15.640  0.00  0.00    +0.000 S 
BRANCH  18  19
ATOM     19  C   UNL     1       6.937   4.624  14.304  0.00  0.00    +0.000 A 
ATOM     20  N   UNL     1       7.939   5.468  14.350  0.00  0.00    +0.000 NA
ATOM     21  N   UNL     1       8.360   5.681  13.053  0.00  0.00    +0.000 NA
ATOM     22  C   UNL     1       7.601   4.952  12.267  0.00  0.00    +0.000 A 
ATOM     23  N   UNL     1       6.692   4.267  13.015  0.00  0.00    +0.000 N 
ATOM     24  C   UNL     1       5.702   3.349  12.525  0.00  0.00    +0.000 C 
ENDBRANCH  18  19
ENDBRANCH  16  18
ENDBRANCH  14  16
ENDBRANCH   7  10
BRANCH   1  27
ATOM     25  C   UNL     1       2.838  14.206  20.462  0.00  0.00    +0.000 C 
ATOM     26  N   UNL     1       1.977  13.149  19.982  0.00  0.00    +0.000 N 
ATOM     27  C   UNL     1       0.900  12.735  20.740  0.00  0.00    +0.000 C 
ATOM     28  O   UNL     1       0.710  13.180  21.872  0.00  0.00    +0.000 OA
ATOM     29  H   UNL     1       2.020  12.942  18.991  0.00  0.00    +0.000 HD
ENDBRANCH   1  27
BRANCH   1  30
ATOM     30  C   UNL     1      -1.287  12.331  19.629  0.00  0.00    +0.000 C 
ATOM     31  F   UNL     1      -2.361  12.105  20.420  0.00  0.00    +0.000 F 
ATOM     32  F   UNL     1      -1.166  13.678  19.554  0.00  0.00    +0.000 F 
ATOM     33  F   UNL     1      -1.633  11.905  18.393  0.00  0.00    +0.000 F 
ENDBRANCH   1  30
TORSDOF 6
ENDMDL
