MODEL 1
REMARK VINA RESULT:      -7.8      0.000      0.000
REMARK  Name = 
REMARK  7 active torsions:
REMARK  status: ('A' for Active; 'I' for Inactive)
REMARK    1  A    between atoms: C_1  and  C_2
REMARK    2  A    between atoms: C_2  and  S_3
REMARK    3  A    between atoms: C_2  and  C_10
REMARK    4  A    between atoms: S_3  and  C_4
REMARK    5  A    between atoms: N_8  and  C_9
REMARK    6  A    between atoms: C_14  and  N_15
REMARK    7  A    between atoms: C_23  and  O_24
REMARK                            x       y       z     vdW  Elec       q    Type
REMARK                         _______ _______ _______ _____ _____    ______ ____
ROOT
ATOM      1  C   UNL     1       0.258  10.028  19.301  0.00  0.00    +0.000 A 
ATOM      2  C   UNL     1      -0.141   9.717  20.614  0.00  0.00    +0.000 A 
ATOM      3  C   UNL     1       0.476   8.690  21.325  0.00  0.00    +0.000 A 
ATOM      4  C   UNL     1       1.481   7.932  20.728  0.00  0.00    +0.000 A 
ATOM      5  C   UNL     1       1.856   8.167  19.406  0.00  0.00    +0.000 A 
ATOM      6  C   UNL     1       1.242   9.212  18.703  0.00  0.00    +0.000 A 
ENDROOT
BRANCH   5   7
ATOM      7  N   UNL     1       2.859   7.416  18.752  0.00  0.00    +0.000 N 
ATOM      8  C   UNL     1       2.765   6.098  18.378  0.00  0.00    +0.000 C 
ATOM      9  O   UNL     1       1.766   5.388  18.487  0.00  0.00    +0.000 OA
ATOM     10  N   UNL     1       3.892   5.601  17.803  0.00  0.00    +0.000 N 
ATOM     11  C   UNL     1       4.085   4.331  17.108  0.00  0.00    +0.000 C 
ATOM     12  C   UNL     1       5.371   4.965  16.650  0.00  0.00    +0.000 C 
ATOM     13  C   UNL     1       6.580   4.105  16.399  0.00  0.00    +0.000 C 
ATOM     14  C   UNL     1       6.935   5.092  15.258  0.00  0.00    +0.000 C 
ATOM     15  C   UNL     1       5.444   5.539  15.247  0.00  0.00    +0.000 C 
ATOM     16  C   UNL     1       5.312   5.916  17.823  0.00  0.00    +0.000 C 
ATOM     17  H   UNL     1       3.588   7.936  18.284  0.00  0.00    +0.000 HD
BRANCH  15  18
ATOM     18  O   UNL     1       5.194   6.944  15.055  0.00  0.00    +0.000 OA
ATOM     19  H   UNL     1       5.763   7.226  14.320  0.00  0.00    +0.000 HD
ENDBRANCH  15  18
ENDBRANCH   5   7
BRANCH   1  21
ATOM     20  C   UNL     1       0.158  12.594  19.183  0.00  0.00    +0.000 C 
ATOM     21  C   UNL     1      -0.340  11.260  18.609  0.00  0.00    +0.000 C 
BRANCH  21  22
ATOM     22  S   UNL     1      -2.181  11.166  18.774  0.00  0.00    +0.000 S 
BRANCH  22  23
ATOM     23  C   UNL     1      -2.684  10.676  17.205  0.00  0.00    +0.000 A 
ATOM     24  N   UNL     1      -2.031   9.927  16.348  0.00  0.00    +0.000 NA
ATOM     25  N   UNL     1      -2.786   9.862  15.195  0.00  0.00    +0.000 NA
ATOM     26  C   UNL     1      -3.878  10.563  15.396  0.00  0.00    +0.000 A 
ATOM     27  N   UNL     1      -3.869  11.078  16.654  0.00  0.00    +0.000 N 
ATOM     28  C   UNL     1      -4.888  11.894  17.255  0.00  0.00    +0.000 C 
ENDBRANCH  22  23
ENDBRANCH  21  22
ENDBRANCH   1  21
TORSDOF 5
ENDMDL
MODEL 2
REMARK VINA RESULT:      -7.7      3.716      8.729
REMARK  Name = 
REMARK  7 active torsions:
REMARK  status: ('A' for Active; 'I' for Inactive)
REMARK    1  A    between atoms: C_1  and  C_2
REMARK    2  A    between atoms: C_2  and  S_3
REMARK    3  A    between atoms: C_2  and  C_10
REMARK    4  A    between atoms: S_3  and  C_4
REMARK    5  A    between atoms: N_8  and  C_9
REMARK    6  A    between atoms: C_14  and  N_15
REMARK    7  A    between atoms: C_23  and  O_24
REMARK                            x       y       z     vdW  Elec       q    Type
REMARK                         _______ _______ _______ _____ _____    ______ ____
ROOT
ATOM      1  C   UNL     1       4.426   5.032  16.834  0.00  0.00    +0.000 A 
ATOM      2  C   UNL     1       3.821   3.862  17.331  0.00  0.00    +0.000 A 
ATOM      3  C   UNL     1       2.615   3.919  18.024  0.00  0.00    +0.000 A 
ATOM      4  C   UNL     1       2.004   5.147  18.266  0.00  0.00    +0.000 A 
ATOM      5  C   UNL     1       2.607   6.333  17.849  0.00  0.00    +0.000 A 
ATOM      6  C   UNL     1       3.812   6.267  17.137  0.00  0.00    +0.000 A 
ENDROOT
BRANCH   5   7
ATOM      7  N   UNL     1       2.034   7.605  18.083  0.00  0.00    +0.000 N 
ATOM      8  C   UNL     1       1.794   8.167  19.313  0.00  0.00    +0.000 C 
ATOM      9  O   UNL     1       2.108   7.683  20.400  0.00  0.00    +0.000 OA
ATOM     10  N   UNL     1       1.192   9.385  19.259  0.00  0.00    +0.000 N 
ATOM     11  C   UNL     1       0.978  10.350  20.333  0.00  0.00    +0.000 C 
ATOM     12  C   UNL     1       0.657  11.290  19.202  0.00  0.00    +0.000 C 
ATOM     13  C   UNL     1      -0.349  12.391  19.408  0.00  0.00    +0.000 C 
ATOM     14  C   UNL     1       0.523  13.244  18.451  0.00  0.00    +0.000 C 
ATOM     15  C   UNL     1       1.711  12.288  18.758  0.00  0.00    +0.000 C 
ATOM     16  C   UNL     1       0.355  10.106  18.313  0.00  0.00    +0.000 C 
ATOM     17  H   UNL     1       2.047   8.260  17.314  0.00  0.00    +0.000 HD
BRANCH  15  18
ATOM     18  O   UNL     1       2.570  11.949  17.653  0.00  0.00    +0.000 OA
ATOM     19  H   UNL     1       3.051  12.760  17.422  0.00  0.00    +0.000 HD
ENDBRANCH  15  18
ENDBRANCH   5   7
BRANCH   1  21
ATOM     20  C   UNL     1       5.602   3.758  14.937  0.00  0.00    +0.000 C 
ATOM     21  C   UNL     1       5.671   4.913  15.947  0.00  0.00    +0.000 C 
BRANCH  21  22
ATOM     22  S   UNL     1       7.136   4.679  17.052  0.00  0.00    +0.000 S 
BRANCH  22  23
ATOM     23  C   UNL     1       7.536   6.287  17.507  0.00  0.00    +0.000 A 
ATOM     24  N   UNL     1       7.475   7.371  16.771  0.00  0.00    +0.000 NA
ATOM     25  N   UNL     1       7.964   8.415  17.528  0.00  0.00    +0.000 NA
ATOM     26  C   UNL     1       8.294   7.932  18.704  0.00  0.00    +0.000 A 
ATOM     27  N   UNL     1       8.023   6.601  18.746  0.00  0.00    +0.000 N 
ATOM     28  C   UNL     1       8.236   5.717  19.859  0.00  0.00    +0.000 C 
ENDBRANCH  22  23
ENDBRANCH  21  22
ENDBRANCH   1  21
TORSDOF 5
ENDMDL
MODEL 3
REMARK VINA RESULT:      -7.3      2.822      4.042
REMARK  Name = 
REMARK  7 active torsions:
REMARK  status: ('A' for Active; 'I' for Inactive)
REMARK    1  A    between atoms: C_1  and  C_2
REMARK    2  A    between atoms: C_2  and  S_3
REMARK    3  A    between atoms: C_2  and  C_10
REMARK    4  A    between atoms: S_3  and  C_4
REMARK    5  A    between atoms: N_8  and  C_9
REMARK    6  A    between atoms: C_14  and  N_15
REMARK    7  A    between atoms: C_23  and  O_24
REMARK                            x       y       z     vdW  Elec       q    Type
REMARK                         _______ _______ _______ _____ _____    ______ ____
ROOT
ATOM      1  C   UNL     1       0.539   9.889  19.800  0.00  0.00    +0.000 A 
ATOM      2  C   UNL     1       0.017   9.376  21.003  0.00  0.00    +0.000 A 
ATOM      3  C   UNL     1       0.482   8.175  21.530  0.00  0.00    +0.000 A 
ATOM      4  C   UNL     1       1.453   7.443  20.852  0.00  0.00    +0.000 A 
ATOM      5  C   UNL     1       1.946   7.883  19.625  0.00  0.00    +0.000 A 
ATOM      6  C   UNL     1       1.486   9.103  19.109  0.00  0.00    +0.000 A 
ENDROOT
BRANCH   5   7
ATOM      7  N   UNL     1       2.921   7.170  18.891  0.00  0.00    +0.000 N 
ATOM      8  C   UNL     1       2.791   5.890  18.409  0.00  0.00    +0.000 C 
ATOM      9  O   UNL     1       1.779   5.195  18.477  0.00  0.00    +0.000 OA
ATOM     10  N   UNL     1       3.898   5.420  17.775  0.00  0.00    +0.000 N 
ATOM     11  C   UNL     1       4.051   4.210  16.972  0.00  0.00    +0.000 C 
ATOM     12  C   UNL     1       5.343   4.853  16.546  0.00  0.00    +0.000 C 
ATOM     13  C   UNL     1       6.528   3.992  16.201  0.00  0.00    +0.000 C 
ATOM     14  C   UNL     1       6.886   5.064  15.141  0.00  0.00    +0.000 C 
ATOM     15  C   UNL     1       5.406   5.542  15.194  0.00  0.00    +0.000 C 
ATOM     16  C   UNL     1       5.325   5.703  17.795  0.00  0.00    +0.000 C 
ATOM     17  H   UNL     1       3.654   7.713  18.456  0.00  0.00    +0.000 HD
BRANCH  15  18
ATOM     18  O   UNL     1       5.184   6.963  15.126  0.00  0.00    +0.000 OA
ATOM     19  H   UNL     1       4.314   7.123  15.526  0.00  0.00    +0.000 HD
ENDBRANCH  15  18
ENDBRANCH   5   7
BRANCH   1  21
ATOM     20  C   UNL     1      -0.981  11.269  18.254  0.00  0.00    +0.000 C 
ATOM     21  C   UNL     1       0.111  11.286  19.333  0.00  0.00    +0.000 C 
BRANCH  21  22
ATOM     22  S   UNL     1       1.610  12.152  18.681  0.00  0.00    +0.000 S 
BRANCH  22  23
ATOM     23  C   UNL     1       2.012  13.235  19.953  0.00  0.00    +0.000 A 
ATOM     24  N   UNL     1       1.815  13.076  21.240  0.00  0.00    +0.000 NA
ATOM     25  N   UNL     1       2.226  14.232  21.870  0.00  0.00    +0.000 NA
ATOM     26  C   UNL     1       2.671  15.050  20.945  0.00  0.00    +0.000 A 
ATOM     27  N   UNL     1       2.577  14.460  19.724  0.00  0.00    +0.000 N 
ATOM     28  C   UNL     1       2.969  15.027  18.464  0.00  0.00    +0.000 C 
ENDBRANCH  22  23
ENDBRANCH  21  22
ENDBRANCH   1  21
TORSDOF 5
ENDMDL
MODEL 4
REMARK VINA RESULT:      -7.2      4.298      9.315
REMARK  Name = 
REMARK  7 active torsions:
REMARK  status: ('A' for Active; 'I' for Inactive)
REMARK    1  A    between atoms: C_1  and  C_2
REMARK    2  A    between atoms: C_2  and  S_3
REMARK    3  A    between atoms: C_2  and  C_10
REMARK    4  A    between atoms: S_3  and  C_4
REMARK    5  A    between atoms: N_8  and  C_9
REMARK    6  A    between atoms: C_14  and  N_15
REMARK    7  A    between atoms: C_23  and  O_24
REMARK                            x       y       z     vdW  Elec       q    Type
REMARK                         _______ _______ _______ _____ _____    ______ ____
ROOT
ATOM      1  C   UNL     1       2.115   7.549  19.583  0.00  0.00    +0.000 A 
ATOM      2  C   UNL     1       2.359   7.951  18.256  0.00  0.00    +0.000 A 
ATOM      3  C   UNL     1       1.843   9.148  17.766  0.00  0.00    +0.000 A 
ATOM      4  C   UNL     1       1.046   9.951  18.577  0.00  0.00    +0.000 A 
ATOM      5  C   UNL     1       0.727   9.553  19.875  0.00  0.00    +0.000 A 
ATOM      6  C   UNL     1       1.264   8.356  20.367  0.00  0.00    +0.000 A 
ENDROOT
BRANCH   5   7
ATOM      7  N   UNL     1      -0.090  10.326  20.732  0.00  0.00    +0.000 N 
ATOM      8  C   UNL     1       0.248  11.531  21.298  0.00  0.00    +0.000 C 
ATOM      9  O   UNL     1       1.284  12.160  21.086  0.00  0.00    +0.000 OA
ATOM     10  N   UNL     1      -0.703  12.044  22.122  0.00  0.00    +0.000 N 
ATOM     11  C   UNL     1      -0.778  13.375  22.719  0.00  0.00    +0.000 C 
ATOM     12  C   UNL     1      -2.197  12.977  23.026  0.00  0.00    +0.000 C 
ATOM     13  C   UNL     1      -2.873  13.513  24.260  0.00  0.00    +0.000 C 
ATOM     14  C   UNL     1      -4.183  13.516  23.432  0.00  0.00    +0.000 C 
ATOM     15  C   UNL     1      -3.312  13.507  22.142  0.00  0.00    +0.000 C 
ATOM     16  C   UNL     1      -1.807  11.522  22.912  0.00  0.00    +0.000 C 
ATOM     17  H   UNL     1      -1.080  10.127  20.722  0.00  0.00    +0.000 HD
BRANCH  15  18
ATOM     18  O   UNL     1      -3.782  12.694  21.051  0.00  0.00    +0.000 OA
ATOM     19  H   UNL     1      -3.171  11.942  20.987  0.00  0.00    +0.000 HD
ENDBRANCH  15  18
ENDBRANCH   5   7
BRANCH   1  21
ATOM     20  C   UNL     1       3.983   5.815  19.248  0.00  0.00    +0.000 C 
ATOM     21  C   UNL     1       2.825   6.304  20.130  0.00  0.00    +0.000 C 
BRANCH  21  22
ATOM     22  S   UNL     1       1.566   4.959  20.296  0.00  0.00    +0.000 S 
BRANCH  22  23
ATOM     23  C   UNL     1       1.946   3.910  18.990  0.00  0.00    +0.000 A 
ATOM     24  N   UNL     1       1.506   3.968  17.755  0.00  0.00    +0.000 NA
ATOM     25  N   UNL     1       2.018   2.880  17.080  0.00  0.00    +0.000 NA
ATOM     26  C   UNL     1       2.762   2.204  17.923  0.00  0.00    +0.000 A 
ATOM     27  N   UNL     1       2.766   2.825  19.133  0.00  0.00    +0.000 N 
ATOM     28  C   UNL     1       3.468   2.400  20.313  0.00  0.00    +0.000 C 
ENDBRANCH  22  23
ENDBRANCH  21  22
ENDBRANCH   1  21
TORSDOF 5
ENDMDL
MODEL 5
REMARK VINA RESULT:      -7.2      3.714      8.810
REMARK  Name = 
REMARK  7 active torsions:
REMARK  status: ('A' for Active; 'I' for Inactive)
REMARK    1  A    between atoms: C_1  and  C_2
REMARK    2  A    between atoms: C_2  and  S_3
REMARK    3  A    between atoms: C_2  and  C_10
REMARK    4  A    between atoms: S_3  and  C_4
REMARK    5  A    between atoms: N_8  and  C_9
REMARK    6  A    between atoms: C_14  and  N_15
REMARK    7  A    between atoms: C_23  and  O_24
REMARK                            x       y       z     vdW  Elec       q    Type
REMARK                         _______ _______ _______ _____ _____    ______ ____
ROOT
ATOM      1  C   UNL     1       4.435   5.131  17.471  0.00  0.00    +0.000 A 
ATOM      2  C   UNL     1       3.666   3.973  17.688  0.00  0.00    +0.000 A 
ATOM      3  C   UNL     1       2.321   4.063  18.039  0.00  0.00    +0.000 A 
ATOM      4  C   UNL     1       1.725   5.310  18.213  0.00  0.00    +0.000 A 
ATOM      5  C   UNL     1       2.472   6.479  18.073  0.00  0.00    +0.000 A 
ATOM      6  C   UNL     1       3.821   6.381  17.703  0.00  0.00    +0.000 A 
ENDROOT
BRANCH   5   7
ATOM      7  N   UNL     1       1.918   7.767  18.252  0.00  0.00    +0.000 N 
ATOM      8  C   UNL     1       1.670   8.377  19.458  0.00  0.00    +0.000 C 
ATOM      9  O   UNL     1       1.961   7.927  20.565  0.00  0.00    +0.000 OA
ATOM     10  N   UNL     1       1.088   9.601  19.352  0.00  0.00    +0.000 N 
ATOM     11  C   UNL     1       0.875  10.608  20.387  0.00  0.00    +0.000 C 
ATOM     12  C   UNL     1       0.585  11.511  19.218  0.00  0.00    +0.000 C 
ATOM     13  C   UNL     1      -0.405  12.635  19.370  0.00  0.00    +0.000 C 
ATOM     14  C   UNL     1       0.493  13.438  18.396  0.00  0.00    +0.000 C 
ATOM     15  C   UNL     1       1.661  12.475  18.754  0.00  0.00    +0.000 C 
ATOM     16  C   UNL     1       0.276  10.301  18.368  0.00  0.00    +0.000 C 
ATOM     17  H   UNL     1       1.951   8.393  17.461  0.00  0.00    +0.000 HD
BRANCH  15  18
ATOM     18  O   UNL     1       2.529  12.083  17.674  0.00  0.00    +0.000 OA
ATOM     19  H   UNL     1       2.782  12.901  17.215  0.00  0.00    +0.000 HD
ENDBRANCH  15  18
ENDBRANCH   5   7
BRANCH   1  21
ATOM     20  C   UNL     1       6.481   6.311  16.456  0.00  0.00    +0.000 C 
ATOM     21  C   UNL     1       5.867   4.990  16.940  0.00  0.00    +0.000 C 
BRANCH  21  22
ATOM     22  S   UNL     1       5.838   3.775  15.545  0.00  0.00    +0.000 S 
BRANCH  22  23
ATOM     23  C   UNL     1       6.870   4.502  14.379  0.00  0.00    +0.000 A 
ATOM     24  N   UNL     1       7.817   5.387  14.581  0.00  0.00    +0.000 NA
ATOM     25  N   UNL     1       8.327   5.740  13.349  0.00  0.00    +0.000 NA
ATOM     26  C   UNL     1       7.681   5.047  12.440  0.00  0.00    +0.000 A 
ATOM     27  N   UNL     1       6.769   4.237  13.041  0.00  0.00    +0.000 N 
ATOM     28  C   UNL     1       5.874   3.321  12.389  0.00  0.00    +0.000 C 
ENDBRANCH  22  23
ENDBRANCH  21  22
ENDBRANCH   1  21
TORSDOF 5
ENDMDL
MODEL 6
REMARK VINA RESULT:      -7.2      3.865      8.643
REMARK  Name = 
REMARK  7 active torsions:
REMARK  status: ('A' for Active; 'I' for Inactive)
REMARK    1  A    between atoms: C_1  and  C_2
REMARK    2  A    between atoms: C_2  and  S_3
REMARK    3  A    between atoms: C_2  and  C_10
REMARK    4  A    between atoms: S_3  and  C_4
REMARK    5  A    between atoms: N_8  and  C_9
REMARK    6  A    between atoms: C_14  and  N_15
REMARK    7  A    between atoms: C_23  and  O_24
REMARK                            x       y       z     vdW  Elec       q    Type
REMARK                         _______ _______ _______ _____ _____    ______ ____
ROOT
ATOM      1  C   UNL     1       3.245   5.310  18.644  0.00  0.00    +0.000 A 
ATOM      2  C   UNL     1       3.053   4.507  19.784  0.00  0.00    +0.000 A 
ATOM      3  C   UNL     1       2.264   4.947  20.843  0.00  0.00    +0.000 A 
ATOM      4  C   UNL     1       1.676   6.209  20.802  0.00  0.00    +0.000 A 
ATOM      5  C   UNL     1       1.897   7.059  19.720  0.00  0.00    +0.000 A 
ATOM      6  C   UNL     1       2.679   6.603  18.649  0.00  0.00    +0.000 A 
ENDROOT
BRANCH   5   7
ATOM      7  N   UNL     1       1.335   8.354  19.637  0.00  0.00    +0.000 N 
ATOM      8  C   UNL     1       1.164   9.227  20.683  0.00  0.00    +0.000 C 
ATOM      9  O   UNL     1       1.542   9.046  21.840  0.00  0.00    +0.000 OA
ATOM     10  N   UNL     1       0.557  10.393  20.340  0.00  0.00    +0.000 N 
ATOM     11  C   UNL     1       0.401  11.613  21.127  0.00  0.00    +0.000 C 
ATOM     12  C   UNL     1       0.013  12.220  19.806  0.00  0.00    +0.000 C 
ATOM     13  C   UNL     1      -0.983  13.349  19.766  0.00  0.00    +0.000 C 
ATOM     14  C   UNL     1      -0.170  13.904  18.569  0.00  0.00    +0.000 C 
ATOM     15  C   UNL     1       1.037  13.050  19.053  0.00  0.00    +0.000 C 
ATOM     16  C   UNL     1      -0.335  10.846  19.284  0.00  0.00    +0.000 C 
ATOM     17  H   UNL     1       1.302   8.780  18.722  0.00  0.00    +0.000 HD
BRANCH  15  18
ATOM     18  O   UNL     1       1.831  12.418  18.033  0.00  0.00    +0.000 OA
ATOM     19  H   UNL     1       1.948  11.495  18.309  0.00  0.00    +0.000 HD
ENDBRANCH  15  18
ENDBRANCH   5   7
BRANCH   1  21
ATOM     20  C   UNL     1       3.362   3.449  16.875  0.00  0.00    +0.000 C 
ATOM     21  C   UNL     1       3.994   4.730  17.437  0.00  0.00    +0.000 C 
BRANCH  21  22
ATOM     22  S   UNL     1       5.733   4.381  17.963  0.00  0.00    +0.000 S 
BRANCH  22  23
ATOM     23  C   UNL     1       6.521   5.887  17.711  0.00  0.00    +0.000 A 
ATOM     24  N   UNL     1       6.328   6.745  16.737  0.00  0.00    +0.000 NA
ATOM     25  N   UNL     1       7.235   7.771  16.900  0.00  0.00    +0.000 NA
ATOM     26  C   UNL     1       7.941   7.509  17.976  0.00  0.00    +0.000 A 
ATOM     27  N   UNL     1       7.514   6.344  18.533  0.00  0.00    +0.000 N 
ATOM     28  C   UNL     1       8.028   5.723  19.723  0.00  0.00    +0.000 C 
ENDBRANCH  22  23
ENDBRANCH  21  22
ENDBRANCH   1  21
TORSDOF 5
ENDMDL
MODEL 7
REMARK VINA RESULT:      -7.1      3.616      8.697
REMARK  Name = 
REMARK  7 active torsions:
REMARK  status: ('A' for Active; 'I' for Inactive)
REMARK    1  A    between atoms: C_1  and  C_2
REMARK    2  A    between atoms: C_2  and  S_3
REMARK    3  A    between atoms: C_2  and  C_10
REMARK    4  A    between atoms: S_3  and  C_4
REMARK    5  A    between atoms: N_8  and  C_9
REMARK    6  A    between atoms: C_14  and  N_15
REMARK    7  A    between atoms: C_23  and  O_24
REMARK                            x       y       z     vdW  Elec       q    Type
REMARK                         _______ _______ _______ _____ _____    ______ ____
ROOT
ATOM      1  C   UNL     1       4.710   4.745  17.333  0.00  0.00    +0.000 A 
ATOM      2  C   UNL     1       3.928   3.580  17.444  0.00  0.00    +0.000 A 
ATOM      3  C   UNL     1       2.564   3.657  17.712  0.00  0.00    +0.000 A 
ATOM      4  C   UNL     1       1.959   4.896  17.908  0.00  0.00    +0.000 A 
ATOM      5  C   UNL     1       2.713   6.068  17.873  0.00  0.00    +0.000 A 
ATOM      6  C   UNL     1       4.082   5.983  17.585  0.00  0.00    +0.000 A 
ENDROOT
BRANCH   5   7
ATOM      7  N   UNL     1       2.149   7.347  18.080  0.00  0.00    +0.000 N 
ATOM      8  C   UNL     1       1.885   7.925  19.298  0.00  0.00    +0.000 C 
ATOM      9  O   UNL     1       2.168   7.449  20.396  0.00  0.00    +0.000 OA
ATOM     10  N   UNL     1       1.297   9.148  19.217  0.00  0.00    +0.000 N 
ATOM     11  C   UNL     1       1.068  10.127  20.275  0.00  0.00    +0.000 C 
ATOM     12  C   UNL     1       0.783  11.058  19.127  0.00  0.00    +0.000 C 
ATOM     13  C   UNL     1      -0.215  12.172  19.298  0.00  0.00    +0.000 C 
ATOM     14  C   UNL     1       0.687  13.005  18.352  0.00  0.00    +0.000 C 
ATOM     15  C   UNL     1       1.858  12.040  18.698  0.00  0.00    +0.000 C 
ATOM     16  C   UNL     1       0.491   9.868  18.244  0.00  0.00    +0.000 C 
ATOM     17  H   UNL     1       2.186   7.994  17.305  0.00  0.00    +0.000 HD
BRANCH  15  18
ATOM     18  O   UNL     1       2.739  11.681  17.617  0.00  0.00    +0.000 OA
ATOM     19  H   UNL     1       2.256  11.869  16.796  0.00  0.00    +0.000 HD
ENDBRANCH  15  18
ENDBRANCH   5   7
BRANCH   1  21
ATOM     20  C   UNL     1       7.185   4.920  18.002  0.00  0.00    +0.000 C 
ATOM     21  C   UNL     1       6.173   4.624  16.887  0.00  0.00    +0.000 C 
BRANCH  21  22
ATOM     22  S   UNL     1       6.438   5.800  15.484  0.00  0.00    +0.000 S 
BRANCH  22  23
ATOM     23  C   UNL     1       6.322   4.785  14.103  0.00  0.00    +0.000 A 
ATOM     24  N   UNL     1       5.421   3.865  13.853  0.00  0.00    +0.000 NA
ATOM     25  N   UNL     1       5.768   3.254  12.666  0.00  0.00    +0.000 NA
ATOM     26  C   UNL     1       6.862   3.833  12.228  0.00  0.00    +0.000 A 
ATOM     27  N   UNL     1       7.237   4.817  13.087  0.00  0.00    +0.000 N 
ATOM     28  C   UNL     1       8.376   5.684  12.955  0.00  0.00    +0.000 C 
ENDBRANCH  22  23
ENDBRANCH  21  22
ENDBRANCH   1  21
TORSDOF 5
ENDMDL
MODEL 8
REMARK VINA RESULT:      -7.0      3.774      8.068
REMARK  Name = 
REMARK  7 active torsions:
REMARK  status: ('A' for Active; 'I' for Inactive)
REMARK    1  A    between atoms: C_1  and  C_2
REMARK    2  A    between atoms: C_2  and  S_3
REMARK    3  A    between atoms: C_2  and  C_10
REMARK    4  A    between atoms: S_3  and  C_4
REMARK    5  A    between atoms: N_8  and  C_9
REMARK    6  A    between atoms: C_14  and  N_15
REMARK    7  A    between atoms: C_23  and  O_24
REMARK                            x       y       z     vdW  Elec       q    Type
REMARK                         _______ _______ _______ _____ _____    ______ ____
ROOT
ATOM      1  C   UNL     1       3.834   5.221  19.356  0.00  0.00    +0.000 A 
ATOM      2  C   UNL     1       3.379   4.351  20.365  0.00  0.00    +0.000 A 
ATOM      3  C   UNL     1       2.276   4.680  21.149  0.00  0.00    +0.000 A 
ATOM      4  C   UNL     1       1.626   5.898  20.966  0.00  0.00    +0.000 A 
ATOM      5  C   UNL     1       2.088   6.814  20.023  0.00  0.00    +0.000 A 
ATOM      6  C   UNL     1       3.188   6.469  19.225  0.00  0.00    +0.000 A 
ENDROOT
BRANCH   5   7
ATOM      7  N   UNL     1       1.472   8.068  19.809  0.00  0.00    +0.000 N 
ATOM      8  C   UNL     1       1.178   8.998  20.776  0.00  0.00    +0.000 C 
ATOM      9  O   UNL     1       1.473   8.914  21.968  0.00  0.00    +0.000 OA
ATOM     10  N   UNL     1       0.542  10.105  20.309  0.00  0.00    +0.000 N 
ATOM     11  C   UNL     1       0.267  11.363  20.995  0.00  0.00    +0.000 C 
ATOM     12  C   UNL     1      -0.048  11.861  19.610  0.00  0.00    +0.000 C 
ATOM     13  C   UNL     1      -1.091  12.929  19.419  0.00  0.00    +0.000 C 
ATOM     14  C   UNL     1      -0.217  13.447  18.248  0.00  0.00    +0.000 C 
ATOM     15  C   UNL     1       0.990  12.694  18.879  0.00  0.00    +0.000 C 
ATOM     16  C   UNL     1      -0.287  10.439  19.161  0.00  0.00    +0.000 C 
ATOM     17  H   UNL     1       1.488   8.431  18.866  0.00  0.00    +0.000 HD
BRANCH  15  18
ATOM     18  O   UNL     1       1.891  12.040  17.966  0.00  0.00    +0.000 OA
ATOM     19  H   UNL     1       2.581  12.688  17.751  0.00  0.00    +0.000 HD
ENDBRANCH  15  18
ENDBRANCH   5   7
BRANCH   1  21
ATOM     20  C   UNL     1       5.938   5.868  18.030  0.00  0.00    +0.000 C 
ATOM     21  C   UNL     1       4.954   4.755  18.416  0.00  0.00    +0.000 C 
BRANCH  21  22
ATOM     22  S   UNL     1       4.165   4.071  16.889  0.00  0.00    +0.000 S 
BRANCH  22  23
ATOM     23  C   UNL     1       2.717   3.365  17.486  0.00  0.00    +0.000 A 
ATOM     24  N   UNL     1       1.505   3.866  17.457  0.00  0.00    +0.000 NA
ATOM     25  N   UNL     1       0.675   2.984  18.117  0.00  0.00    +0.000 NA
ATOM     26  C   UNL     1       1.409   1.970  18.514  0.00  0.00    +0.000 A 
ATOM     27  N   UNL     1       2.697   2.154  18.122  0.00  0.00    +0.000 N 
ATOM     28  C   UNL     1       3.801   1.265  18.357  0.00  0.00    +0.000 C 
ENDBRANCH  22  23
ENDBRANCH  21  22
ENDBRANCH   1  21
TORSDOF 5
ENDMDL
MODEL 9
REMARK VINA RESULT:      -7.0      3.518      8.821
REMARK  Name = 
REMARK  7 active torsions:
REMARK  status: ('A' for Active; 'I' for Inactive)
REMARK    1  A    between atoms: C_1  and  C_2
REMARK    2  A    between atoms: C_2  and  S_3
REMARK    3  A    between atoms: C_2  and  C_10
REMARK    4  A    between atoms: S_3  and  C_4
REMARK    5  A    between atoms: N_8  and  C_9
REMARK    6  A    between atoms: C_14  and  N_15
REMARK    7  A    between atoms: C_23  and  O_24
REMARK                            x       y       z     vdW  Elec       q    Type
REMARK                         _______ _______ _______ _____ _____    ______ ____
ROOT
ATOM      1  C   UNL     1       4.269   4.896  16.860  0.00  0.00    +0.000 A 
ATOM      2  C   UNL     1       3.680   3.655  17.168  0.00  0.00    +0.000 A 
ATOM      3  C   UNL     1       2.492   3.587  17.891  0.00  0.00    +0.000 A 
ATOM      4  C   UNL     1       1.884   4.753  18.349  0.00  0.00    +0.000 A 
ATOM      5  C   UNL     1       2.473   5.996  18.122  0.00  0.00    +0.000 A 
ATOM      6  C   UNL     1       3.660   6.058  17.379  0.00  0.00    +0.000 A 
ENDROOT
BRANCH   5   7
ATOM      7  N   UNL     1       1.903   7.207  18.578  0.00  0.00    +0.000 N 
ATOM      8  C   UNL     1       2.268   8.470  18.181  0.00  0.00    +0.000 C 
ATOM      9  O   UNL     1       3.096   8.740  17.312  0.00  0.00    +0.000 OA
ATOM     10  N   UNL     1       1.591   9.467  18.809  0.00  0.00    +0.000 N 
ATOM     11  C   UNL     1       1.565  10.894  18.501  0.00  0.00    +0.000 C 
ATOM     12  C   UNL     1       0.383  10.907  19.433  0.00  0.00    +0.000 C 
ATOM     13  C   UNL     1       0.096  12.132  20.259  0.00  0.00    +0.000 C 
ATOM     14  C   UNL     1      -1.405  11.791  20.081  0.00  0.00    +0.000 C 
ATOM     15  C   UNL     1      -1.015  10.936  18.841  0.00  0.00    +0.000 C 
ATOM     16  C   UNL     1       0.878   9.628  20.067  0.00  0.00    +0.000 C 
ATOM     17  H   UNL     1       0.995   7.148  19.017  0.00  0.00    +0.000 HD
BRANCH  15  18
ATOM     18  O   UNL     1      -1.722   9.695  18.665  0.00  0.00    +0.000 OA
ATOM     19  H   UNL     1      -1.135   9.115  18.152  0.00  0.00    +0.000 HD
ENDBRANCH  15  18
ENDBRANCH   5   7
BRANCH   1  21
ATOM     20  C   UNL     1       5.445   3.896  14.804  0.00  0.00    +0.000 C 
ATOM     21  C   UNL     1       5.492   4.934  15.934  0.00  0.00    +0.000 C 
BRANCH  21  22
ATOM     22  S   UNL     1       6.998   4.652  16.971  0.00  0.00    +0.000 S 
BRANCH  22  23
ATOM     23  C   UNL     1       7.441   6.242  17.449  0.00  0.00    +0.000 A 
ATOM     24  N   UNL     1       7.423   7.335  16.724  0.00  0.00    +0.000 NA
ATOM     25  N   UNL     1       7.933   8.356  17.499  0.00  0.00    +0.000 NA
ATOM     26  C   UNL     1       8.231   7.851  18.673  0.00  0.00    +0.000 A 
ATOM     27  N   UNL     1       7.919   6.528  18.697  0.00  0.00    +0.000 N 
ATOM     28  C   UNL     1       8.089   5.626  19.804  0.00  0.00    +0.000 C 
ENDBRANCH  22  23
ENDBRANCH  21  22
ENDBRANCH   1  21
TORSDOF 5
ENDMDL
