MODEL 1
REMARK VINA RESULT:      -8.8      0.000      0.000
REMARK  Name = 
REMARK  9 active torsions:
REMARK  status: ('A' for Active; 'I' for Inactive)
REMARK    1  A    between atoms: C_1  and  O_2
REMARK    2  A    between atoms: O_2  and  C_3
REMARK    3  A    between atoms: C_5  and  C_6
REMARK    4  A    between atoms: N_8  and  C_9
REMARK    5  A    between atoms: C_13  and  C_14
REMARK    6  A    between atoms: C_14  and  C_15
REMARK    7  A    between atoms: C_14  and  S_16
REMARK    8  A    between atoms: S_16  and  C_17
REMARK    9  A    between atoms: N_21  and  C_22
REMARK                            x       y       z     vdW  Elec       q    Type
REMARK                         _______ _______ _______ _____ _____    ______ ____
ROOT
ATOM      1  C   UNL     1       7.950   8.263  18.063  0.00  0.00    +0.000 C 
ATOM      2  O   UNL     1       8.450   7.434  18.820  0.00  0.00    +0.000 OA
ATOM      3  N   UNL     1       6.967   7.997  17.121  0.00  0.00    +0.000 N 
ATOM      4  H   UNL     1       6.786   8.729  16.444  0.00  0.00    +0.000 HD
ENDROOT
BRANCH   1   7
ATOM      5  C   UNL     1       8.303  11.891  17.595  0.00  0.00    +0.000 A 
ATOM      6  N   UNL     1       7.845  10.625  17.401  0.00  0.00    +0.000 NA
ATOM      7  C   UNL     1       8.453   9.669  18.144  0.00  0.00    +0.000 A 
ATOM      8  C   UNL     1       9.491   9.921  19.038  0.00  0.00    +0.000 A 
ATOM      9  C   UNL     1       9.954  11.222  19.207  0.00  0.00    +0.000 A 
ATOM     10  C   UNL     1      10.985  11.496  20.117  0.00  0.00    +0.000 A 
ATOM     11  C   UNL     1      11.437  12.801  20.304  0.00  0.00    +0.000 A 
ATOM     12  C   UNL     1      10.861  13.843  19.583  0.00  0.00    +0.000 A 
ATOM     13  C   UNL     1       9.833  13.577  18.671  0.00  0.00    +0.000 A 
ATOM     14  C   UNL     1       9.355  12.260  18.465  0.00  0.00    +0.000 A 
BRANCH   5  16
ATOM     15  C   UNL     1       6.770  13.654  17.674  0.00  0.00    +0.000 C 
ATOM     16  O   UNL     1       7.701  12.921  16.886  0.00  0.00    +0.000 OA
ENDBRANCH   5  16
ENDBRANCH   1   7
BRANCH   3  17
ATOM     17  C   UNL     1       6.314   6.746  16.971  0.00  0.00    +0.000 A 
ATOM     18  C   UNL     1       6.938   5.650  16.366  0.00  0.00    +0.000 A 
ATOM     19  C   UNL     1       6.276   4.433  16.215  0.00  0.00    +0.000 A 
ATOM     20  C   UNL     1       4.971   4.291  16.676  0.00  0.00    +0.000 A 
ATOM     21  C   UNL     1       4.313   5.364  17.295  0.00  0.00    +0.000 A 
ATOM     22  C   UNL     1       5.008   6.587  17.455  0.00  0.00    +0.000 A 
BRANCH  21  23
ATOM     23  C   UNL     1       2.871   5.233  17.773  0.00  0.00    +0.000 C 
ATOM     24  C   UNL     1       2.711   5.753  19.207  0.00  0.00    +0.000 C 
BRANCH  23  25
ATOM     25  S   UNL     1       2.262   3.505  17.769  0.00  0.00    +0.000 S 
BRANCH  25  26
ATOM     26  C   UNL     1       2.047   3.216  19.453  0.00  0.00    +0.000 A 
ATOM     27  N   UNL     1       0.954   3.400  20.155  0.00  0.00    +0.000 NA
ATOM     28  N   UNL     1       1.235   3.036  21.458  0.00  0.00    +0.000 NA
ATOM     29  C   UNL     1       2.489   2.642  21.498  0.00  0.00    +0.000 A 
ATOM     30  N   UNL     1       3.043   2.753  20.260  0.00  0.00    +0.000 N 
ATOM     31  C   UNL     1       4.395   2.425  19.896  0.00  0.00    +0.000 C 
ENDBRANCH  25  26
ENDBRANCH  23  25
ENDBRANCH  21  23
ENDBRANCH   3  17
TORSDOF 6
ENDMDL
MODEL 2
REMARK VINA RESULT:      -8.7      5.866      9.349
REMARK  Name = 
REMARK  9 active torsions:
REMARK  status: ('A' for Active; 'I' for Inactive)
REMARK    1  A    between atoms: C_1  and  O_2
REMARK    2  A    between atoms: O_2  and  C_3
REMARK    3  A    between atoms: C_5  and  C_6
REMARK    4  A    between atoms: N_8  and  C_9
REMARK    5  A    between atoms: C_13  and  C_14
REMARK    6  A    between atoms: C_14  and  C_15
REMARK    7  A    between atoms: C_14  and  S_16
REMARK    8  A    between atoms: S_16  and  C_17
REMARK    9  A    between atoms: N_21  and  C_22
REMARK                            x       y       z     vdW  Elec       q    Type
REMARK                         _______ _______ _______ _____ _____    ______ ____
ROOT
ATOM      1  C   UNL     1       2.198   6.632  19.795  0.00  0.00    +0.000 C 
ATOM      2  O   UNL     1       1.714   6.098  20.791  0.00  0.00    +0.000 OA
ATOM      3  N   UNL     1       1.974   7.943  19.402  0.00  0.00    +0.000 N 
ATOM      4  H   UNL     1       2.283   8.189  18.468  0.00  0.00    +0.000 HD
ENDROOT
BRANCH   1   7
ATOM      5  C   UNL     1       3.926   3.768  18.274  0.00  0.00    +0.000 A 
ATOM      6  N   UNL     1       3.171   4.470  19.162  0.00  0.00    +0.000 NA
ATOM      7  C   UNL     1       3.082   5.800  18.923  0.00  0.00    +0.000 A 
ATOM      8  C   UNL     1       3.723   6.445  17.867  0.00  0.00    +0.000 A 
ATOM      9  C   UNL     1       4.503   5.709  16.982  0.00  0.00    +0.000 A 
ATOM     10  C   UNL     1       5.137   6.340  15.902  0.00  0.00    +0.000 A 
ATOM     11  C   UNL     1       5.904   5.603  15.002  0.00  0.00    +0.000 A 
ATOM     12  C   UNL     1       6.041   4.229  15.173  0.00  0.00    +0.000 A 
ATOM     13  C   UNL     1       5.412   3.591  16.249  0.00  0.00    +0.000 A 
ATOM     14  C   UNL     1       4.627   4.319  17.176  0.00  0.00    +0.000 A 
BRANCH   5  16
ATOM     15  C   UNL     1       2.763   1.758  18.543  0.00  0.00    +0.000 C 
ATOM     16  O   UNL     1       4.032   2.395  18.445  0.00  0.00    +0.000 OA
ENDBRANCH   5  16
ENDBRANCH   1   7
BRANCH   3  17
ATOM     17  C   UNL     1       1.239   8.896  20.154  0.00  0.00    +0.000 A 
ATOM     18  C   UNL     1       1.055   8.770  21.535  0.00  0.00    +0.000 A 
ATOM     19  C   UNL     1       0.319   9.709  22.255  0.00  0.00    +0.000 A 
ATOM     20  C   UNL     1      -0.243  10.800  21.600  0.00  0.00    +0.000 A 
ATOM     21  C   UNL     1      -0.074  10.967  20.218  0.00  0.00    +0.000 A 
ATOM     22  C   UNL     1       0.692  10.012  19.506  0.00  0.00    +0.000 A 
BRANCH  21  23
ATOM     23  C   UNL     1      -0.713  12.139  19.482  0.00  0.00    +0.000 C 
ATOM     24  C   UNL     1      -0.316  13.478  20.116  0.00  0.00    +0.000 C 
BRANCH  23  25
ATOM     25  S   UNL     1      -2.544  12.080  19.480  0.00  0.00    +0.000 S 
BRANCH  25  26
ATOM     26  C   UNL     1      -2.865  11.551  17.873  0.00  0.00    +0.000 A 
ATOM     27  N   UNL     1      -1.986  11.214  16.959  0.00  0.00    +0.000 NA
ATOM     28  N   UNL     1      -2.688  10.853  15.826  0.00  0.00    +0.000 NA
ATOM     29  C   UNL     1      -3.969  10.981  16.093  0.00  0.00    +0.000 A 
ATOM     30  N   UNL     1      -4.126  11.433  17.368  0.00  0.00    +0.000 N 
ATOM     31  C   UNL     1      -5.373  11.704  18.031  0.00  0.00    +0.000 C 
ENDBRANCH  25  26
ENDBRANCH  23  25
ENDBRANCH  21  23
ENDBRANCH   3  17
TORSDOF 6
ENDMDL
MODEL 3
REMARK VINA RESULT:      -8.6      4.532      7.398
REMARK  Name = 
REMARK  9 active torsions:
REMARK  status: ('A' for Active; 'I' for Inactive)
REMARK    1  A    between atoms: C_1  and  O_2
REMARK    2  A    between atoms: O_2  and  C_3
REMARK    3  A    between atoms: C_5  and  C_6
REMARK    4  A    between atoms: N_8  and  C_9
REMARK    5  A    between atoms: C_13  and  C_14
REMARK    6  A    between atoms: C_14  and  C_15
REMARK    7  A    between atoms: C_14  and  S_16
REMARK    8  A    between atoms: S_16  and  C_17
REMARK    9  A    between atoms: N_21  and  C_22
REMARK                            x       y       z     vdW  Elec       q    Type
REMARK                         _______ _______ _______ _____ _____    ______ ____
ROOT
ATOM      1  C   UNL     1       1.821   8.475  18.400  0.00  0.00    +0.000 C 
ATOM      2  O   UNL     1       1.941   8.678  17.193  0.00  0.00    +0.000 OA
ATOM      3  N   UNL     1       2.054   7.263  19.034  0.00  0.00    +0.000 N 
ATOM      4  H   UNL     1       1.735   7.192  19.994  0.00  0.00    +0.000 HD
ENDROOT
BRANCH   1   7
ATOM      5  C   UNL     1       1.114  11.862  19.633  0.00  0.00    +0.000 A 
ATOM      6  N   UNL     1       1.633  10.880  18.849  0.00  0.00    +0.000 NA
ATOM      7  C   UNL     1       1.368   9.615  19.253  0.00  0.00    +0.000 A 
ATOM      8  C   UNL     1       0.638   9.301  20.398  0.00  0.00    +0.000 A 
ATOM      9  C   UNL     1       0.131  10.323  21.193  0.00  0.00    +0.000 A 
ATOM     10  C   UNL     1      -0.623  10.024  22.338  0.00  0.00    +0.000 A 
ATOM     11  C   UNL     1      -1.149  11.045  23.125  0.00  0.00    +0.000 A 
ATOM     12  C   UNL     1      -0.928  12.374  22.776  0.00  0.00    +0.000 A 
ATOM     13  C   UNL     1      -0.175  12.681  21.636  0.00  0.00    +0.000 A 
ATOM     14  C   UNL     1       0.369  11.660  20.819  0.00  0.00    +0.000 A 
BRANCH   5  16
ATOM     15  C   UNL     1       2.332  13.311  18.260  0.00  0.00    +0.000 C 
ATOM     16  O   UNL     1       1.324  13.182  19.257  0.00  0.00    +0.000 OA
ENDBRANCH   5  16
ENDBRANCH   1   7
BRANCH   3  17
ATOM     17  C   UNL     1       2.573   6.106  18.396  0.00  0.00    +0.000 A 
ATOM     18  C   UNL     1       1.996   4.844  18.561  0.00  0.00    +0.000 A 
ATOM     19  C   UNL     1       2.528   3.717  17.937  0.00  0.00    +0.000 A 
ATOM     20  C   UNL     1       3.652   3.839  17.127  0.00  0.00    +0.000 A 
ATOM     21  C   UNL     1       4.256   5.090  16.928  0.00  0.00    +0.000 A 
ATOM     22  C   UNL     1       3.691   6.225  17.557  0.00  0.00    +0.000 A 
BRANCH  21  23
ATOM     23  C   UNL     1       5.508   5.232  16.071  0.00  0.00    +0.000 C 
ATOM     24  C   UNL     1       5.438   4.333  14.831  0.00  0.00    +0.000 C 
BRANCH  23  25
ATOM     25  S   UNL     1       7.047   4.786  16.959  0.00  0.00    +0.000 S 
BRANCH  25  26
ATOM     26  C   UNL     1       7.586   6.330  17.501  0.00  0.00    +0.000 A 
ATOM     27  N   UNL     1       7.653   7.437  16.800  0.00  0.00    +0.000 NA
ATOM     28  N   UNL     1       8.136   8.425  17.636  0.00  0.00    +0.000 NA
ATOM     29  C   UNL     1       8.343   7.882  18.816  0.00  0.00    +0.000 A 
ATOM     30  N   UNL     1       8.024   6.559  18.772  0.00  0.00    +0.000 N 
ATOM     31  C   UNL     1       8.116   5.621  19.858  0.00  0.00    +0.000 C 
ENDBRANCH  25  26
ENDBRANCH  23  25
ENDBRANCH  21  23
ENDBRANCH   3  17
TORSDOF 6
ENDMDL
MODEL 4
REMARK VINA RESULT:      -8.6      5.879     10.595
REMARK  Name = 
REMARK  9 active torsions:
REMARK  status: ('A' for Active; 'I' for Inactive)
REMARK    1  A    between atoms: C_1  and  O_2
REMARK    2  A    between atoms: O_2  and  C_3
REMARK    3  A    between atoms: C_5  and  C_6
REMARK    4  A    between atoms: N_8  and  C_9
REMARK    5  A    between atoms: C_13  and  C_14
REMARK    6  A    between atoms: C_14  and  C_15
REMARK    7  A    between atoms: C_14  and  S_16
REMARK    8  A    between atoms: S_16  and  C_17
REMARK    9  A    between atoms: N_21  and  C_22
REMARK                            x       y       z     vdW  Elec       q    Type
REMARK                         _______ _______ _______ _____ _____    ______ ____
ROOT
ATOM      1  C   UNL     1       1.867   8.346  19.146  0.00  0.00    +0.000 C 
ATOM      2  O   UNL     1       1.606   8.381  20.348  0.00  0.00    +0.000 OA
ATOM      3  N   UNL     1       1.514   9.318  18.222  0.00  0.00    +0.000 N 
ATOM      4  H   UNL     1       1.627   9.069  17.245  0.00  0.00    +0.000 HD
ENDROOT
BRANCH   1   7
ATOM      5  C   UNL     1       2.946   4.884  18.549  0.00  0.00    +0.000 A 
ATOM      6  N   UNL     1       2.294   5.929  19.128  0.00  0.00    +0.000 NA
ATOM      7  C   UNL     1       2.603   7.151  18.632  0.00  0.00    +0.000 A 
ATOM      8  C   UNL     1       3.533   7.366  17.617  0.00  0.00    +0.000 A 
ATOM      9  C   UNL     1       4.199   6.283  17.052  0.00  0.00    +0.000 A 
ATOM     10  C   UNL     1       5.123   6.481  16.016  0.00  0.00    +0.000 A 
ATOM     11  C   UNL     1       5.777   5.397  15.434  0.00  0.00    +0.000 A 
ATOM     12  C   UNL     1       5.511   4.106  15.882  0.00  0.00    +0.000 A 
ATOM     13  C   UNL     1       4.592   3.901  16.917  0.00  0.00    +0.000 A 
ATOM     14  C   UNL     1       3.914   4.986  17.523  0.00  0.00    +0.000 A 
BRANCH   5  16
ATOM     15  C   UNL     1       1.331   3.196  18.646  0.00  0.00    +0.000 C 
ATOM     16  O   UNL     1       2.651   3.602  18.991  0.00  0.00    +0.000 OA
ENDBRANCH   5  16
ENDBRANCH   1   7
BRANCH   3  17
ATOM     17  C   UNL     1       0.896  10.553  18.548  0.00  0.00    +0.000 A 
ATOM     18  C   UNL     1      -0.472  10.650  18.822  0.00  0.00    +0.000 A 
ATOM     19  C   UNL     1      -1.064  11.874  19.127  0.00  0.00    +0.000 A 
ATOM     20  C   UNL     1      -0.289  13.028  19.169  0.00  0.00    +0.000 A 
ATOM     21  C   UNL     1       1.089  12.971  18.909  0.00  0.00    +0.000 A 
ATOM     22  C   UNL     1       1.675  11.716  18.617  0.00  0.00    +0.000 A 
BRANCH  21  23
ATOM     23  C   UNL     1       1.943  14.234  18.917  0.00  0.00    +0.000 C 
ATOM     24  C   UNL     1       3.235  14.026  19.717  0.00  0.00    +0.000 C 
BRANCH  23  25
ATOM     25  S   UNL     1       1.092  15.678  19.656  0.00  0.00    +0.000 S 
BRANCH  25  26
ATOM     26  C   UNL     1       1.251  16.846  18.399  0.00  0.00    +0.000 A 
ATOM     27  N   UNL     1       2.346  17.171  17.754  0.00  0.00    +0.000 NA
ATOM     28  N   UNL     1       2.007  18.143  16.833  0.00  0.00    +0.000 NA
ATOM     29  C   UNL     1       0.718  18.371  16.951  0.00  0.00    +0.000 A 
ATOM     30  N   UNL     1       0.204  17.586  17.937  0.00  0.00    +0.000 N 
ATOM     31  C   UNL     1      -1.166  17.546  18.372  0.00  0.00    +0.000 C 
ENDBRANCH  25  26
ENDBRANCH  23  25
ENDBRANCH  21  23
ENDBRANCH   3  17
TORSDOF 6
ENDMDL
MODEL 5
REMARK VINA RESULT:      -8.5      5.313      9.299
REMARK  Name = 
REMARK  9 active torsions:
REMARK  status: ('A' for Active; 'I' for Inactive)
REMARK    1  A    between atoms: C_1  and  O_2
REMARK    2  A    between atoms: O_2  and  C_3
REMARK    3  A    between atoms: C_5  and  C_6
REMARK    4  A    between atoms: N_8  and  C_9
REMARK    5  A    between atoms: C_13  and  C_14
REMARK    6  A    between atoms: C_14  and  C_15
REMARK    7  A    between atoms: C_14  and  S_16
REMARK    8  A    between atoms: S_16  and  C_17
REMARK    9  A    between atoms: N_21  and  C_22
REMARK                            x       y       z     vdW  Elec       q    Type
REMARK                         _______ _______ _______ _____ _____    ______ ____
ROOT
ATOM      1  C   UNL     1       2.083   6.562  19.910  0.00  0.00    +0.000 C 
ATOM      2  O   UNL     1       1.500   5.948  20.802  0.00  0.00    +0.000 OA
ATOM      3  N   UNL     1       1.942   7.917  19.648  0.00  0.00    +0.000 N 
ATOM      4  H   UNL     1       2.333   8.246  18.772  0.00  0.00    +0.000 HD
ENDROOT
BRANCH   1   7
ATOM      5  C   UNL     1       3.929   3.807  18.328  0.00  0.00    +0.000 A 
ATOM      6  N   UNL     1       3.145   4.456  19.231  0.00  0.00    +0.000 NA
ATOM      7  C   UNL     1       3.001   5.787  19.021  0.00  0.00    +0.000 A 
ATOM      8  C   UNL     1       3.614   6.482  17.980  0.00  0.00    +0.000 A 
ATOM      9  C   UNL     1       4.424   5.798  17.080  0.00  0.00    +0.000 A 
ATOM     10  C   UNL     1       5.032   6.479  16.015  0.00  0.00    +0.000 A 
ATOM     11  C   UNL     1       5.828   5.794  15.099  0.00  0.00    +0.000 A 
ATOM     12  C   UNL     1       6.023   4.423  15.240  0.00  0.00    +0.000 A 
ATOM     13  C   UNL     1       5.421   3.737  16.301  0.00  0.00    +0.000 A 
ATOM     14  C   UNL     1       4.606   4.411  17.243  0.00  0.00    +0.000 A 
BRANCH   5  16
ATOM     15  C   UNL     1       2.852   1.750  18.600  0.00  0.00    +0.000 C 
ATOM     16  O   UNL     1       4.092   2.436  18.469  0.00  0.00    +0.000 OA
ENDBRANCH   5  16
ENDBRANCH   1   7
BRANCH   3  17
ATOM     17  C   UNL     1       1.187   8.817  20.443  0.00  0.00    +0.000 A 
ATOM     18  C   UNL     1       1.152   8.727  21.838  0.00  0.00    +0.000 A 
ATOM     19  C   UNL     1       0.394   9.613  22.602  0.00  0.00    +0.000 A 
ATOM     20  C   UNL     1      -0.342  10.614  21.976  0.00  0.00    +0.000 A 
ATOM     21  C   UNL     1      -0.326  10.743  20.579  0.00  0.00    +0.000 A 
ATOM     22  C   UNL     1       0.463   9.845  19.822  0.00  0.00    +0.000 A 
BRANCH  21  23
ATOM     23  C   UNL     1      -1.155  11.814  19.879  0.00  0.00    +0.000 C 
ATOM     24  C   UNL     1      -2.161  11.191  18.904  0.00  0.00    +0.000 C 
BRANCH  23  25
ATOM     25  S   UNL     1      -0.142  12.993  18.908  0.00  0.00    +0.000 S 
BRANCH  25  26
ATOM     26  C   UNL     1       0.949  13.572  20.108  0.00  0.00    +0.000 A 
ATOM     27  N   UNL     1       0.656  13.949  21.330  0.00  0.00    +0.000 NA
ATOM     28  N   UNL     1       1.836  14.332  21.937  0.00  0.00    +0.000 NA
ATOM     29  C   UNL     1       2.804  14.171  21.062  0.00  0.00    +0.000 A 
ATOM     30  N   UNL     1       2.288  13.708  19.891  0.00  0.00    +0.000 N 
ATOM     31  C   UNL     1       3.023  13.411  18.691  0.00  0.00    +0.000 C 
ENDBRANCH  25  26
ENDBRANCH  23  25
ENDBRANCH  21  23
ENDBRANCH   3  17
TORSDOF 6
ENDMDL
MODEL 6
REMARK VINA RESULT:      -8.5      7.101      9.882
REMARK  Name = 
REMARK  9 active torsions:
REMARK  status: ('A' for Active; 'I' for Inactive)
REMARK    1  A    between atoms: C_1  and  O_2
REMARK    2  A    between atoms: O_2  and  C_3
REMARK    3  A    between atoms: C_5  and  C_6
REMARK    4  A    between atoms: N_8  and  C_9
REMARK    5  A    between atoms: C_13  and  C_14
REMARK    6  A    between atoms: C_14  and  C_15
REMARK    7  A    between atoms: C_14  and  S_16
REMARK    8  A    between atoms: S_16  and  C_17
REMARK    9  A    between atoms: N_21  and  C_22
REMARK                            x       y       z     vdW  Elec       q    Type
REMARK                         _______ _______ _______ _____ _____    ______ ____
ROOT
ATOM      1  C   UNL     1       1.494   9.291  18.540  0.00  0.00    +0.000 C 
ATOM      2  O   UNL     1       1.908  10.272  17.925  0.00  0.00    +0.000 OA
ATOM      3  N   UNL     1       0.284   9.222  19.215  0.00  0.00    +0.000 N 
ATOM      4  H   UNL     1       0.159   8.425  19.830  0.00  0.00    +0.000 HD
ENDROOT
BRANCH   1   7
ATOM      5  C   UNL     1       2.999   6.091  19.536  0.00  0.00    +0.000 A 
ATOM      6  N   UNL     1       2.228   7.209  19.612  0.00  0.00    +0.000 NA
ATOM      7  C   UNL     1       2.370   8.080  18.585  0.00  0.00    +0.000 A 
ATOM      8  C   UNL     1       3.248   7.891  17.519  0.00  0.00    +0.000 A 
ATOM      9  C   UNL     1       4.038   6.748  17.473  0.00  0.00    +0.000 A 
ATOM     10  C   UNL     1       4.912   6.533  16.397  0.00  0.00    +0.000 A 
ATOM     11  C   UNL     1       5.690   5.379  16.337  0.00  0.00    +0.000 A 
ATOM     12  C   UNL     1       5.600   4.429  17.350  0.00  0.00    +0.000 A 
ATOM     13  C   UNL     1       4.731   4.637  18.428  0.00  0.00    +0.000 A 
ATOM     14  C   UNL     1       3.929   5.801  18.511  0.00  0.00    +0.000 A 
BRANCH   5  16
ATOM     15  C   UNL     1       1.586   4.548  20.580  0.00  0.00    +0.000 C 
ATOM     16  O   UNL     1       2.879   5.142  20.543  0.00  0.00    +0.000 OA
ENDBRANCH   5  16
ENDBRANCH   1   7
BRANCH   3  17
ATOM     17  C   UNL     1      -0.705  10.239  19.202  0.00  0.00    +0.000 A 
ATOM     18  C   UNL     1      -0.603  11.386  19.995  0.00  0.00    +0.000 A 
ATOM     19  C   UNL     1      -1.591  12.368  19.979  0.00  0.00    +0.000 A 
ATOM     20  C   UNL     1      -2.703  12.220  19.156  0.00  0.00    +0.000 A 
ATOM     21  C   UNL     1      -2.839  11.088  18.338  0.00  0.00    +0.000 A 
ATOM     22  C   UNL     1      -1.816  10.109  18.356  0.00  0.00    +0.000 A 
BRANCH  21  23
ATOM     23  C   UNL     1      -4.069  10.896  17.458  0.00  0.00    +0.000 C 
ATOM     24  C   UNL     1      -3.719  11.042  15.973  0.00  0.00    +0.000 C 
BRANCH  23  25
ATOM     25  S   UNL     1      -5.403  12.103  17.807  0.00  0.00    +0.000 S 
BRANCH  25  26
ATOM     26  C   UNL     1      -6.360  11.232  18.945  0.00  0.00    +0.000 A 
ATOM     27  N   UNL     1      -6.553   9.935  18.990  0.00  0.00    +0.000 NA
ATOM     28  N   UNL     1      -7.382   9.679  20.064  0.00  0.00    +0.000 NA
ATOM     29  C   UNL     1      -7.660  10.831  20.635  0.00  0.00    +0.000 A 
ATOM     30  N   UNL     1      -7.048  11.838  19.953  0.00  0.00    +0.000 N 
ATOM     31  C   UNL     1      -7.112  13.241  20.261  0.00  0.00    +0.000 C 
ENDBRANCH  25  26
ENDBRANCH  23  25
ENDBRANCH  21  23
ENDBRANCH   3  17
TORSDOF 6
ENDMDL
MODEL 7
REMARK VINA RESULT:      -8.5      6.379      9.642
REMARK  Name = 
REMARK  9 active torsions:
REMARK  status: ('A' for Active; 'I' for Inactive)
REMARK    1  A    between atoms: C_1  and  O_2
REMARK    2  A    between atoms: O_2  and  C_3
REMARK    3  A    between atoms: C_5  and  C_6
REMARK    4  A    between atoms: N_8  and  C_9
REMARK    5  A    between atoms: C_13  and  C_14
REMARK    6  A    between atoms: C_14  and  C_15
REMARK    7  A    between atoms: C_14  and  S_16
REMARK    8  A    between atoms: S_16  and  C_17
REMARK    9  A    between atoms: N_21  and  C_22
REMARK                            x       y       z     vdW  Elec       q    Type
REMARK                         _______ _______ _______ _____ _____    ______ ____
ROOT
ATOM      1  C   UNL     1       2.079   6.573  19.966  0.00  0.00    +0.000 C 
ATOM      2  O   UNL     1       1.507   5.956  20.863  0.00  0.00    +0.000 OA
ATOM      3  N   UNL     1       1.923   7.925  19.699  0.00  0.00    +0.000 N 
ATOM      4  H   UNL     1       2.307   8.255  18.820  0.00  0.00    +0.000 HD
ENDROOT
BRANCH   1   7
ATOM      5  C   UNL     1       3.955   3.833  18.394  0.00  0.00    +0.000 A 
ATOM      6  N   UNL     1       3.170   4.479  19.297  0.00  0.00    +0.000 NA
ATOM      7  C   UNL     1       3.001   5.804  19.075  0.00  0.00    +0.000 A 
ATOM      8  C   UNL     1       3.591   6.498  18.021  0.00  0.00    +0.000 A 
ATOM      9  C   UNL     1       4.404   5.819  17.119  0.00  0.00    +0.000 A 
ATOM     10  C   UNL     1       4.989   6.498  16.040  0.00  0.00    +0.000 A 
ATOM     11  C   UNL     1       5.787   5.817  15.124  0.00  0.00    +0.000 A 
ATOM     12  C   UNL     1       6.006   4.452  15.276  0.00  0.00    +0.000 A 
ATOM     13  C   UNL     1       5.427   3.766  16.351  0.00  0.00    +0.000 A 
ATOM     14  C   UNL     1       4.611   4.436  17.295  0.00  0.00    +0.000 A 
BRANCH   5  16
ATOM     15  C   UNL     1       2.914   1.753  18.635  0.00  0.00    +0.000 C 
ATOM     16  O   UNL     1       4.143   2.466  18.547  0.00  0.00    +0.000 OA
ENDBRANCH   5  16
ENDBRANCH   1   7
BRANCH   3  17
ATOM     17  C   UNL     1       1.163   8.821  20.495  0.00  0.00    +0.000 A 
ATOM     18  C   UNL     1       1.181   8.773  21.892  0.00  0.00    +0.000 A 
ATOM     19  C   UNL     1       0.417   9.652  22.656  0.00  0.00    +0.000 A 
ATOM     20  C   UNL     1      -0.379  10.605  22.029  0.00  0.00    +0.000 A 
ATOM     21  C   UNL     1      -0.418  10.692  20.630  0.00  0.00    +0.000 A 
ATOM     22  C   UNL     1       0.378   9.801  19.870  0.00  0.00    +0.000 A 
BRANCH  21  23
ATOM     23  C   UNL     1      -1.312  11.709  19.929  0.00  0.00    +0.000 C 
ATOM     24  C   UNL     1      -0.540  12.482  18.854  0.00  0.00    +0.000 C 
BRANCH  23  25
ATOM     25  S   UNL     1      -2.021  12.956  21.069  0.00  0.00    +0.000 S 
BRANCH  25  26
ATOM     26  C   UNL     1      -3.709  12.707  20.838  0.00  0.00    +0.000 A 
ATOM     27  N   UNL     1      -4.329  12.478  19.705  0.00  0.00    +0.000 NA
ATOM     28  N   UNL     1      -5.673  12.338  19.991  0.00  0.00    +0.000 NA
ATOM     29  C   UNL     1      -5.820  12.484  21.289  0.00  0.00    +0.000 A 
ATOM     30  N   UNL     1      -4.610  12.734  21.861  0.00  0.00    +0.000 N 
ATOM     31  C   UNL     1      -4.354  12.956  23.259  0.00  0.00    +0.000 C 
ENDBRANCH  25  26
ENDBRANCH  23  25
ENDBRANCH  21  23
ENDBRANCH   3  17
TORSDOF 6
ENDMDL
MODEL 8
REMARK VINA RESULT:      -8.5      5.537      9.710
REMARK  Name = 
REMARK  9 active torsions:
REMARK  status: ('A' for Active; 'I' for Inactive)
REMARK    1  A    between atoms: C_1  and  O_2
REMARK    2  A    between atoms: O_2  and  C_3
REMARK    3  A    between atoms: C_5  and  C_6
REMARK    4  A    between atoms: N_8  and  C_9
REMARK    5  A    between atoms: C_13  and  C_14
REMARK    6  A    between atoms: C_14  and  C_15
REMARK    7  A    between atoms: C_14  and  S_16
REMARK    8  A    between atoms: S_16  and  C_17
REMARK    9  A    between atoms: N_21  and  C_22
REMARK                            x       y       z     vdW  Elec       q    Type
REMARK                         _______ _______ _______ _____ _____    ______ ____
ROOT
ATOM      1  C   UNL     1       1.836   8.416  19.331  0.00  0.00    +0.000 C 
ATOM      2  O   UNL     1       1.806   9.436  18.645  0.00  0.00    +0.000 OA
ATOM      3  N   UNL     1       1.270   8.281  20.590  0.00  0.00    +0.000 N 
ATOM      4  H   UNL     1       1.533   7.453  21.113  0.00  0.00    +0.000 HD
ENDROOT
BRANCH   1   7
ATOM      5  C   UNL     1       2.901   4.965  18.654  0.00  0.00    +0.000 A 
ATOM      6  N   UNL     1       2.268   6.000  19.268  0.00  0.00    +0.000 NA
ATOM      7  C   UNL     1       2.557   7.229  18.777  0.00  0.00    +0.000 A 
ATOM      8  C   UNL     1       3.452   7.459  17.734  0.00  0.00    +0.000 A 
ATOM      9  C   UNL     1       4.100   6.385  17.133  0.00  0.00    +0.000 A 
ATOM     10  C   UNL     1       4.988   6.599  16.069  0.00  0.00    +0.000 A 
ATOM     11  C   UNL     1       5.624   5.523  15.451  0.00  0.00    +0.000 A 
ATOM     12  C   UNL     1       5.377   4.227  15.891  0.00  0.00    +0.000 A 
ATOM     13  C   UNL     1       4.493   4.006  16.955  0.00  0.00    +0.000 A 
ATOM     14  C   UNL     1       3.834   5.082  17.597  0.00  0.00    +0.000 A 
BRANCH   5  16
ATOM     15  C   UNL     1       1.278   3.292  18.835  0.00  0.00    +0.000 C 
ATOM     16  O   UNL     1       2.624   3.676  19.089  0.00  0.00    +0.000 OA
ENDBRANCH   5  16
ENDBRANCH   1   7
BRANCH   3  17
ATOM     17  C   UNL     1       0.475   9.270  21.226  0.00  0.00    +0.000 A 
ATOM     18  C   UNL     1       0.156   9.205  22.586  0.00  0.00    +0.000 A 
ATOM     19  C   UNL     1      -0.637  10.178  23.190  0.00  0.00    +0.000 A 
ATOM     20  C   UNL     1      -1.121  11.244  22.438  0.00  0.00    +0.000 A 
ATOM     21  C   UNL     1      -0.816  11.349  21.073  0.00  0.00    +0.000 A 
ATOM     22  C   UNL     1       0.005  10.360  20.481  0.00  0.00    +0.000 A 
BRANCH  21  23
ATOM     23  C   UNL     1      -1.369  12.493  20.230  0.00  0.00    +0.000 C 
ATOM     24  C   UNL     1      -2.887  12.369  20.052  0.00  0.00    +0.000 C 
BRANCH  23  25
ATOM     25  S   UNL     1      -0.645  12.567  18.548  0.00  0.00    +0.000 S 
BRANCH  25  26
ATOM     26  C   UNL     1       0.281  14.016  18.640  0.00  0.00    +0.000 A 
ATOM     27  N   UNL     1      -0.170  15.235  18.818  0.00  0.00    +0.000 NA
ATOM     28  N   UNL     1       0.922  16.080  18.831  0.00  0.00    +0.000 NA
ATOM     29  C   UNL     1       1.998  15.343  18.663  0.00  0.00    +0.000 A 
ATOM     30  N   UNL     1       1.639  14.037  18.523  0.00  0.00    +0.000 N 
ATOM     31  C   UNL     1       2.526  12.924  18.317  0.00  0.00    +0.000 C 
ENDBRANCH  25  26
ENDBRANCH  23  25
ENDBRANCH  21  23
ENDBRANCH   3  17
TORSDOF 6
ENDMDL
MODEL 9
REMARK VINA RESULT:      -8.5      5.250      9.584
REMARK  Name = 
REMARK  9 active torsions:
REMARK  status: ('A' for Active; 'I' for Inactive)
REMARK    1  A    between atoms: C_1  and  O_2
REMARK    2  A    between atoms: O_2  and  C_3
REMARK    3  A    between atoms: C_5  and  C_6
REMARK    4  A    between atoms: N_8  and  C_9
REMARK    5  A    between atoms: C_13  and  C_14
REMARK    6  A    between atoms: C_14  and  C_15
REMARK    7  A    between atoms: C_14  and  S_16
REMARK    8  A    between atoms: S_16  and  C_17
REMARK    9  A    between atoms: N_21  and  C_22
REMARK                            x       y       z     vdW  Elec       q    Type
REMARK                         _______ _______ _______ _____ _____    ______ ____
ROOT
ATOM      1  C   UNL     1       1.992   8.129  19.207  0.00  0.00    +0.000 C 
ATOM      2  O   UNL     1       1.734   9.056  18.441  0.00  0.00    +0.000 OA
ATOM      3  N   UNL     1       1.671   8.092  20.556  0.00  0.00    +0.000 N 
ATOM      4  H   UNL     1       2.109   7.357  21.100  0.00  0.00    +0.000 HD
ENDROOT
BRANCH   1   7
ATOM      5  C   UNL     1       3.097   4.695  18.505  0.00  0.00    +0.000 A 
ATOM      6  N   UNL     1       2.445   5.718  19.121  0.00  0.00    +0.000 NA
ATOM      7  C   UNL     1       2.732   6.955  18.650  0.00  0.00    +0.000 A 
ATOM      8  C   UNL     1       3.641   7.206  17.624  0.00  0.00    +0.000 A 
ATOM      9  C   UNL     1       4.308   6.145  17.021  0.00  0.00    +0.000 A 
ATOM     10  C   UNL     1       5.211   6.378  15.973  0.00  0.00    +0.000 A 
ATOM     11  C   UNL     1       5.865   5.316  15.352  0.00  0.00    +0.000 A 
ATOM     12  C   UNL     1       5.622   4.012  15.773  0.00  0.00    +0.000 A 
ATOM     13  C   UNL     1       4.723   3.770  16.819  0.00  0.00    +0.000 A 
ATOM     14  C   UNL     1       4.045   4.833  17.464  0.00  0.00    +0.000 A 
BRANCH   5  16
ATOM     15  C   UNL     1       2.895   3.253  20.334  0.00  0.00    +0.000 C 
ATOM     16  O   UNL     1       2.824   3.400  18.920  0.00  0.00    +0.000 OA
ENDBRANCH   5  16
ENDBRANCH   1   7
BRANCH   3  17
ATOM     17  C   UNL     1       0.895   9.073  21.226  0.00  0.00    +0.000 A 
ATOM     18  C   UNL     1       0.295   8.827  22.464  0.00  0.00    +0.000 A 
ATOM     19  C   UNL     1      -0.475   9.799  23.101  0.00  0.00    +0.000 A 
ATOM     20  C   UNL     1      -0.651  11.044  22.507  0.00  0.00    +0.000 A 
ATOM     21  C   UNL     1      -0.058  11.333  21.269  0.00  0.00    +0.000 A 
ATOM     22  C   UNL     1       0.734  10.339  20.645  0.00  0.00    +0.000 A 
BRANCH  21  23
ATOM     23  C   UNL     1      -0.272  12.681  20.590  0.00  0.00    +0.000 C 
ATOM     24  C   UNL     1      -1.505  12.656  19.678  0.00  0.00    +0.000 C 
BRANCH  23  25
ATOM     25  S   UNL     1       1.143  13.198  19.547  0.00  0.00    +0.000 S 
BRANCH  25  26
ATOM     26  C   UNL     1       2.118  14.040  20.692  0.00  0.00    +0.000 A 
ATOM     27  N   UNL     1       1.858  14.236  21.963  0.00  0.00    +0.000 NA
ATOM     28  N   UNL     1       2.912  14.952  22.493  0.00  0.00    +0.000 NA
ATOM     29  C   UNL     1       3.777  15.163  21.526  0.00  0.00    +0.000 A 
ATOM     30  N   UNL     1       3.310  14.618  20.369  0.00  0.00    +0.000 N 
ATOM     31  C   UNL     1       3.962  14.641  19.088  0.00  0.00    +0.000 C 
ENDBRANCH  25  26
ENDBRANCH  23  25
ENDBRANCH  21  23
ENDBRANCH   3  17
TORSDOF 6
ENDMDL
