MODEL 1
REMARK VINA RESULT:     -10.5      0.000      0.000
REMARK  Name = 
REMARK  8 active torsions:
REMARK  status: ('A' for Active; 'I' for Inactive)
REMARK    1  A    between atoms: C_1  and  N_2
REMARK    2  A    between atoms: C_6  and  C_7
REMARK    3  A    between atoms: C_7  and  C_8
REMARK    4  A    between atoms: C_8  and  C_9
REMARK    5  A    between atoms: C_13  and  N_14
REMARK    6  A    between atoms: C_19  and  C_20
REMARK    7  A    between atoms: C_20  and  N_21
REMARK    8  A    between atoms: C_29  and  C_30
REMARK                            x       y       z     vdW  Elec       q    Type
REMARK                         _______ _______ _______ _____ _____    ______ ____
ROOT
ATOM      1  N   UNL     1       1.592   8.099  20.075  0.00  0.00    +0.000 N 
ATOM      2  C   UNL     1       1.713   6.758  20.599  0.00  0.00    +0.000 C 
ATOM      3  C   UNL     1       2.347   5.995  19.508  0.00  0.00    +0.000 A 
ATOM      4  C   UNL     1       2.762   6.866  18.502  0.00  0.00    +0.000 A 
ATOM      5  C   UNL     1       3.496   6.396  17.424  0.00  0.00    +0.000 A 
ATOM      6  C   UNL     1       3.745   5.007  17.346  0.00  0.00    +0.000 A 
ATOM      7  C   UNL     1       3.199   4.136  18.323  0.00  0.00    +0.000 A 
ATOM      8  C   UNL     1       2.523   4.621  19.443  0.00  0.00    +0.000 A 
ATOM      9  C   UNL     1       2.243   8.228  18.838  0.00  0.00    +0.000 C 
ATOM     10  O   UNL     1       2.372   9.189  18.112  0.00  0.00    +0.000 OA
ENDROOT
BRANCH   1  15
ATOM     11  C   UNL     1      -0.675  11.044  20.544  0.00  0.00    +0.000 A 
ATOM     12  C   UNL     1      -0.775  11.055  21.942  0.00  0.00    +0.000 A 
ATOM     13  C   UNL     1      -0.146  10.075  22.731  0.00  0.00    +0.000 A 
ATOM     14  C   UNL     1       0.627   9.060  22.150  0.00  0.00    +0.000 A 
ATOM     15  C   UNL     1       0.758   9.012  20.773  0.00  0.00    +0.000 A 
ATOM     16  C   UNL     1       0.071   9.984  20.014  0.00  0.00    +0.000 A 
BRANCH  11  17
ATOM     17  C   UNL     1      -1.363  12.118  19.548  0.00  0.00    +0.000 C 
ATOM     18  C   UNL     1      -0.452  12.576  18.376  0.00  0.00    +0.000 C 
ATOM     19  O   UNL     1      -0.466  13.949  18.801  0.00  0.00    +0.000 OA
ATOM     20  C   UNL     1      -1.283  13.629  19.947  0.00  0.00    +0.000 C 
BRANCH  17  21
ATOM     21  C   UNL     1      -2.789  11.674  19.107  0.00  0.00    +0.000 C 
BRANCH  21  27
ATOM     22  C   UNL     1      -5.197  12.063  17.011  0.00  0.00    +0.000 C 
ATOM     23  N   UNL     1      -3.965  11.347  16.829  0.00  0.00    +0.000 N 
ATOM     24  C   UNL     1      -3.646  10.664  15.688  0.00  0.00    +0.000 A 
ATOM     25  N   UNL     1      -2.480  10.085  15.834  0.00  0.00    +0.000 NA
ATOM     26  N   UNL     1      -2.027  10.378  17.094  0.00  0.00    +0.000 NA
ATOM     27  C   UNL     1      -2.907  11.164  17.695  0.00  0.00    +0.000 A 
ENDBRANCH  21  27
ENDBRANCH  17  21
ENDBRANCH  11  17
ENDBRANCH   1  15
BRANCH   8  28
ATOM     28  C   UNL     1       2.019   3.688  20.517  0.00  0.00    +0.000 C 
ATOM     29  F   UNL     1       0.669   3.693  20.666  0.00  0.00    +0.000 F 
ATOM     30  F   UNL     1       2.374   2.396  20.291  0.00  0.00    +0.000 F 
ATOM     31  F   UNL     1       2.516   4.009  21.743  0.00  0.00    +0.000 F 
ENDBRANCH   8  28
BRANCH   6  32
ATOM     32  C   UNL     1       4.678   4.411  16.304  0.00  0.00    +0.000 C 
BRANCH  32  33
ATOM     33  N   UNL     1       6.091   4.428  16.698  0.00  0.00    +0.000 NA
ATOM     34  C   UNL     1       6.816   5.642  16.302  0.00  0.00    +0.000 C 
ATOM     35  C   UNL     1       7.081   6.468  17.549  0.00  0.00    +0.000 C 
ATOM     36  C   UNL     1       7.067   5.467  18.672  0.00  0.00    +0.000 C 
ATOM     37  F   UNL     1       6.515   6.006  19.782  0.00  0.00    +0.000 F 
ATOM     38  F   UNL     1       8.328   5.094  18.991  0.00  0.00    +0.000 F 
ATOM     39  C   UNL     1       6.261   4.279  18.163  0.00  0.00    +0.000 C 
ENDBRANCH  32  33
ENDBRANCH   6  32
TORSDOF 7
ENDMDL
MODEL 2
REMARK VINA RESULT:     -10.3      1.831      2.903
REMARK  Name = 
REMARK  8 active torsions:
REMARK  status: ('A' for Active; 'I' for Inactive)
REMARK    1  A    between atoms: C_1  and  N_2
REMARK    2  A    between atoms: C_6  and  C_7
REMARK    3  A    between atoms: C_7  and  C_8
REMARK    4  A    between atoms: C_8  and  C_9
REMARK    5  A    between atoms: C_13  and  N_14
REMARK    6  A    between atoms: C_19  and  C_20
REMARK    7  A    between atoms: C_20  and  N_21
REMARK    8  A    between atoms: C_29  and  C_30
REMARK                            x       y       z     vdW  Elec       q    Type
REMARK                         _______ _______ _______ _____ _____    ______ ____
ROOT
ATOM      1  N   UNL     1       1.610   8.100  20.004  0.00  0.00    +0.000 N 
ATOM      2  C   UNL     1       1.718   6.770  20.560  0.00  0.00    +0.000 C 
ATOM      3  C   UNL     1       2.355   5.978  19.491  0.00  0.00    +0.000 A 
ATOM      4  C   UNL     1       2.785   6.823  18.469  0.00  0.00    +0.000 A 
ATOM      5  C   UNL     1       3.524   6.323  17.409  0.00  0.00    +0.000 A 
ATOM      6  C   UNL     1       3.764   4.932  17.364  0.00  0.00    +0.000 A 
ATOM      7  C   UNL     1       3.203   4.086  18.355  0.00  0.00    +0.000 A 
ATOM      8  C   UNL     1       2.521   4.601  19.458  0.00  0.00    +0.000 A 
ATOM      9  C   UNL     1       2.273   8.196  18.771  0.00  0.00    +0.000 C 
ATOM     10  O   UNL     1       2.415   9.139  18.024  0.00  0.00    +0.000 OA
ENDROOT
BRANCH   1  15
ATOM     11  C   UNL     1      -0.691  11.031  20.378  0.00  0.00    +0.000 A 
ATOM     12  C   UNL     1      -0.761  11.110  21.775  0.00  0.00    +0.000 A 
ATOM     13  C   UNL     1      -0.101  10.179  22.598  0.00  0.00    +0.000 A 
ATOM     14  C   UNL     1       0.675   9.148  22.050  0.00  0.00    +0.000 A 
ATOM     15  C   UNL     1       0.778   9.033  20.674  0.00  0.00    +0.000 A 
ATOM     16  C   UNL     1       0.060   9.957  19.884  0.00  0.00    +0.000 A 
BRANCH  11  17
ATOM     17  C   UNL     1      -1.416  12.045  19.346  0.00  0.00    +0.000 C 
ATOM     18  C   UNL     1      -2.967  12.054  19.444  0.00  0.00    +0.000 C 
ATOM     19  O   UNL     1      -3.131  11.604  18.088  0.00  0.00    +0.000 OA
ATOM     20  C   UNL     1      -1.703  11.522  17.899  0.00  0.00    +0.000 C 
BRANCH  17  21
ATOM     21  C   UNL     1      -0.771  13.462  19.370  0.00  0.00    +0.000 C 
BRANCH  21  27
ATOM     22  C   UNL     1       1.279  14.431  21.651  0.00  0.00    +0.000 C 
ATOM     23  N   UNL     1       1.579  13.929  20.339  0.00  0.00    +0.000 N 
ATOM     24  C   UNL     1       2.848  13.821  19.840  0.00  0.00    +0.000 A 
ATOM     25  N   UNL     1       2.800  13.368  18.611  0.00  0.00    +0.000 NA
ATOM     26  N   UNL     1       1.480  13.184  18.289  0.00  0.00    +0.000 NA
ATOM     27  C   UNL     1       0.734  13.496  19.338  0.00  0.00    +0.000 A 
ENDBRANCH  21  27
ENDBRANCH  17  21
ENDBRANCH  11  17
ENDBRANCH   1  15
BRANCH   8  28
ATOM     28  C   UNL     1       2.002   3.697  20.549  0.00  0.00    +0.000 C 
ATOM     29  F   UNL     1       2.454   4.010  21.791  0.00  0.00    +0.000 F 
ATOM     30  F   UNL     1       0.645   3.699  20.624  0.00  0.00    +0.000 F 
ATOM     31  F   UNL     1       2.369   2.400  20.351  0.00  0.00    +0.000 F 
ENDBRANCH   8  28
BRANCH   6  32
ATOM     32  C   UNL     1       4.700   4.306  16.343  0.00  0.00    +0.000 C 
BRANCH  32  33
ATOM     33  N   UNL     1       6.114   4.350  16.734  0.00  0.00    +0.000 NA
ATOM     34  C   UNL     1       6.824   5.560  16.301  0.00  0.00    +0.000 C 
ATOM     35  C   UNL     1       7.081   6.425  17.523  0.00  0.00    +0.000 C 
ATOM     36  C   UNL     1       7.081   5.458  18.674  0.00  0.00    +0.000 C 
ATOM     37  F   UNL     1       6.524   6.022  19.770  0.00  0.00    +0.000 F 
ATOM     38  F   UNL     1       8.347   5.108  19.002  0.00  0.00    +0.000 F 
ATOM     39  C   UNL     1       6.288   4.246  18.202  0.00  0.00    +0.000 C 
ENDBRANCH  32  33
ENDBRANCH   6  32
TORSDOF 7
ENDMDL
MODEL 3
REMARK VINA RESULT:     -10.3      1.998      3.026
REMARK  Name = 
REMARK  8 active torsions:
REMARK  status: ('A' for Active; 'I' for Inactive)
REMARK    1  A    between atoms: C_1  and  N_2
REMARK    2  A    between atoms: C_6  and  C_7
REMARK    3  A    between atoms: C_7  and  C_8
REMARK    4  A    between atoms: C_8  and  C_9
REMARK    5  A    between atoms: C_13  and  N_14
REMARK    6  A    between atoms: C_19  and  C_20
REMARK    7  A    between atoms: C_20  and  N_21
REMARK    8  A    between atoms: C_29  and  C_30
REMARK                            x       y       z     vdW  Elec       q    Type
REMARK                         _______ _______ _______ _____ _____    ______ ____
ROOT
ATOM      1  N   UNL     1       1.578   8.088  20.181  0.00  0.00    +0.000 N 
ATOM      2  C   UNL     1       1.713   6.742  20.690  0.00  0.00    +0.000 C 
ATOM      3  C   UNL     1       2.334   5.993  19.582  0.00  0.00    +0.000 A 
ATOM      4  C   UNL     1       2.731   6.875  18.579  0.00  0.00    +0.000 A 
ATOM      5  C   UNL     1       3.450   6.419  17.486  0.00  0.00    +0.000 A 
ATOM      6  C   UNL     1       3.704   5.033  17.390  0.00  0.00    +0.000 A 
ATOM      7  C   UNL     1       3.175   4.149  18.366  0.00  0.00    +0.000 A 
ATOM      8  C   UNL     1       2.514   4.620  19.500  0.00  0.00    +0.000 A 
ATOM      9  C   UNL     1       2.211   8.232  18.937  0.00  0.00    +0.000 C 
ATOM     10  O   UNL     1       2.325   9.201  18.218  0.00  0.00    +0.000 OA
ENDROOT
BRANCH   1  15
ATOM     11  C   UNL     1      -0.617  11.072  20.734  0.00  0.00    +0.000 A 
ATOM     12  C   UNL     1      -0.755  11.019  22.127  0.00  0.00    +0.000 A 
ATOM     13  C   UNL     1      -0.176   9.985  22.884  0.00  0.00    +0.000 A 
ATOM     14  C   UNL     1       0.584   8.976  22.275  0.00  0.00    +0.000 A 
ATOM     15  C   UNL     1       0.752   8.990  20.900  0.00  0.00    +0.000 A 
ATOM     16  C   UNL     1       0.113  10.018  20.172  0.00  0.00    +0.000 A 
BRANCH  11  17
ATOM     17  C   UNL     1      -1.247  12.212  19.774  0.00  0.00    +0.000 C 
ATOM     18  C   UNL     1      -2.784  12.103  19.576  0.00  0.00    +0.000 C 
ATOM     19  O   UNL     1      -2.664  11.905  18.157  0.00  0.00    +0.000 OA
ATOM     20  C   UNL     1      -1.224  11.953  18.231  0.00  0.00    +0.000 C 
BRANCH  17  21
ATOM     21  C   UNL     1      -0.758  13.638  20.164  0.00  0.00    +0.000 C 
BRANCH  21  27
ATOM     22  C   UNL     1       1.903  13.244  18.401  0.00  0.00    +0.000 C 
ATOM     23  N   UNL     1       1.799  13.557  19.799  0.00  0.00    +0.000 N 
ATOM     24  C   UNL     1       2.879  13.703  20.626  0.00  0.00    +0.000 A 
ATOM     25  N   UNL     1       2.468  13.947  21.846  0.00  0.00    +0.000 NA
ATOM     26  N   UNL     1       1.097  13.951  21.828  0.00  0.00    +0.000 NA
ATOM     27  C   UNL     1       0.683  13.742  20.589  0.00  0.00    +0.000 A 
ENDBRANCH  21  27
ENDBRANCH  17  21
ENDBRANCH  11  17
ENDBRANCH   1  15
BRANCH   8  28
ATOM     28  C   UNL     1       2.030   3.675  20.572  0.00  0.00    +0.000 C 
ATOM     29  F   UNL     1       0.680   3.652  20.722  0.00  0.00    +0.000 F 
ATOM     30  F   UNL     1       2.411   2.390  20.343  0.00  0.00    +0.000 F 
ATOM     31  F   UNL     1       2.520   4.003  21.800  0.00  0.00    +0.000 F 
ENDBRANCH   8  28
BRANCH   6  32
ATOM     32  C   UNL     1       4.623   4.451  16.328  0.00  0.00    +0.000 C 
BRANCH  32  33
ATOM     33  N   UNL     1       6.042   4.470  16.701  0.00  0.00    +0.000 NA
ATOM     34  C   UNL     1       6.746   5.706  16.340  0.00  0.00    +0.000 C 
ATOM     35  C   UNL     1       7.021   6.489  17.613  0.00  0.00    +0.000 C 
ATOM     36  C   UNL     1       7.036   5.447  18.697  0.00  0.00    +0.000 C 
ATOM     37  F   UNL     1       6.495   5.937  19.835  0.00  0.00    +0.000 F 
ATOM     38  F   UNL     1       8.307   5.077  18.983  0.00  0.00    +0.000 F 
ATOM     39  C   UNL     1       6.236   4.269  18.157  0.00  0.00    +0.000 C 
ENDBRANCH  32  33
ENDBRANCH   6  32
TORSDOF 7
ENDMDL
MODEL 4
REMARK VINA RESULT:     -10.2      1.901      2.912
REMARK  Name = 
REMARK  8 active torsions:
REMARK  status: ('A' for Active; 'I' for Inactive)
REMARK    1  A    between atoms: C_1  and  N_2
REMARK    2  A    between atoms: C_6  and  C_7
REMARK    3  A    between atoms: C_7  and  C_8
REMARK    4  A    between atoms: C_8  and  C_9
REMARK    5  A    between atoms: C_13  and  N_14
REMARK    6  A    between atoms: C_19  and  C_20
REMARK    7  A    between atoms: C_20  and  N_21
REMARK    8  A    between atoms: C_29  and  C_30
REMARK                            x       y       z     vdW  Elec       q    Type
REMARK                         _______ _______ _______ _____ _____    ______ ____
ROOT
ATOM      1  N   UNL     1       1.646   8.130  19.890  0.00  0.00    +0.000 N 
ATOM      2  C   UNL     1       1.736   6.803  20.454  0.00  0.00    +0.000 C 
ATOM      3  C   UNL     1       2.389   6.002  19.401  0.00  0.00    +0.000 A 
ATOM      4  C   UNL     1       2.841   6.839  18.383  0.00  0.00    +0.000 A 
ATOM      5  C   UNL     1       3.595   6.330  17.338  0.00  0.00    +0.000 A 
ATOM      6  C   UNL     1       3.829   4.937  17.304  0.00  0.00    +0.000 A 
ATOM      7  C   UNL     1       3.246   4.100  18.290  0.00  0.00    +0.000 A 
ATOM      8  C   UNL     1       2.547   4.624  19.378  0.00  0.00    +0.000 A 
ATOM      9  C   UNL     1       2.331   8.217  18.667  0.00  0.00    +0.000 C 
ATOM     10  O   UNL     1       2.491   9.155  17.919  0.00  0.00    +0.000 OA
ENDROOT
BRANCH   1  15
ATOM     11  C   UNL     1      -0.803  10.948  20.189  0.00  0.00    +0.000 A 
ATOM     12  C   UNL     1      -0.776  11.148  21.575  0.00  0.00    +0.000 A 
ATOM     13  C   UNL     1      -0.000  10.335  22.421  0.00  0.00    +0.000 A 
ATOM     14  C   UNL     1       0.798   9.304  21.905  0.00  0.00    +0.000 A 
ATOM     15  C   UNL     1       0.807   9.072  20.540  0.00  0.00    +0.000 A 
ATOM     16  C   UNL     1      -0.024   9.878  19.732  0.00  0.00    +0.000 A 
BRANCH  11  17
ATOM     17  C   UNL     1      -1.664  11.821  19.133  0.00  0.00    +0.000 C 
ATOM     18  C   UNL     1      -2.945  12.465  19.733  0.00  0.00    +0.000 C 
ATOM     19  O   UNL     1      -3.815  11.746  18.842  0.00  0.00    +0.000 OA
ATOM     20  C   UNL     1      -2.698  11.061  18.238  0.00  0.00    +0.000 C 
BRANCH  17  21
ATOM     21  C   UNL     1      -0.771  12.814  18.332  0.00  0.00    +0.000 C 
BRANCH  21  27
ATOM     22  C   UNL     1       2.440  12.624  18.330  0.00  0.00    +0.000 C 
ATOM     23  N   UNL     1       1.599  13.481  19.118  0.00  0.00    +0.000 N 
ATOM     24  C   UNL     1       2.074  14.357  20.055  0.00  0.00    +0.000 A 
ATOM     25  N   UNL     1       1.071  14.969  20.634  0.00  0.00    +0.000 NA
ATOM     26  N   UNL     1      -0.085  14.482  20.081  0.00  0.00    +0.000 NA
ATOM     27  C   UNL     1       0.224  13.600  19.144  0.00  0.00    +0.000 A 
ENDBRANCH  21  27
ENDBRANCH  17  21
ENDBRANCH  11  17
ENDBRANCH   1  15
BRANCH   8  28
ATOM     28  C   UNL     1       2.004   3.728  20.464  0.00  0.00    +0.000 C 
ATOM     29  F   UNL     1       2.300   2.413  20.296  0.00  0.00    +0.000 F 
ATOM     30  F   UNL     1       2.463   4.069  21.697  0.00  0.00    +0.000 F 
ATOM     31  F   UNL     1       0.645   3.783  20.536  0.00  0.00    +0.000 F 
ENDBRANCH   8  28
BRANCH   6  32
ATOM     32  C   UNL     1       4.780   4.301  16.303  0.00  0.00    +0.000 C 
BRANCH  32  33
ATOM     33  N   UNL     1       6.187   4.346  16.715  0.00  0.00    +0.000 NA
ATOM     34  C   UNL     1       6.904   5.555  16.289  0.00  0.00    +0.000 C 
ATOM     35  C   UNL     1       7.143   6.425  17.511  0.00  0.00    +0.000 C 
ATOM     36  C   UNL     1       7.125   5.462  18.666  0.00  0.00    +0.000 C 
ATOM     37  F   UNL     1       6.551   6.030  19.751  0.00  0.00    +0.000 F 
ATOM     38  F   UNL     1       8.386   5.114  19.014  0.00  0.00    +0.000 F 
ATOM     39  C   UNL     1       6.339   4.248  18.187  0.00  0.00    +0.000 C 
ENDBRANCH  32  33
ENDBRANCH   6  32
TORSDOF 7
ENDMDL
MODEL 5
REMARK VINA RESULT:     -10.1      1.945      2.799
REMARK  Name = 
REMARK  8 active torsions:
REMARK  status: ('A' for Active; 'I' for Inactive)
REMARK    1  A    between atoms: C_1  and  N_2
REMARK    2  A    between atoms: C_6  and  C_7
REMARK    3  A    between atoms: C_7  and  C_8
REMARK    4  A    between atoms: C_8  and  C_9
REMARK    5  A    between atoms: C_13  and  N_14
REMARK    6  A    between atoms: C_19  and  C_20
REMARK    7  A    between atoms: C_20  and  N_21
REMARK    8  A    between atoms: C_29  and  C_30
REMARK                            x       y       z     vdW  Elec       q    Type
REMARK                         _______ _______ _______ _____ _____    ______ ____
ROOT
ATOM      1  N   UNL     1       1.591   8.010  20.159  0.00  0.00    +0.000 N 
ATOM      2  C   UNL     1       1.710   6.661  20.663  0.00  0.00    +0.000 C 
ATOM      3  C   UNL     1       2.330   5.910  19.556  0.00  0.00    +0.000 A 
ATOM      4  C   UNL     1       2.742   6.793  18.559  0.00  0.00    +0.000 A 
ATOM      5  C   UNL     1       3.464   6.334  17.469  0.00  0.00    +0.000 A 
ATOM      6  C   UNL     1       3.705   4.946  17.369  0.00  0.00    +0.000 A 
ATOM      7  C   UNL     1       3.162   4.063  18.337  0.00  0.00    +0.000 A 
ATOM      8  C   UNL     1       2.498   4.536  19.470  0.00  0.00    +0.000 A 
ATOM      9  C   UNL     1       2.233   8.153  18.919  0.00  0.00    +0.000 C 
ATOM     10  O   UNL     1       2.361   9.123  18.205  0.00  0.00    +0.000 OA
ENDROOT
BRANCH   1  15
ATOM     11  C   UNL     1      -0.633  10.976  20.695  0.00  0.00    +0.000 A 
ATOM     12  C   UNL     1      -0.738  10.952  22.092  0.00  0.00    +0.000 A 
ATOM     13  C   UNL     1      -0.127   9.944  22.859  0.00  0.00    +0.000 A 
ATOM     14  C   UNL     1       0.633   8.932  22.255  0.00  0.00    +0.000 A 
ATOM     15  C   UNL     1       0.769   8.917  20.877  0.00  0.00    +0.000 A 
ATOM     16  C   UNL     1       0.099   9.919  20.141  0.00  0.00    +0.000 A 
BRANCH  11  17
ATOM     17  C   UNL     1      -1.300  12.085  19.724  0.00  0.00    +0.000 C 
ATOM     18  C   UNL     1      -2.022  13.238  20.475  0.00  0.00    +0.000 C 
ATOM     19  O   UNL     1      -3.298  12.919  19.894  0.00  0.00    +0.000 OA
ATOM     20  C   UNL     1      -2.739  11.798  19.179  0.00  0.00    +0.000 C 
BRANCH  17  21
ATOM     21  C   UNL     1      -0.311  12.567  18.622  0.00  0.00    +0.000 C 
BRANCH  21  27
ATOM     22  C   UNL     1      -0.154  15.778  18.704  0.00  0.00    +0.000 C 
ATOM     23  N   UNL     1       0.845  14.827  19.105  0.00  0.00    +0.000 N 
ATOM     24  C   UNL     1       2.083  15.177  19.569  0.00  0.00    +0.000 A 
ATOM     25  N   UNL     1       2.781  14.097  19.818  0.00  0.00    +0.000 NA
ATOM     26  N   UNL     1       1.998  13.016  19.502  0.00  0.00    +0.000 NA
ATOM     27  C   UNL     1       0.815  13.448  19.095  0.00  0.00    +0.000 A 
ENDBRANCH  21  27
ENDBRANCH  17  21
ENDBRANCH  11  17
ENDBRANCH   1  15
BRANCH   8  28
ATOM     28  C   UNL     1       1.998   3.591  20.534  0.00  0.00    +0.000 C 
ATOM     29  F   UNL     1       2.301   2.286  20.304  0.00  0.00    +0.000 F 
ATOM     30  F   UNL     1       2.492   3.886  21.766  0.00  0.00    +0.000 F 
ATOM     31  F   UNL     1       0.641   3.627  20.651  0.00  0.00    +0.000 F 
ENDBRANCH   8  28
BRANCH   6  32
ATOM     32  C   UNL     1       4.625   4.359  16.310  0.00  0.00    +0.000 C 
BRANCH  32  33
ATOM     33  N   UNL     1       6.045   4.391  16.679  0.00  0.00    +0.000 NA
ATOM     34  C   UNL     1       6.747   5.616  16.279  0.00  0.00    +0.000 C 
ATOM     35  C   UNL     1       7.024   6.437  17.527  0.00  0.00    +0.000 C 
ATOM     36  C   UNL     1       7.042   5.429  18.643  0.00  0.00    +0.000 C 
ATOM     37  F   UNL     1       6.503   5.953  19.767  0.00  0.00    +0.000 F 
ATOM     38  F   UNL     1       8.314   5.069  18.937  0.00  0.00    +0.000 F 
ATOM     39  C   UNL     1       6.243   4.234  18.140  0.00  0.00    +0.000 C 
ENDBRANCH  32  33
ENDBRANCH   6  32
TORSDOF 7
ENDMDL
MODEL 6
REMARK VINA RESULT:     -10.1      1.612      2.387
REMARK  Name = 
REMARK  8 active torsions:
REMARK  status: ('A' for Active; 'I' for Inactive)
REMARK    1  A    between atoms: C_1  and  N_2
REMARK    2  A    between atoms: C_6  and  C_7
REMARK    3  A    between atoms: C_7  and  C_8
REMARK    4  A    between atoms: C_8  and  C_9
REMARK    5  A    between atoms: C_13  and  N_14
REMARK    6  A    between atoms: C_19  and  C_20
REMARK    7  A    between atoms: C_20  and  N_21
REMARK    8  A    between atoms: C_29  and  C_30
REMARK                            x       y       z     vdW  Elec       q    Type
REMARK                         _______ _______ _______ _____ _____    ______ ____
ROOT
ATOM      1  N   UNL     1       1.595   8.022  20.158  0.00  0.00    +0.000 N 
ATOM      2  C   UNL     1       1.718   6.673  20.661  0.00  0.00    +0.000 C 
ATOM      3  C   UNL     1       2.344   5.926  19.554  0.00  0.00    +0.000 A 
ATOM      4  C   UNL     1       2.755   6.811  18.559  0.00  0.00    +0.000 A 
ATOM      5  C   UNL     1       3.481   6.357  17.470  0.00  0.00    +0.000 A 
ATOM      6  C   UNL     1       3.728   4.969  17.369  0.00  0.00    +0.000 A 
ATOM      7  C   UNL     1       3.186   4.084  18.336  0.00  0.00    +0.000 A 
ATOM      8  C   UNL     1       2.517   4.553  19.467  0.00  0.00    +0.000 A 
ATOM      9  C   UNL     1       2.240   8.169  18.920  0.00  0.00    +0.000 C 
ATOM     10  O   UNL     1       2.365   9.141  18.207  0.00  0.00    +0.000 OA
ENDROOT
BRANCH   1  15
ATOM     11  C   UNL     1      -0.742  10.904  20.670  0.00  0.00    +0.000 A 
ATOM     12  C   UNL     1      -0.773  10.947  22.070  0.00  0.00    +0.000 A 
ATOM     13  C   UNL     1      -0.074  10.008  22.850  0.00  0.00    +0.000 A 
ATOM     14  C   UNL     1       0.703   9.004  22.255  0.00  0.00    +0.000 A 
ATOM     15  C   UNL     1       0.767   8.925  20.875  0.00  0.00    +0.000 A 
ATOM     16  C   UNL     1       0.011   9.855  20.128  0.00  0.00    +0.000 A 
BRANCH  11  17
ATOM     17  C   UNL     1      -1.514  11.929  19.685  0.00  0.00    +0.000 C 
ATOM     18  C   UNL     1      -2.441  11.240  18.645  0.00  0.00    +0.000 C 
ATOM     19  O   UNL     1      -1.700  11.759  17.528  0.00  0.00    +0.000 OA
ATOM     20  C   UNL     1      -0.756  12.410  18.403  0.00  0.00    +0.000 C 
BRANCH  17  21
ATOM     21  C   UNL     1      -2.193  13.091  20.468  0.00  0.00    +0.000 C 
BRANCH  21  27
ATOM     22  C   UNL     1      -3.706  12.603  23.264  0.00  0.00    +0.000 C 
ATOM     23  N   UNL     1      -4.275  12.712  21.950  0.00  0.00    +0.000 N 
ATOM     24  C   UNL     1      -5.612  12.580  21.689  0.00  0.00    +0.000 A 
ATOM     25  N   UNL     1      -5.822  12.691  20.401  0.00  0.00    +0.000 NA
ATOM     26  N   UNL     1      -4.606  12.888  19.799  0.00  0.00    +0.000 NA
ATOM     27  C   UNL     1      -3.667  12.929  20.731  0.00  0.00    +0.000 A 
ENDBRANCH  21  27
ENDBRANCH  17  21
ENDBRANCH  11  17
ENDBRANCH   1  15
BRANCH   8  28
ATOM     28  C   UNL     1       2.019   3.604  20.529  0.00  0.00    +0.000 C 
ATOM     29  F   UNL     1       2.526   3.842  21.767  0.00  0.00    +0.000 F 
ATOM     30  F   UNL     1       0.666   3.633  20.659  0.00  0.00    +0.000 F 
ATOM     31  F   UNL     1       2.346   2.311  20.251  0.00  0.00    +0.000 F 
ENDBRANCH   8  28
BRANCH   6  32
ATOM     32  C   UNL     1       4.653   4.388  16.312  0.00  0.00    +0.000 C 
BRANCH  32  33
ATOM     33  N   UNL     1       6.069   4.391  16.700  0.00  0.00    +0.000 NA
ATOM     34  C   UNL     1       6.807   5.589  16.283  0.00  0.00    +0.000 C 
ATOM     35  C   UNL     1       7.089   6.431  17.516  0.00  0.00    +0.000 C 
ATOM     36  C   UNL     1       7.066   5.448  18.654  0.00  0.00    +0.000 C 
ATOM     37  F   UNL     1       6.526   6.010  19.759  0.00  0.00    +0.000 F 
ATOM     38  F   UNL     1       8.324   5.062  18.974  0.00  0.00    +0.000 F 
ATOM     39  C   UNL     1       6.243   4.263  18.167  0.00  0.00    +0.000 C 
ENDBRANCH  32  33
ENDBRANCH   6  32
TORSDOF 7
ENDMDL
MODEL 7
REMARK VINA RESULT:     -10.0      0.673      1.079
REMARK  Name = 
REMARK  8 active torsions:
REMARK  status: ('A' for Active; 'I' for Inactive)
REMARK    1  A    between atoms: C_1  and  N_2
REMARK    2  A    between atoms: C_6  and  C_7
REMARK    3  A    between atoms: C_7  and  C_8
REMARK    4  A    between atoms: C_8  and  C_9
REMARK    5  A    between atoms: C_13  and  N_14
REMARK    6  A    between atoms: C_19  and  C_20
REMARK    7  A    between atoms: C_20  and  N_21
REMARK    8  A    between atoms: C_29  and  C_30
REMARK                            x       y       z     vdW  Elec       q    Type
REMARK                         _______ _______ _______ _____ _____    ______ ____
ROOT
ATOM      1  N   UNL     1       1.636   8.063  19.970  0.00  0.00    +0.000 N 
ATOM      2  C   UNL     1       1.703   6.727  20.519  0.00  0.00    +0.000 C 
ATOM      3  C   UNL     1       2.344   5.928  19.458  0.00  0.00    +0.000 A 
ATOM      4  C   UNL     1       2.813   6.769  18.451  0.00  0.00    +0.000 A 
ATOM      5  C   UNL     1       3.563   6.260  17.402  0.00  0.00    +0.000 A 
ATOM      6  C   UNL     1       3.772   4.863  17.353  0.00  0.00    +0.000 A 
ATOM      7  C   UNL     1       3.173   4.025  18.328  0.00  0.00    +0.000 A 
ATOM      8  C   UNL     1       2.480   4.548  19.420  0.00  0.00    +0.000 A 
ATOM      9  C   UNL     1       2.326   8.152  18.751  0.00  0.00    +0.000 C 
ATOM     10  O   UNL     1       2.504   9.096  18.013  0.00  0.00    +0.000 OA
ENDROOT
BRANCH   1  15
ATOM     11  C   UNL     1      -0.364  11.202  20.391  0.00  0.00    +0.000 A 
ATOM     12  C   UNL     1      -0.653  11.124  21.760  0.00  0.00    +0.000 A 
ATOM     13  C   UNL     1      -0.242  10.027  22.537  0.00  0.00    +0.000 A 
ATOM     14  C   UNL     1       0.497   8.975  21.977  0.00  0.00    +0.000 A 
ATOM     15  C   UNL     1       0.811   9.011  20.629  0.00  0.00    +0.000 A 
ATOM     16  C   UNL     1       0.337  10.105  19.873  0.00  0.00    +0.000 A 
BRANCH  11  17
ATOM     17  C   UNL     1      -0.795  12.413  19.410  0.00  0.00    +0.000 C 
ATOM     18  C   UNL     1       0.282  13.522  19.252  0.00  0.00    +0.000 C 
ATOM     19  O   UNL     1      -0.574  14.538  19.801  0.00  0.00    +0.000 OA
ATOM     20  C   UNL     1      -1.631  13.583  20.027  0.00  0.00    +0.000 C 
BRANCH  17  21
ATOM     21  C   UNL     1      -1.372  11.893  18.060  0.00  0.00    +0.000 C 
BRANCH  21  27
ATOM     22  C   UNL     1      -3.231  10.989  15.595  0.00  0.00    +0.000 C 
ATOM     23  N   UNL     1      -3.620  11.268  16.949  0.00  0.00    +0.000 N 
ATOM     24  C   UNL     1      -4.914  11.220  17.391  0.00  0.00    +0.000 A 
ATOM     25  N   UNL     1      -4.959  11.560  18.656  0.00  0.00    +0.000 NA
ATOM     26  N   UNL     1      -3.679  11.848  19.053  0.00  0.00    +0.000 NA
ATOM     27  C   UNL     1      -2.858  11.649  18.034  0.00  0.00    +0.000 A 
ENDBRANCH  21  27
ENDBRANCH  17  21
ENDBRANCH  11  17
ENDBRANCH   1  15
BRANCH   8  28
ATOM     28  C   UNL     1       1.919   3.649  20.494  0.00  0.00    +0.000 C 
ATOM     29  F   UNL     1       0.570   3.728  20.633  0.00  0.00    +0.000 F 
ATOM     30  F   UNL     1       2.205   2.338  20.276  0.00  0.00    +0.000 F 
ATOM     31  F   UNL     1       2.424   3.948  21.723  0.00  0.00    +0.000 F 
ENDBRANCH   8  28
BRANCH   6  32
ATOM     32  C   UNL     1       4.716   4.223  16.348  0.00  0.00    +0.000 C 
BRANCH  32  33
ATOM     33  N   UNL     1       6.130   4.307  16.728  0.00  0.00    +0.000 NA
ATOM     34  C   UNL     1       6.809   5.524  16.266  0.00  0.00    +0.000 C 
ATOM     35  C   UNL     1       7.054   6.421  17.467  0.00  0.00    +0.000 C 
ATOM     36  C   UNL     1       7.083   5.478  18.639  0.00  0.00    +0.000 C 
ATOM     37  F   UNL     1       6.520   6.052  19.726  0.00  0.00    +0.000 F 
ATOM     38  F   UNL     1       8.359   5.164  18.965  0.00  0.00    +0.000 F 
ATOM     39  C   UNL     1       6.316   4.238  18.197  0.00  0.00    +0.000 C 
ENDBRANCH  32  33
ENDBRANCH   6  32
TORSDOF 7
ENDMDL
MODEL 8
REMARK VINA RESULT:     -10.0      1.445      1.987
REMARK  Name = 
REMARK  8 active torsions:
REMARK  status: ('A' for Active; 'I' for Inactive)
REMARK    1  A    between atoms: C_1  and  N_2
REMARK    2  A    between atoms: C_6  and  C_7
REMARK    3  A    between atoms: C_7  and  C_8
REMARK    4  A    between atoms: C_8  and  C_9
REMARK    5  A    between atoms: C_13  and  N_14
REMARK    6  A    between atoms: C_19  and  C_20
REMARK    7  A    between atoms: C_20  and  N_21
REMARK    8  A    between atoms: C_29  and  C_30
REMARK                            x       y       z     vdW  Elec       q    Type
REMARK                         _______ _______ _______ _____ _____    ______ ____
ROOT
ATOM      1  N   UNL     1       1.586   8.032  20.233  0.00  0.00    +0.000 N 
ATOM      2  C   UNL     1       1.714   6.691  20.756  0.00  0.00    +0.000 C 
ATOM      3  C   UNL     1       2.301   5.920  19.645  0.00  0.00    +0.000 A 
ATOM      4  C   UNL     1       2.686   6.784  18.622  0.00  0.00    +0.000 A 
ATOM      5  C   UNL     1       3.375   6.304  17.519  0.00  0.00    +0.000 A 
ATOM      6  C   UNL     1       3.610   4.913  17.436  0.00  0.00    +0.000 A 
ATOM      7  C   UNL     1       3.092   4.049  18.435  0.00  0.00    +0.000 A 
ATOM      8  C   UNL     1       2.462   4.544  19.578  0.00  0.00    +0.000 A 
ATOM      9  C   UNL     1       2.192   8.152  18.973  0.00  0.00    +0.000 C 
ATOM     10  O   UNL     1       2.303   9.109  18.239  0.00  0.00    +0.000 OA
ENDROOT
BRANCH   1  15
ATOM     11  C   UNL     1       0.278  11.374  21.305  0.00  0.00    +0.000 A 
ATOM     12  C   UNL     1      -0.527  10.986  22.385  0.00  0.00    +0.000 A 
ATOM     13  C   UNL     1      -0.685   9.633  22.735  0.00  0.00    +0.000 A 
ATOM     14  C   UNL     1      -0.023   8.618  22.030  0.00  0.00    +0.000 A 
ATOM     15  C   UNL     1       0.787   8.954  20.958  0.00  0.00    +0.000 A 
ATOM     16  C   UNL     1       0.879  10.319  20.609  0.00  0.00    +0.000 A 
BRANCH  11  17
ATOM     17  C   UNL     1       0.520  12.898  20.819  0.00  0.00    +0.000 C 
ATOM     18  C   UNL     1       2.016  13.310  20.733  0.00  0.00    +0.000 C 
ATOM     19  O   UNL     1       1.865  14.346  21.719  0.00  0.00    +0.000 OA
ATOM     20  C   UNL     1       0.471  14.022  21.906  0.00  0.00    +0.000 C 
BRANCH  17  21
ATOM     21  C   UNL     1      -0.306  13.241  19.544  0.00  0.00    +0.000 C 
BRANCH  21  27
ATOM     22  C   UNL     1      -1.802  11.068  17.705  0.00  0.00    +0.000 C 
ATOM     23  N   UNL     1      -2.356  11.881  18.751  0.00  0.00    +0.000 N 
ATOM     24  C   UNL     1      -3.678  11.868  19.104  0.00  0.00    +0.000 A 
ATOM     25  N   UNL     1      -3.886  12.740  20.059  0.00  0.00    +0.000 NA
ATOM     26  N   UNL     1      -2.688  13.347  20.335  0.00  0.00    +0.000 NA
ATOM     27  C   UNL     1      -1.751  12.816  19.566  0.00  0.00    +0.000 A 
ENDBRANCH  21  27
ENDBRANCH  17  21
ENDBRANCH  11  17
ENDBRANCH   1  15
BRANCH   8  28
ATOM     28  C   UNL     1       1.990   3.619  20.672  0.00  0.00    +0.000 C 
ATOM     29  F   UNL     1       2.339   2.318  20.488  0.00  0.00    +0.000 F 
ATOM     30  F   UNL     1       2.467   3.973  21.894  0.00  0.00    +0.000 F 
ATOM     31  F   UNL     1       0.632   3.611  20.782  0.00  0.00    +0.000 F 
ENDBRANCH   8  28
BRANCH   6  32
ATOM     32  C   UNL     1       4.498   4.306  16.362  0.00  0.00    +0.000 C 
BRANCH  32  33
ATOM     33  N   UNL     1       5.928   4.348  16.685  0.00  0.00    +0.000 NA
ATOM     34  C   UNL     1       6.609   5.576  16.258  0.00  0.00    +0.000 C 
ATOM     35  C   UNL     1       6.921   6.405  17.492  0.00  0.00    +0.000 C 
ATOM     36  C   UNL     1       6.981   5.402  18.611  0.00  0.00    +0.000 C 
ATOM     37  F   UNL     1       6.475   5.927  19.749  0.00  0.00    +0.000 F 
ATOM     38  F   UNL     1       8.264   5.051  18.867  0.00  0.00    +0.000 F 
ATOM     39  C   UNL     1       6.174   4.200  18.140  0.00  0.00    +0.000 C 
ENDBRANCH  32  33
ENDBRANCH   6  32
TORSDOF 7
ENDMDL
MODEL 9
REMARK VINA RESULT:     -10.0      1.201      1.558
REMARK  Name = 
REMARK  8 active torsions:
REMARK  status: ('A' for Active; 'I' for Inactive)
REMARK    1  A    between atoms: C_1  and  N_2
REMARK    2  A    between atoms: C_6  and  C_7
REMARK    3  A    between atoms: C_7  and  C_8
REMARK    4  A    between atoms: C_8  and  C_9
REMARK    5  A    between atoms: C_13  and  N_14
REMARK    6  A    between atoms: C_19  and  C_20
REMARK    7  A    between atoms: C_20  and  N_21
REMARK    8  A    between atoms: C_29  and  C_30
REMARK                            x       y       z     vdW  Elec       q    Type
REMARK                         _______ _______ _______ _____ _____    ______ ____
ROOT
ATOM      1  N   UNL     1       1.667   8.132  20.088  0.00  0.00    +0.000 N 
ATOM      2  C   UNL     1       1.771   6.802  20.645  0.00  0.00    +0.000 C 
ATOM      3  C   UNL     1       2.360   5.996  19.559  0.00  0.00    +0.000 A 
ATOM      4  C   UNL     1       2.770   6.830  18.521  0.00  0.00    +0.000 A 
ATOM      5  C   UNL     1       3.465   6.315  17.438  0.00  0.00    +0.000 A 
ATOM      6  C   UNL     1       3.681   4.919  17.392  0.00  0.00    +0.000 A 
ATOM      7  C   UNL     1       3.139   4.087  18.404  0.00  0.00    +0.000 A 
ATOM      8  C   UNL     1       2.502   4.617  19.527  0.00  0.00    +0.000 A 
ATOM      9  C   UNL     1       2.290   8.213  18.833  0.00  0.00    +0.000 C 
ATOM     10  O   UNL     1       2.423   9.151  18.078  0.00  0.00    +0.000 OA
ENDROOT
BRANCH   1  15
ATOM     11  C   UNL     1       0.358  11.513  21.028  0.00  0.00    +0.000 A 
ATOM     12  C   UNL     1      -0.434  11.169  22.132  0.00  0.00    +0.000 A 
ATOM     13  C   UNL     1      -0.583   9.832  22.543  0.00  0.00    +0.000 A 
ATOM     14  C   UNL     1       0.075   8.789  21.875  0.00  0.00    +0.000 A 
ATOM     15  C   UNL     1       0.872   9.081  20.781  0.00  0.00    +0.000 A 
ATOM     16  C   UNL     1       0.956  10.430  20.372  0.00  0.00    +0.000 A 
BRANCH  11  17
ATOM     17  C   UNL     1       0.589  13.014  20.473  0.00  0.00    +0.000 C 
ATOM     18  C   UNL     1       1.765  13.149  19.467  0.00  0.00    +0.000 C 
ATOM     19  O   UNL     1       2.486  14.058  20.315  0.00  0.00    +0.000 OA
ATOM     20  C   UNL     1       1.470  13.978  21.336  0.00  0.00    +0.000 C 
BRANCH  17  21
ATOM     21  C   UNL     1      -0.739  13.668  19.987  0.00  0.00    +0.000 C 
BRANCH  21  27
ATOM     22  C   UNL     1      -3.701  12.594  20.635  0.00  0.00    +0.000 C 
ATOM     23  N   UNL     1      -2.898  12.344  19.471  0.00  0.00    +0.000 N 
ATOM     24  C   UNL     1      -3.291  11.540  18.436  0.00  0.00    +0.000 A 
ATOM     25  N   UNL     1      -2.336  11.476  17.542  0.00  0.00    +0.000 NA
ATOM     26  N   UNL     1      -1.292  12.239  17.996  0.00  0.00    +0.000 NA
ATOM     27  C   UNL     1      -1.632  12.789  19.151  0.00  0.00    +0.000 A 
ENDBRANCH  21  27
ENDBRANCH  17  21
ENDBRANCH  11  17
ENDBRANCH   1  15
BRANCH   8  28
ATOM     28  C   UNL     1       2.004   3.725  20.637  0.00  0.00    +0.000 C 
ATOM     29  F   UNL     1       0.655   3.738  20.795  0.00  0.00    +0.000 F 
ATOM     30  F   UNL     1       2.355   2.424  20.456  0.00  0.00    +0.000 F 
ATOM     31  F   UNL     1       2.510   4.090  21.848  0.00  0.00    +0.000 F 
ENDBRANCH   8  28
BRANCH   6  32
ATOM     32  C   UNL     1       4.573   4.274  16.343  0.00  0.00    +0.000 C 
BRANCH  32  33
ATOM     33  N   UNL     1       6.000   4.298  16.686  0.00  0.00    +0.000 NA
ATOM     34  C   UNL     1       6.714   5.493  16.221  0.00  0.00    +0.000 C 
ATOM     35  C   UNL     1       7.026   6.363  17.426  0.00  0.00    +0.000 C 
ATOM     36  C   UNL     1       7.048   5.405  18.585  0.00  0.00    +0.000 C 
ATOM     37  F   UNL     1       6.537   5.986  19.694  0.00  0.00    +0.000 F 
ATOM     38  F   UNL     1       8.318   5.037  18.874  0.00  0.00    +0.000 F 
ATOM     39  C   UNL     1       6.220   4.203  18.149  0.00  0.00    +0.000 C 
ENDBRANCH  32  33
ENDBRANCH   6  32
TORSDOF 7
ENDMDL
