MODEL 1
REMARK VINA RESULT:      -8.4      0.000      0.000
REMARK  Name = 
REMARK  9 active torsions:
REMARK  status: ('A' for Active; 'I' for Inactive)
REMARK    1  A    between atoms: C_1  and  C_2
REMARK    2  A    between atoms: C_2  and  S_3
REMARK    3  A    between atoms: C_2  and  C_10
REMARK    4  A    between atoms: S_3  and  C_4
REMARK    5  A    between atoms: N_8  and  C_9
REMARK    6  A    between atoms: C_14  and  N_15
REMARK    7  A    between atoms: C_16  and  C_18
REMARK    8  A    between atoms: C_22  and  O_23
REMARK    9  A    between atoms: O_23  and  C_24
REMARK                            x       y       z     vdW  Elec       q    Type
REMARK                         _______ _______ _______ _____ _____    ______ ____
ROOT
ATOM      1  C   UNL     1       0.144  10.809  20.226  0.00  0.00    +0.000 A 
ATOM      2  C   UNL     1      -0.118  10.656  21.598  0.00  0.00    +0.000 A 
ATOM      3  C   UNL     1       0.392   9.577  22.313  0.00  0.00    +0.000 A 
ATOM      4  C   UNL     1       1.141   8.605  21.663  0.00  0.00    +0.000 A 
ATOM      5  C   UNL     1       1.379   8.686  20.291  0.00  0.00    +0.000 A 
ATOM      6  C   UNL     1       0.903   9.803  19.584  0.00  0.00    +0.000 A 
ENDROOT
BRANCH   5   7
ATOM      7  N   UNL     1       2.097   7.690  19.593  0.00  0.00    +0.000 N 
ATOM      8  C   UNL     1       2.096   6.339  19.909  0.00  0.00    +0.000 C 
ATOM      9  O   UNL     1       1.393   5.782  20.741  0.00  0.00    +0.000 OA
ATOM     10  H   UNL     1       2.543   7.977  18.728  0.00  0.00    +0.000 HD
BRANCH   8  11
ATOM     11  C   UNL     1       3.008   5.480  19.111  0.00  0.00    +0.000 A 
ATOM     12  C   UNL     1       2.463   4.757  18.042  0.00  0.00    +0.000 A 
ATOM     13  C   UNL     1       3.267   3.896  17.302  0.00  0.00    +0.000 A 
ATOM     14  C   UNL     1       4.618   3.774  17.622  0.00  0.00    +0.000 A 
ATOM     15  C   UNL     1       5.176   4.508  18.675  0.00  0.00    +0.000 A 
ATOM     16  C   UNL     1       4.358   5.326  19.452  0.00  0.00    +0.000 A 
BRANCH  15  17
ATOM     17  O   UNL     1       6.502   4.282  18.888  0.00  0.00    +0.000 OA
BRANCH  17  18
ATOM     18  C   UNL     1       7.464   5.061  18.187  0.00  0.00    +0.000 C 
ATOM     19  F   UNL     1       6.931   5.998  17.371  0.00  0.00    +0.000 F 
ATOM     20  F   UNL     1       8.273   5.672  19.077  0.00  0.00    +0.000 F 
ATOM     21  F   UNL     1       8.214   4.235  17.426  0.00  0.00    +0.000 F 
ENDBRANCH  17  18
ENDBRANCH  15  17
ENDBRANCH   8  11
ENDBRANCH   5   7
BRANCH   1  23
ATOM     22  C   UNL     1       0.314  13.332  19.843  0.00  0.00    +0.000 C 
ATOM     23  C   UNL     1      -0.371  12.019  19.431  0.00  0.00    +0.000 C 
BRANCH  23  24
ATOM     24  S   UNL     1      -2.199  12.116  19.619  0.00  0.00    +0.000 S 
BRANCH  24  25
ATOM     25  C   UNL     1      -2.828  11.599  18.097  0.00  0.00    +0.000 A 
ATOM     26  N   UNL     1      -2.166  11.234  17.025  0.00  0.00    +0.000 NA
ATOM     27  N   UNL     1      -3.077  11.040  16.008  0.00  0.00    +0.000 NA
ATOM     28  C   UNL     1      -4.274  11.261  16.503  0.00  0.00    +0.000 A 
ATOM     29  N   UNL     1      -4.168  11.570  17.826  0.00  0.00    +0.000 N 
ATOM     30  C   UNL     1      -5.265  11.789  18.729  0.00  0.00    +0.000 C 
ENDBRANCH  24  25
ENDBRANCH  23  24
ENDBRANCH   1  23
TORSDOF 7
ENDMDL
MODEL 2
REMARK VINA RESULT:      -8.2      3.137      4.193
REMARK  Name = 
REMARK  9 active torsions:
REMARK  status: ('A' for Active; 'I' for Inactive)
REMARK    1  A    between atoms: C_1  and  C_2
REMARK    2  A    between atoms: C_2  and  S_3
REMARK    3  A    between atoms: C_2  and  C_10
REMARK    4  A    between atoms: S_3  and  C_4
REMARK    5  A    between atoms: N_8  and  C_9
REMARK    6  A    between atoms: C_14  and  N_15
REMARK    7  A    between atoms: C_16  and  C_18
REMARK    8  A    between atoms: C_22  and  O_23
REMARK    9  A    between atoms: O_23  and  C_24
REMARK                            x       y       z     vdW  Elec       q    Type
REMARK                         _______ _______ _______ _____ _____    ______ ____
ROOT
ATOM      1  C   UNL     1      -0.519  11.329  18.867  0.00  0.00    +0.000 A 
ATOM      2  C   UNL     1       0.319  12.454  18.951  0.00  0.00    +0.000 A 
ATOM      3  C   UNL     1       1.663  12.379  18.601  0.00  0.00    +0.000 A 
ATOM      4  C   UNL     1       2.209  11.167  18.198  0.00  0.00    +0.000 A 
ATOM      5  C   UNL     1       1.427  10.012  18.154  0.00  0.00    +0.000 A 
ATOM      6  C   UNL     1       0.060  10.105  18.461  0.00  0.00    +0.000 A 
ENDROOT
BRANCH   5   7
ATOM      7  N   UNL     1       1.963   8.756  17.793  0.00  0.00    +0.000 N 
ATOM      8  C   UNL     1       2.314   7.754  18.687  0.00  0.00    +0.000 C 
ATOM      9  O   UNL     1       2.105   7.741  19.892  0.00  0.00    +0.000 OA
ATOM     10  H   UNL     1       1.972   8.536  16.803  0.00  0.00    +0.000 HD
BRANCH   8  11
ATOM     11  C   UNL     1       2.961   6.552  18.101  0.00  0.00    +0.000 A 
ATOM     12  C   UNL     1       4.165   6.725  17.407  0.00  0.00    +0.000 A 
ATOM     13  C   UNL     1       4.778   5.638  16.792  0.00  0.00    +0.000 A 
ATOM     14  C   UNL     1       4.193   4.376  16.890  0.00  0.00    +0.000 A 
ATOM     15  C   UNL     1       3.001   4.189  17.599  0.00  0.00    +0.000 A 
ATOM     16  C   UNL     1       2.359   5.288  18.165  0.00  0.00    +0.000 A 
BRANCH  15  17
ATOM     17  O   UNL     1       2.534   2.910  17.602  0.00  0.00    +0.000 OA
BRANCH  17  18
ATOM     18  C   UNL     1       2.905   2.034  18.659  0.00  0.00    +0.000 C 
ATOM     19  F   UNL     1       3.650   0.976  18.267  0.00  0.00    +0.000 F 
ATOM     20  F   UNL     1       3.593   2.727  19.589  0.00  0.00    +0.000 F 
ATOM     21  F   UNL     1       1.780   1.551  19.233  0.00  0.00    +0.000 F 
ENDBRANCH  17  18
ENDBRANCH  15  17
ENDBRANCH   8  11
ENDBRANCH   5   7
BRANCH   1  23
ATOM     22  C   UNL     1      -2.912  11.194  17.973  0.00  0.00    +0.000 C 
ATOM     23  C   UNL     1      -2.017  11.406  19.204  0.00  0.00    +0.000 C 
BRANCH  23  24
ATOM     24  S   UNL     1      -2.357  13.018  20.025  0.00  0.00    +0.000 S 
BRANCH  24  25
ATOM     25  C   UNL     1      -3.081  12.602  21.535  0.00  0.00    +0.000 A 
ATOM     26  N   UNL     1      -4.354  12.575  21.847  0.00  0.00    +0.000 NA
ATOM     27  N   UNL     1      -4.456  12.322  23.199  0.00  0.00    +0.000 NA
ATOM     28  C   UNL     1      -3.237  12.170  23.665  0.00  0.00    +0.000 A 
ATOM     29  N   UNL     1      -2.342  12.291  22.644  0.00  0.00    +0.000 N 
ATOM     30  C   UNL     1      -0.921  12.100  22.744  0.00  0.00    +0.000 C 
ENDBRANCH  24  25
ENDBRANCH  23  24
ENDBRANCH   1  23
TORSDOF 7
ENDMDL
MODEL 3
REMARK VINA RESULT:      -8.1      3.149      4.253
REMARK  Name = 
REMARK  9 active torsions:
REMARK  status: ('A' for Active; 'I' for Inactive)
REMARK    1  A    between atoms: C_1  and  C_2
REMARK    2  A    between atoms: C_2  and  S_3
REMARK    3  A    between atoms: C_2  and  C_10
REMARK    4  A    between atoms: S_3  and  C_4
REMARK    5  A    between atoms: N_8  and  C_9
REMARK    6  A    between atoms: C_14  and  N_15
REMARK    7  A    between atoms: C_16  and  C_18
REMARK    8  A    between atoms: C_22  and  O_23
REMARK    9  A    between atoms: O_23  and  C_24
REMARK                            x       y       z     vdW  Elec       q    Type
REMARK                         _______ _______ _______ _____ _____    ______ ____
ROOT
ATOM      1  C   UNL     1      -1.844  11.508  19.224  0.00  0.00    +0.000 A 
ATOM      2  C   UNL     1      -1.300  12.714  19.699  0.00  0.00    +0.000 A 
ATOM      3  C   UNL     1       0.035  12.801  20.080  0.00  0.00    +0.000 A 
ATOM      4  C   UNL     1       0.846  11.674  20.032  0.00  0.00    +0.000 A 
ATOM      5  C   UNL     1       0.334  10.443  19.621  0.00  0.00    +0.000 A 
ATOM      6  C   UNL     1      -1.002  10.373  19.191  0.00  0.00    +0.000 A 
ENDROOT
BRANCH   5   7
ATOM      7  N   UNL     1       1.120   9.269  19.605  0.00  0.00    +0.000 N 
ATOM      8  C   UNL     1       1.810   8.790  18.500  0.00  0.00    +0.000 C 
ATOM      9  O   UNL     1       1.954   9.353  17.424  0.00  0.00    +0.000 OA
ATOM     10  H   UNL     1       1.284   8.823  20.501  0.00  0.00    +0.000 HD
BRANCH   8  11
ATOM     11  C   UNL     1       2.487   7.479  18.672  0.00  0.00    +0.000 A 
ATOM     12  C   UNL     1       3.393   7.071  17.685  0.00  0.00    +0.000 A 
ATOM     13  C   UNL     1       4.008   5.826  17.774  0.00  0.00    +0.000 A 
ATOM     14  C   UNL     1       3.729   5.000  18.862  0.00  0.00    +0.000 A 
ATOM     15  C   UNL     1       2.842   5.407  19.865  0.00  0.00    +0.000 A 
ATOM     16  C   UNL     1       2.183   6.629  19.744  0.00  0.00    +0.000 A 
BRANCH  15  17
ATOM     17  O   UNL     1       2.649   4.498  20.860  0.00  0.00    +0.000 OA
BRANCH  17  18
ATOM     18  C   UNL     1       1.621   3.525  20.729  0.00  0.00    +0.000 C 
ATOM     19  F   UNL     1       1.907   2.529  19.860  0.00  0.00    +0.000 F 
ATOM     20  F   UNL     1       1.365   2.984  21.937  0.00  0.00    +0.000 F 
ATOM     21  F   UNL     1       0.500   4.141  20.291  0.00  0.00    +0.000 F 
ENDBRANCH  17  18
ENDBRANCH  15  17
ENDBRANCH   8  11
ENDBRANCH   5   7
BRANCH   1  23
ATOM     22  C   UNL     1      -3.429  11.319  17.226  0.00  0.00    +0.000 C 
ATOM     23  C   UNL     1      -3.304  11.406  18.755  0.00  0.00    +0.000 C 
BRANCH  23  24
ATOM     24  S   UNL     1      -4.246  12.833  19.437  0.00  0.00    +0.000 S 
BRANCH  24  25
ATOM     25  C   UNL     1      -5.660  12.135  20.137  0.00  0.00    +0.000 A 
ATOM     26  N   UNL     1      -5.914  11.909  21.404  0.00  0.00    +0.000 NA
ATOM     27  N   UNL     1      -7.101  11.212  21.482  0.00  0.00    +0.000 NA
ATOM     28  C   UNL     1      -7.553  11.062  20.257  0.00  0.00    +0.000 A 
ATOM     29  N   UNL     1      -6.701  11.669  19.382  0.00  0.00    +0.000 N 
ATOM     30  C   UNL     1      -6.902  11.795  17.964  0.00  0.00    +0.000 C 
ENDBRANCH  24  25
ENDBRANCH  23  24
ENDBRANCH   1  23
TORSDOF 7
ENDMDL
MODEL 4
REMARK VINA RESULT:      -8.1      1.227      1.502
REMARK  Name = 
REMARK  9 active torsions:
REMARK  status: ('A' for Active; 'I' for Inactive)
REMARK    1  A    between atoms: C_1  and  C_2
REMARK    2  A    between atoms: C_2  and  S_3
REMARK    3  A    between atoms: C_2  and  C_10
REMARK    4  A    between atoms: S_3  and  C_4
REMARK    5  A    between atoms: N_8  and  C_9
REMARK    6  A    between atoms: C_14  and  N_15
REMARK    7  A    between atoms: C_16  and  C_18
REMARK    8  A    between atoms: C_22  and  O_23
REMARK    9  A    between atoms: O_23  and  C_24
REMARK                            x       y       z     vdW  Elec       q    Type
REMARK                         _______ _______ _______ _____ _____    ______ ____
ROOT
ATOM      1  C   UNL     1       0.299  10.397  19.891  0.00  0.00    +0.000 A 
ATOM      2  C   UNL     1      -0.074  10.610  21.229  0.00  0.00    +0.000 A 
ATOM      3  C   UNL     1       0.363   9.763  22.242  0.00  0.00    +0.000 A 
ATOM      4  C   UNL     1       1.151   8.661  21.935  0.00  0.00    +0.000 A 
ATOM      5  C   UNL     1       1.500   8.380  20.614  0.00  0.00    +0.000 A 
ATOM      6  C   UNL     1       1.096   9.265  19.601  0.00  0.00    +0.000 A 
ENDROOT
BRANCH   5   7
ATOM      7  N   UNL     1       2.261   7.242  20.264  0.00  0.00    +0.000 N 
ATOM      8  C   UNL     1       1.814   5.931  20.346  0.00  0.00    +0.000 C 
ATOM      9  O   UNL     1       0.679   5.558  20.605  0.00  0.00    +0.000 OA
ATOM     10  H   UNL     1       3.149   7.416  19.806  0.00  0.00    +0.000 HD
BRANCH   8  11
ATOM     11  C   UNL     1       2.815   4.879  20.031  0.00  0.00    +0.000 A 
ATOM     12  C   UNL     1       2.488   3.549  20.328  0.00  0.00    +0.000 A 
ATOM     13  C   UNL     1       3.416   2.537  20.103  0.00  0.00    +0.000 A 
ATOM     14  C   UNL     1       4.662   2.856  19.564  0.00  0.00    +0.000 A 
ATOM     15  C   UNL     1       4.989   4.178  19.244  0.00  0.00    +0.000 A 
ATOM     16  C   UNL     1       4.081   5.198  19.523  0.00  0.00    +0.000 A 
BRANCH  15  17
ATOM     17  O   UNL     1       6.242   4.350  18.739  0.00  0.00    +0.000 OA
BRANCH  17  18
ATOM     18  C   UNL     1       6.407   4.585  17.347  0.00  0.00    +0.000 C 
ATOM     19  F   UNL     1       7.645   4.307  16.879  0.00  0.00    +0.000 F 
ATOM     20  F   UNL     1       5.511   3.845  16.662  0.00  0.00    +0.000 F 
ATOM     21  F   UNL     1       6.160   5.891  17.099  0.00  0.00    +0.000 F 
ENDBRANCH  17  18
ENDBRANCH  15  17
ENDBRANCH   8  11
ENDBRANCH   5   7
BRANCH   1  23
ATOM     22  C   UNL     1       0.630  12.682  18.789  0.00  0.00    +0.000 C 
ATOM     23  C   UNL     1      -0.135  11.350  18.766  0.00  0.00    +0.000 C 
BRANCH  23  24
ATOM     24  S   UNL     1      -1.955  11.606  18.877  0.00  0.00    +0.000 S 
BRANCH  24  25
ATOM     25  C   UNL     1      -2.583  10.960  17.406  0.00  0.00    +0.000 A 
ATOM     26  N   UNL     1      -1.959  10.249  16.497  0.00  0.00    +0.000 NA
ATOM     27  N   UNL     1      -2.817  10.074  15.431  0.00  0.00    +0.000 NA
ATOM     28  C   UNL     1      -3.953  10.658  15.738  0.00  0.00    +0.000 A 
ATOM     29  N   UNL     1      -3.867  11.188  16.991  0.00  0.00    +0.000 N 
ATOM     30  C   UNL     1      -4.936  11.827  17.709  0.00  0.00    +0.000 C 
ENDBRANCH  24  25
ENDBRANCH  23  24
ENDBRANCH   1  23
TORSDOF 7
ENDMDL
MODEL 5
REMARK VINA RESULT:      -8.1      2.175      2.576
REMARK  Name = 
REMARK  9 active torsions:
REMARK  status: ('A' for Active; 'I' for Inactive)
REMARK    1  A    between atoms: C_1  and  C_2
REMARK    2  A    between atoms: C_2  and  S_3
REMARK    3  A    between atoms: C_2  and  C_10
REMARK    4  A    between atoms: S_3  and  C_4
REMARK    5  A    between atoms: N_8  and  C_9
REMARK    6  A    between atoms: C_14  and  N_15
REMARK    7  A    between atoms: C_16  and  C_18
REMARK    8  A    between atoms: C_22  and  O_23
REMARK    9  A    between atoms: O_23  and  C_24
REMARK                            x       y       z     vdW  Elec       q    Type
REMARK                         _______ _______ _______ _____ _____    ______ ____
ROOT
ATOM      1  C   UNL     1      -0.225  11.394  18.591  0.00  0.00    +0.000 A 
ATOM      2  C   UNL     1       0.716  12.430  18.712  0.00  0.00    +0.000 A 
ATOM      3  C   UNL     1       2.064  12.215  18.443  0.00  0.00    +0.000 A 
ATOM      4  C   UNL     1       2.507  10.948  18.086  0.00  0.00    +0.000 A 
ATOM      5  C   UNL     1       1.618   9.877  18.009  0.00  0.00    +0.000 A 
ATOM      6  C   UNL     1       0.251  10.111  18.234  0.00  0.00    +0.000 A 
ENDROOT
BRANCH   5   7
ATOM      7  N   UNL     1       2.044   8.567  17.694  0.00  0.00    +0.000 N 
ATOM      8  C   UNL     1       2.356   7.587  18.625  0.00  0.00    +0.000 C 
ATOM      9  O   UNL     1       2.195   7.649  19.836  0.00  0.00    +0.000 OA
ATOM     10  H   UNL     1       1.996   8.299  16.717  0.00  0.00    +0.000 HD
BRANCH   8  11
ATOM     11  C   UNL     1       2.888   6.312  18.079  0.00  0.00    +0.000 A 
ATOM     12  C   UNL     1       2.032   5.204  18.041  0.00  0.00    +0.000 A 
ATOM     13  C   UNL     1       2.503   3.975  17.591  0.00  0.00    +0.000 A 
ATOM     14  C   UNL     1       3.825   3.862  17.162  0.00  0.00    +0.000 A 
ATOM     15  C   UNL     1       4.682   4.968  17.177  0.00  0.00    +0.000 A 
ATOM     16  C   UNL     1       4.226   6.184  17.682  0.00  0.00    +0.000 A 
BRANCH  15  17
ATOM     17  O   UNL     1       5.949   4.715  16.746  0.00  0.00    +0.000 OA
BRANCH  17  18
ATOM     18  C   UNL     1       6.206   4.622  15.351  0.00  0.00    +0.000 C 
ATOM     19  F   UNL     1       7.406   5.118  14.973  0.00  0.00    +0.000 F 
ATOM     20  F   UNL     1       6.134   3.330  14.971  0.00  0.00    +0.000 F 
ATOM     21  F   UNL     1       5.251   5.314  14.691  0.00  0.00    +0.000 F 
ENDBRANCH  17  18
ENDBRANCH  15  17
ENDBRANCH   8  11
ENDBRANCH   5   7
BRANCH   1  23
ATOM     22  C   UNL     1      -2.019  12.121  20.263  0.00  0.00    +0.000 C 
ATOM     23  C   UNL     1      -1.724  11.625  18.838  0.00  0.00    +0.000 C 
BRANCH  23  24
ATOM     24  S   UNL     1      -2.634  10.072  18.454  0.00  0.00    +0.000 S 
BRANCH  24  25
ATOM     25  C   UNL     1      -3.013  10.186  16.775  0.00  0.00    +0.000 A 
ATOM     26  N   UNL     1      -2.395   9.627  15.761  0.00  0.00    +0.000 NA
ATOM     27  N   UNL     1      -2.962  10.109  14.600  0.00  0.00    +0.000 NA
ATOM     28  C   UNL     1      -3.933  10.924  14.943  0.00  0.00    +0.000 A 
ATOM     29  N   UNL     1      -4.032  10.966  16.302  0.00  0.00    +0.000 N 
ATOM     30  C   UNL     1      -5.032  11.677  17.051  0.00  0.00    +0.000 C 
ENDBRANCH  24  25
ENDBRANCH  23  24
ENDBRANCH   1  23
TORSDOF 7
ENDMDL
MODEL 6
REMARK VINA RESULT:      -8.0      3.556      4.742
REMARK  Name = 
REMARK  9 active torsions:
REMARK  status: ('A' for Active; 'I' for Inactive)
REMARK    1  A    between atoms: C_1  and  C_2
REMARK    2  A    between atoms: C_2  and  S_3
REMARK    3  A    between atoms: C_2  and  C_10
REMARK    4  A    between atoms: S_3  and  C_4
REMARK    5  A    between atoms: N_8  and  C_9
REMARK    6  A    between atoms: C_14  and  N_15
REMARK    7  A    between atoms: C_16  and  C_18
REMARK    8  A    between atoms: C_22  and  O_23
REMARK    9  A    between atoms: O_23  and  C_24
REMARK                            x       y       z     vdW  Elec       q    Type
REMARK                         _______ _______ _______ _____ _____    ______ ____
ROOT
ATOM      1  C   UNL     1      -1.253  11.750  19.258  0.00  0.00    +0.000 A 
ATOM      2  C   UNL     1      -0.543  12.920  18.937  0.00  0.00    +0.000 A 
ATOM      3  C   UNL     1       0.821  12.884  18.669  0.00  0.00    +0.000 A 
ATOM      4  C   UNL     1       1.515  11.684  18.755  0.00  0.00    +0.000 A 
ATOM      5  C   UNL     1       0.862  10.508  19.124  0.00  0.00    +0.000 A 
ATOM      6  C   UNL     1      -0.525  10.541  19.346  0.00  0.00    +0.000 A 
ENDROOT
BRANCH   5   7
ATOM      7  N   UNL     1       1.548   9.281  19.266  0.00  0.00    +0.000 N 
ATOM      8  C   UNL     1       2.129   8.570  18.225  0.00  0.00    +0.000 C 
ATOM      9  O   UNL     1       2.252   8.938  17.065  0.00  0.00    +0.000 OA
ATOM     10  H   UNL     1       1.729   8.971  20.214  0.00  0.00    +0.000 HD
BRANCH   8  11
ATOM     11  C   UNL     1       2.706   7.248  18.579  0.00  0.00    +0.000 A 
ATOM     12  C   UNL     1       3.693   6.715  17.740  0.00  0.00    +0.000 A 
ATOM     13  C   UNL     1       4.222   5.455  18.000  0.00  0.00    +0.000 A 
ATOM     14  C   UNL     1       3.775   4.738  19.110  0.00  0.00    +0.000 A 
ATOM     15  C   UNL     1       2.804   5.271  19.965  0.00  0.00    +0.000 A 
ATOM     16  C   UNL     1       2.234   6.508  19.671  0.00  0.00    +0.000 A 
BRANCH  15  17
ATOM     17  O   UNL     1       2.449   4.461  21.000  0.00  0.00    +0.000 OA
BRANCH  17  18
ATOM     18  C   UNL     1       1.434   3.484  20.805  0.00  0.00    +0.000 C 
ATOM     19  F   UNL     1       1.737   2.546  19.880  0.00  0.00    +0.000 F 
ATOM     20  F   UNL     1       1.180   2.868  21.978  0.00  0.00    +0.000 F 
ATOM     21  F   UNL     1       0.307   4.110  20.399  0.00  0.00    +0.000 F 
ENDBRANCH  17  18
ENDBRANCH  15  17
ENDBRANCH   8  11
ENDBRANCH   5   7
BRANCH   1  23
ATOM     22  C   UNL     1      -3.585  11.578  18.221  0.00  0.00    +0.000 C 
ATOM     23  C   UNL     1      -2.769  11.764  19.510  0.00  0.00    +0.000 C 
BRANCH  23  24
ATOM     24  S   UNL     1      -3.211  13.326  20.378  0.00  0.00    +0.000 S 
BRANCH  24  25
ATOM     25  C   UNL     1      -3.765  12.825  21.934  0.00  0.00    +0.000 A 
ATOM     26  N   UNL     1      -4.999  12.639  22.336  0.00  0.00    +0.000 NA
ATOM     27  N   UNL     1      -4.970  12.380  23.690  0.00  0.00    +0.000 NA
ATOM     28  C   UNL     1      -3.712  12.382  24.066  0.00  0.00    +0.000 A 
ATOM     29  N   UNL     1      -2.915  12.612  22.984  0.00  0.00    +0.000 N 
ATOM     30  C   UNL     1      -1.478  12.601  22.980  0.00  0.00    +0.000 C 
ENDBRANCH  24  25
ENDBRANCH  23  24
ENDBRANCH   1  23
TORSDOF 7
ENDMDL
MODEL 7
REMARK VINA RESULT:      -8.0      2.285      3.273
REMARK  Name = 
REMARK  9 active torsions:
REMARK  status: ('A' for Active; 'I' for Inactive)
REMARK    1  A    between atoms: C_1  and  C_2
REMARK    2  A    between atoms: C_2  and  S_3
REMARK    3  A    between atoms: C_2  and  C_10
REMARK    4  A    between atoms: S_3  and  C_4
REMARK    5  A    between atoms: N_8  and  C_9
REMARK    6  A    between atoms: C_14  and  N_15
REMARK    7  A    between atoms: C_16  and  C_18
REMARK    8  A    between atoms: C_22  and  O_23
REMARK    9  A    between atoms: O_23  and  C_24
REMARK                            x       y       z     vdW  Elec       q    Type
REMARK                         _______ _______ _______ _____ _____    ______ ____
ROOT
ATOM      1  C   UNL     1      -0.177  10.593  20.378  0.00  0.00    +0.000 A 
ATOM      2  C   UNL     1      -0.242  10.523  21.780  0.00  0.00    +0.000 A 
ATOM      3  C   UNL     1       0.487   9.573  22.488  0.00  0.00    +0.000 A 
ATOM      4  C   UNL     1       1.266   8.646  21.807  0.00  0.00    +0.000 A 
ATOM      5  C   UNL     1       1.316   8.643  20.413  0.00  0.00    +0.000 A 
ATOM      6  C   UNL     1       0.616   9.635  19.706  0.00  0.00    +0.000 A 
ENDROOT
BRANCH   5   7
ATOM      7  N   UNL     1       2.061   7.685  19.690  0.00  0.00    +0.000 N 
ATOM      8  C   UNL     1       2.074   6.323  19.953  0.00  0.00    +0.000 C 
ATOM      9  O   UNL     1       1.365   5.724  20.749  0.00  0.00    +0.000 OA
ATOM     10  H   UNL     1       2.517   8.012  18.845  0.00  0.00    +0.000 HD
BRANCH   8  11
ATOM     11  C   UNL     1       3.012   5.508  19.139  0.00  0.00    +0.000 A 
ATOM     12  C   UNL     1       2.507   4.863  18.002  0.00  0.00    +0.000 A 
ATOM     13  C   UNL     1       3.335   4.044  17.242  0.00  0.00    +0.000 A 
ATOM     14  C   UNL     1       4.671   3.887  17.609  0.00  0.00    +0.000 A 
ATOM     15  C   UNL     1       5.189   4.544  18.731  0.00  0.00    +0.000 A 
ATOM     16  C   UNL     1       4.346   5.318  19.524  0.00  0.00    +0.000 A 
BRANCH  15  17
ATOM     17  O   UNL     1       6.503   4.292  18.983  0.00  0.00    +0.000 OA
BRANCH  17  18
ATOM     18  C   UNL     1       7.502   5.013  18.274  0.00  0.00    +0.000 C 
ATOM     19  F   UNL     1       8.209   4.266  17.397  0.00  0.00    +0.000 F 
ATOM     20  F   UNL     1       6.923   6.032  17.605  0.00  0.00    +0.000 F 
ATOM     21  F   UNL     1       8.374   5.531  19.166  0.00  0.00    +0.000 F 
ENDBRANCH  17  18
ENDBRANCH  15  17
ENDBRANCH   8  11
ENDBRANCH   5   7
BRANCH   1  23
ATOM     22  C   UNL     1      -1.844  11.066  18.497  0.00  0.00    +0.000 C 
ATOM     23  C   UNL     1      -0.939  11.666  19.584  0.00  0.00    +0.000 C 
BRANCH  23  24
ATOM     24  S   UNL     1       0.278  12.855  18.879  0.00  0.00    +0.000 S 
BRANCH  24  25
ATOM     25  C   UNL     1       0.893  13.718  20.241  0.00  0.00    +0.000 A 
ATOM     26  N   UNL     1       1.985  13.482  20.928  0.00  0.00    +0.000 NA
ATOM     27  N   UNL     1       1.999  14.337  22.010  0.00  0.00    +0.000 NA
ATOM     28  C   UNL     1       0.928  15.093  21.930  0.00  0.00    +0.000 A 
ATOM     29  N   UNL     1       0.227  14.770  20.807  0.00  0.00    +0.000 N 
ATOM     30  C   UNL     1      -0.955  15.437  20.332  0.00  0.00    +0.000 C 
ENDBRANCH  24  25
ENDBRANCH  23  24
ENDBRANCH   1  23
TORSDOF 7
ENDMDL
MODEL 8
REMARK VINA RESULT:      -8.0      2.354      3.144
REMARK  Name = 
REMARK  9 active torsions:
REMARK  status: ('A' for Active; 'I' for Inactive)
REMARK    1  A    between atoms: C_1  and  C_2
REMARK    2  A    between atoms: C_2  and  S_3
REMARK    3  A    between atoms: C_2  and  C_10
REMARK    4  A    between atoms: S_3  and  C_4
REMARK    5  A    between atoms: N_8  and  C_9
REMARK    6  A    between atoms: C_14  and  N_15
REMARK    7  A    between atoms: C_16  and  C_18
REMARK    8  A    between atoms: C_22  and  O_23
REMARK    9  A    between atoms: O_23  and  C_24
REMARK                            x       y       z     vdW  Elec       q    Type
REMARK                         _______ _______ _______ _____ _____    ______ ____
ROOT
ATOM      1  C   UNL     1      -0.261  10.458  20.721  0.00  0.00    +0.000 A 
ATOM      2  C   UNL     1      -0.260  10.361  22.123  0.00  0.00    +0.000 A 
ATOM      3  C   UNL     1       0.534   9.428  22.780  0.00  0.00    +0.000 A 
ATOM      4  C   UNL     1       1.315   8.542  22.049  0.00  0.00    +0.000 A 
ATOM      5  C   UNL     1       1.302   8.564  20.654  0.00  0.00    +0.000 A 
ATOM      6  C   UNL     1       0.536   9.541  19.997  0.00  0.00    +0.000 A 
ENDROOT
BRANCH   5   7
ATOM      7  N   UNL     1       2.049   7.646  19.882  0.00  0.00    +0.000 N 
ATOM      8  C   UNL     1       2.013   6.267  20.030  0.00  0.00    +0.000 C 
ATOM      9  O   UNL     1       1.256   5.627  20.746  0.00  0.00    +0.000 OA
ATOM     10  H   UNL     1       2.548   8.028  19.085  0.00  0.00    +0.000 HD
BRANCH   8  11
ATOM     11  C   UNL     1       2.960   5.494  19.186  0.00  0.00    +0.000 A 
ATOM     12  C   UNL     1       2.458   4.867  18.039  0.00  0.00    +0.000 A 
ATOM     13  C   UNL     1       3.295   4.085  17.249  0.00  0.00    +0.000 A 
ATOM     14  C   UNL     1       4.638   3.949  17.600  0.00  0.00    +0.000 A 
ATOM     15  C   UNL     1       5.153   4.588  18.733  0.00  0.00    +0.000 A 
ATOM     16  C   UNL     1       4.301   5.323  19.554  0.00  0.00    +0.000 A 
BRANCH  15  17
ATOM     17  O   UNL     1       6.475   4.358  18.966  0.00  0.00    +0.000 OA
BRANCH  17  18
ATOM     18  C   UNL     1       7.450   5.132  18.280  0.00  0.00    +0.000 C 
ATOM     19  F   UNL     1       6.944   6.177  17.587  0.00  0.00    +0.000 F 
ATOM     20  F   UNL     1       8.352   5.599  19.168  0.00  0.00    +0.000 F 
ATOM     21  F   UNL     1       8.093   4.332  17.401  0.00  0.00    +0.000 F 
ENDBRANCH  17  18
ENDBRANCH  15  17
ENDBRANCH   8  11
ENDBRANCH   5   7
BRANCH   1  23
ATOM     22  C   UNL     1      -0.713  11.637  18.497  0.00  0.00    +0.000 C 
ATOM     23  C   UNL     1      -1.096  11.514  19.980  0.00  0.00    +0.000 C 
BRANCH  23  24
ATOM     24  S   UNL     1      -0.932  13.122  20.862  0.00  0.00    +0.000 S 
BRANCH  24  25
ATOM     25  C   UNL     1       0.691  13.627  20.563  0.00  0.00    +0.000 A 
ATOM     26  N   UNL     1       1.796  13.180  21.109  0.00  0.00    +0.000 NA
ATOM     27  N   UNL     1       2.837  13.971  20.671  0.00  0.00    +0.000 NA
ATOM     28  C   UNL     1       2.337  14.859  19.843  0.00  0.00    +0.000 A 
ATOM     29  N   UNL     1       0.996  14.651  19.708  0.00  0.00    +0.000 N 
ATOM     30  C   UNL     1       0.119  15.364  18.820  0.00  0.00    +0.000 C 
ENDBRANCH  24  25
ENDBRANCH  23  24
ENDBRANCH   1  23
TORSDOF 7
ENDMDL
MODEL 9
REMARK VINA RESULT:      -8.0      5.315      9.450
REMARK  Name = 
REMARK  9 active torsions:
REMARK  status: ('A' for Active; 'I' for Inactive)
REMARK    1  A    between atoms: C_1  and  C_2
REMARK    2  A    between atoms: C_2  and  S_3
REMARK    3  A    between atoms: C_2  and  C_10
REMARK    4  A    between atoms: S_3  and  C_4
REMARK    5  A    between atoms: N_8  and  C_9
REMARK    6  A    between atoms: C_14  and  N_15
REMARK    7  A    between atoms: C_16  and  C_18
REMARK    8  A    between atoms: C_22  and  O_23
REMARK    9  A    between atoms: O_23  and  C_24
REMARK                            x       y       z     vdW  Elec       q    Type
REMARK                         _______ _______ _______ _____ _____    ______ ____
ROOT
ATOM      1  C   UNL     1       4.834   4.378  17.257  0.00  0.00    +0.000 A 
ATOM      2  C   UNL     1       4.113   3.182  17.104  0.00  0.00    +0.000 A 
ATOM      3  C   UNL     1       2.753   3.119  17.393  0.00  0.00    +0.000 A 
ATOM      4  C   UNL     1       2.094   4.240  17.879  0.00  0.00    +0.000 A 
ATOM      5  C   UNL     1       2.782   5.433  18.099  0.00  0.00    +0.000 A 
ATOM      6  C   UNL     1       4.144   5.505  17.760  0.00  0.00    +0.000 A 
ENDROOT
BRANCH   5   7
ATOM      7  N   UNL     1       2.150   6.577  18.636  0.00  0.00    +0.000 N 
ATOM      8  C   UNL     1       2.243   7.858  18.109  0.00  0.00    +0.000 C 
ATOM      9  O   UNL     1       2.766   8.179  17.051  0.00  0.00    +0.000 OA
ATOM     10  H   UNL     1       1.486   6.417  19.386  0.00  0.00    +0.000 HD
BRANCH   8  11
ATOM     11  C   UNL     1       1.587   8.936  18.893  0.00  0.00    +0.000 A 
ATOM     12  C   UNL     1       1.003   9.998  18.191  0.00  0.00    +0.000 A 
ATOM     13  C   UNL     1       0.428  11.059  18.884  0.00  0.00    +0.000 A 
ATOM     14  C   UNL     1       0.422  11.044  20.278  0.00  0.00    +0.000 A 
ATOM     15  C   UNL     1       0.985   9.978  20.988  0.00  0.00    +0.000 A 
ATOM     16  C   UNL     1       1.611   8.944  20.294  0.00  0.00    +0.000 A 
BRANCH  15  17
ATOM     17  O   UNL     1       0.924  10.098  22.343  0.00  0.00    +0.000 OA
BRANCH  17  18
ATOM     18  C   UNL     1      -0.206   9.588  23.039  0.00  0.00    +0.000 C 
ATOM     19  F   UNL     1      -0.845   8.582  22.400  0.00  0.00    +0.000 F 
ATOM     20  F   UNL     1       0.182   9.150  24.254  0.00  0.00    +0.000 F 
ATOM     21  F   UNL     1      -1.094  10.592  23.212  0.00  0.00    +0.000 F 
ENDBRANCH  17  18
ENDBRANCH  15  17
ENDBRANCH   8  11
ENDBRANCH   5   7
BRANCH   1  23
ATOM     22  C   UNL     1       7.202   4.840  18.107  0.00  0.00    +0.000 C 
ATOM     23  C   UNL     1       6.325   4.478  16.898  0.00  0.00    +0.000 C 
BRANCH  23  24
ATOM     24  S   UNL     1       6.524   5.688  15.526  0.00  0.00    +0.000 S 
BRANCH  24  25
ATOM     25  C   UNL     1       6.389   4.748  14.084  0.00  0.00    +0.000 A 
ATOM     26  N   UNL     1       5.493   3.837  13.787  0.00  0.00    +0.000 NA
ATOM     27  N   UNL     1       5.861   3.253  12.594  0.00  0.00    +0.000 NA
ATOM     28  C   UNL     1       6.956   3.850  12.182  0.00  0.00    +0.000 A 
ATOM     29  N   UNL     1       7.298   4.830  13.066  0.00  0.00    +0.000 N 
ATOM     30  C   UNL     1       8.386   5.758  12.913  0.00  0.00    +0.000 C 
ENDBRANCH  24  25
ENDBRANCH  23  24
ENDBRANCH   1  23
TORSDOF 7
ENDMDL
