MODEL 1
REMARK VINA RESULT:      -9.7      0.000      0.000
REMARK  Name = 
REMARK  7 active torsions:
REMARK  status: ('A' for Active; 'I' for Inactive)
REMARK    1  A    between atoms: C_1  and  C_2
REMARK    2  A    between atoms: C_6  and  C_7
REMARK    3  A    between atoms: C_7  and  C_8
REMARK    4  A    between atoms: C_8  and  C_9
REMARK    5  A    between atoms: C_8  and  C_10
REMARK    6  A    between atoms: C_14  and  N_15
REMARK    7  A    between atoms: C_22  and  C_23
REMARK                            x       y       z     vdW  Elec       q    Type
REMARK                         _______ _______ _______ _____ _____    ______ ____
ROOT
ATOM      1  C   UNL     1       4.596   5.186  17.719  0.00  0.00    +0.000 A 
ATOM      2  C   UNL     1       3.856   4.015  17.953  0.00  0.00    +0.000 A 
ATOM      3  C   UNL     1       2.607   4.074  18.570  0.00  0.00    +0.000 A 
ATOM      4  C   UNL     1       2.077   5.307  18.941  0.00  0.00    +0.000 A 
ATOM      5  C   UNL     1       2.817   6.479  18.764  0.00  0.00    +0.000 A 
ATOM      6  C   UNL     1       4.084   6.416  18.186  0.00  0.00    +0.000 A 
ENDROOT
BRANCH   5   7
ATOM      7  N   UNL     1       2.212   7.711  19.068  0.00  0.00    +0.000 N 
ATOM      8  C   UNL     1       1.547   7.887  20.343  0.00  0.00    +0.000 C 
ATOM      9  C   UNL     1       0.989   9.269  20.245  0.00  0.00    +0.000 A 
ATOM     10  C   UNL     1       1.298   9.810  18.997  0.00  0.00    +0.000 A 
ATOM     11  C   UNL     1       0.967  11.110  18.658  0.00  0.00    +0.000 A 
ATOM     12  C   UNL     1       0.277  11.869  19.608  0.00  0.00    +0.000 A 
ATOM     13  C   UNL     1      -0.074  11.316  20.855  0.00  0.00    +0.000 A 
ATOM     14  C   UNL     1       0.276   9.996  21.193  0.00  0.00    +0.000 A 
ATOM     15  C   UNL     1       2.021   8.788  18.209  0.00  0.00    +0.000 C 
ATOM     16  O   UNL     1       2.386   8.950  17.062  0.00  0.00    +0.000 OA
BRANCH  14  17
ATOM     17  C   UNL     1      -0.120   9.414  22.525  0.00  0.00    +0.000 C 
ATOM     18  F   UNL     1       0.936   9.137  23.340  0.00  0.00    +0.000 F 
ATOM     19  F   UNL     1      -0.928  10.244  23.240  0.00  0.00    +0.000 F 
ATOM     20  F   UNL     1      -0.801   8.242  22.397  0.00  0.00    +0.000 F 
ENDBRANCH  14  17
ENDBRANCH   5   7
BRANCH   1  21
ATOM     21  C   UNL     1       5.899   5.154  16.930  0.00  0.00    +0.000 C 
ATOM     22  C   UNL     1       7.066   4.720  17.830  0.00  0.00    +0.000 C 
BRANCH  21  23
ATOM     23  C   UNL     1       5.850   4.236  15.687  0.00  0.00    +0.000 C 
BRANCH  23  29
ATOM     24  C   UNL     1       5.626   3.281  12.586  0.00  0.00    +0.000 C 
ATOM     25  C   UNL     1       6.585   4.249  13.168  0.00  0.00    +0.000 A 
ATOM     26  C   UNL     1       7.611   4.910  12.527  0.00  0.00    +0.000 A 
ATOM     27  N   UNL     1       8.228   5.669  13.475  0.00  0.00    +0.000 N 
ATOM     28  N   UNL     1       7.689   5.544  14.696  0.00  0.00    +0.000 NA
ATOM     29  C   UNL     1       6.674   4.686  14.520  0.00  0.00    +0.000 A 
ATOM     30  H   UNL     1       9.028   6.279  13.362  0.00  0.00    +0.000 HD
ENDBRANCH  23  29
ENDBRANCH  21  23
ENDBRANCH   1  21
TORSDOF 5
ENDMDL
MODEL 2
REMARK VINA RESULT:      -9.5      1.863      2.809
REMARK  Name = 
REMARK  7 active torsions:
REMARK  status: ('A' for Active; 'I' for Inactive)
REMARK    1  A    between atoms: C_1  and  C_2
REMARK    2  A    between atoms: C_6  and  C_7
REMARK    3  A    between atoms: C_7  and  C_8
REMARK    4  A    between atoms: C_8  and  C_9
REMARK    5  A    between atoms: C_8  and  C_10
REMARK    6  A    between atoms: C_14  and  N_15
REMARK    7  A    between atoms: C_22  and  C_23
REMARK                            x       y       z     vdW  Elec       q    Type
REMARK                         _______ _______ _______ _____ _____    ______ ____
ROOT
ATOM      1  C   UNL     1       4.329   5.447  17.449  0.00  0.00    +0.000 A 
ATOM      2  C   UNL     1       4.084   4.317  18.248  0.00  0.00    +0.000 A 
ATOM      3  C   UNL     1       3.241   4.398  19.355  0.00  0.00    +0.000 A 
ATOM      4  C   UNL     1       2.618   5.605  19.663  0.00  0.00    +0.000 A 
ATOM      5  C   UNL     1       2.888   6.753  18.914  0.00  0.00    +0.000 A 
ATOM      6  C   UNL     1       3.765   6.683  17.832  0.00  0.00    +0.000 A 
ENDROOT
BRANCH   5   7
ATOM      7  N   UNL     1       2.172   7.929  19.201  0.00  0.00    +0.000 N 
ATOM      8  C   UNL     1       1.519   8.074  20.487  0.00  0.00    +0.000 C 
ATOM      9  C   UNL     1       0.829   9.393  20.367  0.00  0.00    +0.000 A 
ATOM     10  C   UNL     1       1.059   9.928  19.100  0.00  0.00    +0.000 A 
ATOM     11  C   UNL     1       0.597  11.180  18.737  0.00  0.00    +0.000 A 
ATOM     12  C   UNL     1      -0.144  11.894  19.684  0.00  0.00    +0.000 A 
ATOM     13  C   UNL     1      -0.415  11.344  20.952  0.00  0.00    +0.000 A 
ATOM     14  C   UNL     1       0.068  10.073  21.314  0.00  0.00    +0.000 A 
ATOM     15  C   UNL     1       1.861   8.959  18.321  0.00  0.00    +0.000 C 
ATOM     16  O   UNL     1       2.185   9.125  17.162  0.00  0.00    +0.000 OA
BRANCH  14  17
ATOM     17  C   UNL     1      -0.243   9.491  22.668  0.00  0.00    +0.000 C 
ATOM     18  F   UNL     1      -1.043  10.282  23.437  0.00  0.00    +0.000 F 
ATOM     19  F   UNL     1      -0.881   8.292  22.588  0.00  0.00    +0.000 F 
ATOM     20  F   UNL     1       0.878   9.274  23.410  0.00  0.00    +0.000 F 
ENDBRANCH  14  17
ENDBRANCH   5   7
BRANCH   1  21
ATOM     21  C   UNL     1       5.140   5.347  16.164  0.00  0.00    +0.000 C 
ATOM     22  C   UNL     1       5.066   6.662  15.374  0.00  0.00    +0.000 C 
BRANCH  21  23
ATOM     23  C   UNL     1       6.624   4.977  16.393  0.00  0.00    +0.000 C 
BRANCH  23  29
ATOM     24  C   UNL     1       7.601   7.964  17.227  0.00  0.00    +0.000 C 
ATOM     25  C   UNL     1       7.652   6.733  18.049  0.00  0.00    +0.000 A 
ATOM     26  C   UNL     1       8.166   6.587  19.320  0.00  0.00    +0.000 A 
ATOM     27  N   UNL     1       8.009   5.274  19.647  0.00  0.00    +0.000 N 
ATOM     28  N   UNL     1       7.441   4.544  18.677  0.00  0.00    +0.000 NA
ATOM     29  C   UNL     1       7.206   5.427  17.697  0.00  0.00    +0.000 A 
ATOM     30  H   UNL     1       8.281   4.808  20.505  0.00  0.00    +0.000 HD
ENDBRANCH  23  29
ENDBRANCH  21  23
ENDBRANCH   1  21
TORSDOF 5
ENDMDL
MODEL 3
REMARK VINA RESULT:      -9.5      1.567      2.669
REMARK  Name = 
REMARK  7 active torsions:
REMARK  status: ('A' for Active; 'I' for Inactive)
REMARK    1  A    between atoms: C_1  and  C_2
REMARK    2  A    between atoms: C_6  and  C_7
REMARK    3  A    between atoms: C_7  and  C_8
REMARK    4  A    between atoms: C_8  and  C_9
REMARK    5  A    between atoms: C_8  and  C_10
REMARK    6  A    between atoms: C_14  and  N_15
REMARK    7  A    between atoms: C_22  and  C_23
REMARK                            x       y       z     vdW  Elec       q    Type
REMARK                         _______ _______ _______ _____ _____    ______ ____
ROOT
ATOM      1  C   UNL     1       4.449   4.623  18.000  0.00  0.00    +0.000 A 
ATOM      2  C   UNL     1       4.155   3.628  18.948  0.00  0.00    +0.000 A 
ATOM      3  C   UNL     1       3.304   3.896  20.019  0.00  0.00    +0.000 A 
ATOM      4  C   UNL     1       2.721   5.154  20.141  0.00  0.00    +0.000 A 
ATOM      5  C   UNL     1       3.039   6.174  19.240  0.00  0.00    +0.000 A 
ATOM      6  C   UNL     1       3.924   5.919  18.193  0.00  0.00    +0.000 A 
ENDROOT
BRANCH   5   7
ATOM      7  N   UNL     1       2.362   7.402  19.344  0.00  0.00    +0.000 N 
ATOM      8  C   UNL     1       1.641   7.721  20.560  0.00  0.00    +0.000 C 
ATOM      9  C   UNL     1       1.021   9.042  20.246  0.00  0.00    +0.000 A 
ATOM     10  C   UNL     1       1.350   9.416  18.943  0.00  0.00    +0.000 A 
ATOM     11  C   UNL     1       0.968  10.635  18.411  0.00  0.00    +0.000 A 
ATOM     12  C   UNL     1       0.206  11.483  19.220  0.00  0.00    +0.000 A 
ATOM     13  C   UNL     1      -0.165  11.095  20.522  0.00  0.00    +0.000 A 
ATOM     14  C   UNL     1       0.236   9.858  21.058  0.00  0.00    +0.000 A 
ATOM     15  C   UNL     1       2.152   8.333  18.334  0.00  0.00    +0.000 C 
ATOM     16  O   UNL     1       2.552   8.349  17.187  0.00  0.00    +0.000 OA
BRANCH  14  17
ATOM     17  C   UNL     1      -0.181   9.450  22.447  0.00  0.00    +0.000 C 
ATOM     18  F   UNL     1      -0.939  10.382  23.089  0.00  0.00    +0.000 F 
ATOM     19  F   UNL     1      -0.920   8.307  22.457  0.00  0.00    +0.000 F 
ATOM     20  F   UNL     1       0.885   9.219  23.262  0.00  0.00    +0.000 F 
ENDBRANCH  14  17
ENDBRANCH   5   7
BRANCH   1  21
ATOM     21  C   UNL     1       5.269   4.311  16.755  0.00  0.00    +0.000 C 
ATOM     22  C   UNL     1       4.884   5.252  15.604  0.00  0.00    +0.000 C 
BRANCH  21  23
ATOM     23  C   UNL     1       6.797   4.390  16.983  0.00  0.00    +0.000 C 
BRANCH  23  29
ATOM     24  C   UNL     1       7.693   5.516  19.899  0.00  0.00    +0.000 C 
ATOM     25  C   UNL     1       7.700   6.242  18.608  0.00  0.00    +0.000 A 
ATOM     26  C   UNL     1       8.043   7.557  18.381  0.00  0.00    +0.000 A 
ATOM     27  N   UNL     1       7.871   7.773  17.047  0.00  0.00    +0.000 N 
ATOM     28  N   UNL     1       7.427   6.696  16.383  0.00  0.00    +0.000 NA
ATOM     29  C   UNL     1       7.329   5.748  17.325  0.00  0.00    +0.000 A 
ATOM     30  H   UNL     1       8.022   8.630  16.529  0.00  0.00    +0.000 HD
ENDBRANCH  23  29
ENDBRANCH  21  23
ENDBRANCH   1  21
TORSDOF 5
ENDMDL
MODEL 4
REMARK VINA RESULT:      -9.0      1.179      1.802
REMARK  Name = 
REMARK  7 active torsions:
REMARK  status: ('A' for Active; 'I' for Inactive)
REMARK    1  A    between atoms: C_1  and  C_2
REMARK    2  A    between atoms: C_6  and  C_7
REMARK    3  A    between atoms: C_7  and  C_8
REMARK    4  A    between atoms: C_8  and  C_9
REMARK    5  A    between atoms: C_8  and  C_10
REMARK    6  A    between atoms: C_14  and  N_15
REMARK    7  A    between atoms: C_22  and  C_23
REMARK                            x       y       z     vdW  Elec       q    Type
REMARK                         _______ _______ _______ _____ _____    ______ ____
ROOT
ATOM      1  C   UNL     1       3.457   4.026  18.916  0.00  0.00    +0.000 A 
ATOM      2  C   UNL     1       2.887   3.168  19.871  0.00  0.00    +0.000 A 
ATOM      3  C   UNL     1       2.035   3.666  20.855  0.00  0.00    +0.000 A 
ATOM      4  C   UNL     1       1.728   5.023  20.882  0.00  0.00    +0.000 A 
ATOM      5  C   UNL     1       2.324   5.903  19.974  0.00  0.00    +0.000 A 
ATOM      6  C   UNL     1       3.210   5.412  19.017  0.00  0.00    +0.000 A 
ENDROOT
BRANCH   5   7
ATOM      7  N   UNL     1       1.920   7.250  19.976  0.00  0.00    +0.000 N 
ATOM      8  C   UNL     1       1.233   7.790  21.132  0.00  0.00    +0.000 C 
ATOM      9  C   UNL     1       0.921   9.189  20.716  0.00  0.00    +0.000 A 
ATOM     10  C   UNL     1       1.378   9.403  19.415  0.00  0.00    +0.000 A 
ATOM     11  C   UNL     1       1.288  10.639  18.799  0.00  0.00    +0.000 A 
ATOM     12  C   UNL     1       0.690  11.677  19.520  0.00  0.00    +0.000 A 
ATOM     13  C   UNL     1       0.190  11.459  20.818  0.00  0.00    +0.000 A 
ATOM     14  C   UNL     1       0.295  10.201  21.439  0.00  0.00    +0.000 A 
ATOM     15  C   UNL     1       1.956   8.140  18.909  0.00  0.00    +0.000 C 
ATOM     16  O   UNL     1       2.399   7.999  17.786  0.00  0.00    +0.000 OA
BRANCH  14  17
ATOM     17  C   UNL     1      -0.259   9.978  22.822  0.00  0.00    +0.000 C 
ATOM     18  F   UNL     1      -0.888  11.068  23.345  0.00  0.00    +0.000 F 
ATOM     19  F   UNL     1      -1.174   8.972  22.864  0.00  0.00    +0.000 F 
ATOM     20  F   UNL     1       0.708   9.647  23.721  0.00  0.00    +0.000 F 
ENDBRANCH  14  17
ENDBRANCH   5   7
BRANCH   1  21
ATOM     21  C   UNL     1       4.283   3.483  17.757  0.00  0.00    +0.000 C 
ATOM     22  C   UNL     1       3.878   2.037  17.434  0.00  0.00    +0.000 C 
BRANCH  21  23
ATOM     23  C   UNL     1       4.184   4.335  16.470  0.00  0.00    +0.000 C 
BRANCH  23  29
ATOM     24  C   UNL     1       5.328   3.761  13.481  0.00  0.00    +0.000 C 
ATOM     25  C   UNL     1       5.995   4.498  14.579  0.00  0.00    +0.000 A 
ATOM     26  C   UNL     1       7.257   5.054  14.578  0.00  0.00    +0.000 A 
ATOM     27  N   UNL     1       7.434   5.602  15.813  0.00  0.00    +0.000 N 
ATOM     28  N   UNL     1       6.384   5.435  16.629  0.00  0.00    +0.000 NA
ATOM     29  C   UNL     1       5.491   4.771  15.883  0.00  0.00    +0.000 A 
ATOM     30  H   UNL     1       8.249   6.087  16.169  0.00  0.00    +0.000 HD
ENDBRANCH  23  29
ENDBRANCH  21  23
ENDBRANCH   1  21
TORSDOF 5
ENDMDL
MODEL 5
REMARK VINA RESULT:      -8.9      2.224      2.742
REMARK  Name = 
REMARK  7 active torsions:
REMARK  status: ('A' for Active; 'I' for Inactive)
REMARK    1  A    between atoms: C_1  and  C_2
REMARK    2  A    between atoms: C_6  and  C_7
REMARK    3  A    between atoms: C_7  and  C_8
REMARK    4  A    between atoms: C_8  and  C_9
REMARK    5  A    between atoms: C_8  and  C_10
REMARK    6  A    between atoms: C_14  and  N_15
REMARK    7  A    between atoms: C_22  and  C_23
REMARK                            x       y       z     vdW  Elec       q    Type
REMARK                         _______ _______ _______ _____ _____    ______ ____
ROOT
ATOM      1  C   UNL     1       4.643   4.695  17.096  0.00  0.00    +0.000 A 
ATOM      2  C   UNL     1       3.842   3.590  16.762  0.00  0.00    +0.000 A 
ATOM      3  C   UNL     1       2.540   3.483  17.246  0.00  0.00    +0.000 A 
ATOM      4  C   UNL     1       2.017   4.491  18.052  0.00  0.00    +0.000 A 
ATOM      5  C   UNL     1       2.812   5.573  18.439  0.00  0.00    +0.000 A 
ATOM      6  C   UNL     1       4.129   5.658  17.990  0.00  0.00    +0.000 A 
ENDROOT
BRANCH   5   7
ATOM      7  N   UNL     1       2.221   6.613  19.178  0.00  0.00    +0.000 N 
ATOM      8  C   UNL     1       2.135   7.941  18.603  0.00  0.00    +0.000 C 
ATOM      9  C   UNL     1       1.528   8.746  19.704  0.00  0.00    +0.000 A 
ATOM     10  C   UNL     1       1.318   7.932  20.818  0.00  0.00    +0.000 A 
ATOM     11  C   UNL     1       0.697   8.401  21.962  0.00  0.00    +0.000 A 
ATOM     12  C   UNL     1       0.306   9.743  21.982  0.00  0.00    +0.000 A 
ATOM     13  C   UNL     1       0.551  10.581  20.877  0.00  0.00    +0.000 A 
ATOM     14  C   UNL     1       1.175  10.093  19.714  0.00  0.00    +0.000 A 
ATOM     15  C   UNL     1       1.827   6.578  20.511  0.00  0.00    +0.000 C 
ATOM     16  O   UNL     1       1.824   5.657  21.303  0.00  0.00    +0.000 OA
BRANCH  14  17
ATOM     17  C   UNL     1       1.444  11.005  18.546  0.00  0.00    +0.000 C 
ATOM     18  F   UNL     1       2.394  11.950  18.794  0.00  0.00    +0.000 F 
ATOM     19  F   UNL     1       1.876  10.332  17.445  0.00  0.00    +0.000 F 
ATOM     20  F   UNL     1       0.335  11.693  18.158  0.00  0.00    +0.000 F 
ENDBRANCH  14  17
ENDBRANCH   5   7
BRANCH   1  21
ATOM     21  C   UNL     1       6.019   4.893  16.472  0.00  0.00    +0.000 C 
ATOM     22  C   UNL     1       7.119   4.773  17.537  0.00  0.00    +0.000 C 
BRANCH  21  23
ATOM     23  C   UNL     1       6.324   3.911  15.317  0.00  0.00    +0.000 C 
BRANCH  23  29
ATOM     24  C   UNL     1       5.732   3.135  12.215  0.00  0.00    +0.000 C 
ATOM     25  C   UNL     1       6.660   4.170  12.727  0.00  0.00    +0.000 A 
ATOM     26  C   UNL     1       7.498   4.987  12.000  0.00  0.00    +0.000 A 
ATOM     27  N   UNL     1       8.168   5.752  12.906  0.00  0.00    +0.000 N 
ATOM     28  N   UNL     1       7.839   5.487  14.179  0.00  0.00    +0.000 NA
ATOM     29  C   UNL     1       6.907   4.529  14.084  0.00  0.00    +0.000 A 
ATOM     30  H   UNL     1       8.872   6.459  12.728  0.00  0.00    +0.000 HD
ENDBRANCH  23  29
ENDBRANCH  21  23
ENDBRANCH   1  21
TORSDOF 5
ENDMDL
MODEL 6
REMARK VINA RESULT:      -8.9      3.614      9.433
REMARK  Name = 
REMARK  7 active torsions:
REMARK  status: ('A' for Active; 'I' for Inactive)
REMARK    1  A    between atoms: C_1  and  C_2
REMARK    2  A    between atoms: C_6  and  C_7
REMARK    3  A    between atoms: C_7  and  C_8
REMARK    4  A    between atoms: C_8  and  C_9
REMARK    5  A    between atoms: C_8  and  C_10
REMARK    6  A    between atoms: C_14  and  N_15
REMARK    7  A    between atoms: C_22  and  C_23
REMARK                            x       y       z     vdW  Elec       q    Type
REMARK                         _______ _______ _______ _____ _____    ______ ____
ROOT
ATOM      1  C   UNL     1       0.180  10.061  20.987  0.00  0.00    +0.000 A 
ATOM      2  C   UNL     1       0.235  11.067  20.009  0.00  0.00    +0.000 A 
ATOM      3  C   UNL     1       0.922  10.860  18.813  0.00  0.00    +0.000 A 
ATOM      4  C   UNL     1       1.543   9.638  18.576  0.00  0.00    +0.000 A 
ATOM      5  C   UNL     1       1.546   8.641  19.555  0.00  0.00    +0.000 A 
ATOM      6  C   UNL     1       0.896   8.863  20.768  0.00  0.00    +0.000 A 
ENDROOT
BRANCH   5   7
ATOM      7  N   UNL     1       2.106   7.390  19.243  0.00  0.00    +0.000 N 
ATOM      8  C   UNL     1       1.895   6.268  20.137  0.00  0.00    +0.000 C 
ATOM      9  C   UNL     1       2.692   5.177  19.502  0.00  0.00    +0.000 A 
ATOM     10  C   UNL     1       3.321   5.664  18.356  0.00  0.00    +0.000 A 
ATOM     11  C   UNL     1       4.069   4.847  17.526  0.00  0.00    +0.000 A 
ATOM     12  C   UNL     1       4.202   3.504  17.891  0.00  0.00    +0.000 A 
ATOM     13  C   UNL     1       3.604   3.014  19.069  0.00  0.00    +0.000 A 
ATOM     14  C   UNL     1       2.837   3.851  19.900  0.00  0.00    +0.000 A 
ATOM     15  C   UNL     1       3.007   7.103  18.224  0.00  0.00    +0.000 C 
ATOM     16  O   UNL     1       3.448   7.815  17.344  0.00  0.00    +0.000 OA
BRANCH  14  17
ATOM     17  C   UNL     1       2.216   3.317  21.164  0.00  0.00    +0.000 C 
ATOM     18  F   UNL     1       2.481   4.071  22.268  0.00  0.00    +0.000 F 
ATOM     19  F   UNL     1       0.859   3.241  21.089  0.00  0.00    +0.000 F 
ATOM     20  F   UNL     1       2.649   2.062  21.465  0.00  0.00    +0.000 F 
ENDBRANCH  14  17
ENDBRANCH   5   7
BRANCH   1  21
ATOM     21  C   UNL     1      -0.673  10.219  22.239  0.00  0.00    +0.000 C 
ATOM     22  C   UNL     1      -0.009   9.525  23.438  0.00  0.00    +0.000 C 
BRANCH  21  23
ATOM     23  C   UNL     1      -0.967  11.692  22.608  0.00  0.00    +0.000 C 
BRANCH  23  29
ATOM     24  C   UNL     1      -2.689  13.113  20.244  0.00  0.00    +0.000 C 
ATOM     25  C   UNL     1      -3.159  12.717  21.592  0.00  0.00    +0.000 A 
ATOM     26  C   UNL     1      -4.408  12.909  22.141  0.00  0.00    +0.000 A 
ATOM     27  N   UNL     1      -4.353  12.400  23.404  0.00  0.00    +0.000 N 
ATOM     28  N   UNL     1      -3.153  11.899  23.728  0.00  0.00    +0.000 NA
ATOM     29  C   UNL     1      -2.415  12.075  22.623  0.00  0.00    +0.000 A 
ATOM     30  H   UNL     1      -5.089  12.377  24.100  0.00  0.00    +0.000 HD
ENDBRANCH  23  29
ENDBRANCH  21  23
ENDBRANCH   1  21
TORSDOF 5
ENDMDL
MODEL 7
REMARK VINA RESULT:      -8.8      0.971      1.341
REMARK  Name = 
REMARK  7 active torsions:
REMARK  status: ('A' for Active; 'I' for Inactive)
REMARK    1  A    between atoms: C_1  and  C_2
REMARK    2  A    between atoms: C_6  and  C_7
REMARK    3  A    between atoms: C_7  and  C_8
REMARK    4  A    between atoms: C_8  and  C_9
REMARK    5  A    between atoms: C_8  and  C_10
REMARK    6  A    between atoms: C_14  and  N_15
REMARK    7  A    between atoms: C_22  and  C_23
REMARK                            x       y       z     vdW  Elec       q    Type
REMARK                         _______ _______ _______ _____ _____    ______ ____
ROOT
ATOM      1  C   UNL     1       5.243   5.450  18.923  0.00  0.00    +0.000 A 
ATOM      2  C   UNL     1       4.640   4.193  19.098  0.00  0.00    +0.000 A 
ATOM      3  C   UNL     1       3.290   4.091  19.430  0.00  0.00    +0.000 A 
ATOM      4  C   UNL     1       2.524   5.245  19.571  0.00  0.00    +0.000 A 
ATOM      5  C   UNL     1       3.114   6.506  19.453  0.00  0.00    +0.000 A 
ATOM      6  C   UNL     1       4.474   6.609  19.163  0.00  0.00    +0.000 A 
ENDROOT
BRANCH   5   7
ATOM      7  N   UNL     1       2.290   7.645  19.513  0.00  0.00    +0.000 N 
ATOM      8  C   UNL     1       1.560   7.936  20.730  0.00  0.00    +0.000 C 
ATOM      9  C   UNL     1       0.771   9.151  20.366  0.00  0.00    +0.000 A 
ATOM     10  C   UNL     1       1.024   9.493  19.038  0.00  0.00    +0.000 A 
ATOM     11  C   UNL     1       0.481  10.624  18.455  0.00  0.00    +0.000 A 
ATOM     12  C   UNL     1      -0.365  11.412  19.241  0.00  0.00    +0.000 A 
ATOM     13  C   UNL     1      -0.657  11.052  20.570  0.00  0.00    +0.000 A 
ATOM     14  C   UNL     1      -0.093   9.904  21.157  0.00  0.00    +0.000 A 
ATOM     15  C   UNL     1       1.943   8.487  18.463  0.00  0.00    +0.000 C 
ATOM     16  O   UNL     1       2.315   8.492  17.306  0.00  0.00    +0.000 OA
BRANCH  14  17
ATOM     17  C   UNL     1      -0.427   9.523  22.575  0.00  0.00    +0.000 C 
ATOM     18  F   UNL     1       0.654   9.488  23.404  0.00  0.00    +0.000 F 
ATOM     19  F   UNL     1      -1.306  10.384  23.155  0.00  0.00    +0.000 F 
ATOM     20  F   UNL     1      -0.994   8.288  22.661  0.00  0.00    +0.000 F 
ENDBRANCH  14  17
ENDBRANCH   5   7
BRANCH   1  21
ATOM     21  C   UNL     1       6.679   5.578  18.433  0.00  0.00    +0.000 C 
ATOM     22  C   UNL     1       7.651   5.657  19.620  0.00  0.00    +0.000 C 
BRANCH  21  23
ATOM     23  C   UNL     1       7.120   4.430  17.495  0.00  0.00    +0.000 C 
BRANCH  23  29
ATOM     24  C   UNL     1       4.460   3.403  15.931  0.00  0.00    +0.000 C 
ATOM     25  C   UNL     1       5.614   4.140  15.366  0.00  0.00    +0.000 A 
ATOM     26  C   UNL     1       5.823   4.502  14.052  0.00  0.00    +0.000 A 
ATOM     27  N   UNL     1       7.027   5.137  14.017  0.00  0.00    +0.000 N 
ATOM     28  N   UNL     1       7.631   5.206  15.212  0.00  0.00    +0.000 NA
ATOM     29  C   UNL     1       6.772   4.610  16.049  0.00  0.00    +0.000 A 
ATOM     30  H   UNL     1       7.503   5.530  13.214  0.00  0.00    +0.000 HD
ENDBRANCH  23  29
ENDBRANCH  21  23
ENDBRANCH   1  21
TORSDOF 5
ENDMDL
MODEL 8
REMARK VINA RESULT:      -8.8      2.293      3.022
REMARK  Name = 
REMARK  7 active torsions:
REMARK  status: ('A' for Active; 'I' for Inactive)
REMARK    1  A    between atoms: C_1  and  C_2
REMARK    2  A    between atoms: C_6  and  C_7
REMARK    3  A    between atoms: C_7  and  C_8
REMARK    4  A    between atoms: C_8  and  C_9
REMARK    5  A    between atoms: C_8  and  C_10
REMARK    6  A    between atoms: C_14  and  N_15
REMARK    7  A    between atoms: C_22  and  C_23
REMARK                            x       y       z     vdW  Elec       q    Type
REMARK                         _______ _______ _______ _____ _____    ______ ____
ROOT
ATOM      1  C   UNL     1       3.749   4.468  18.844  0.00  0.00    +0.000 A 
ATOM      2  C   UNL     1       3.053   3.473  19.552  0.00  0.00    +0.000 A 
ATOM      3  C   UNL     1       1.990   3.808  20.389  0.00  0.00    +0.000 A 
ATOM      4  C   UNL     1       1.598   5.138  20.511  0.00  0.00    +0.000 A 
ATOM      5  C   UNL     1       2.308   6.149  19.857  0.00  0.00    +0.000 A 
ATOM      6  C   UNL     1       3.398   5.819  19.054  0.00  0.00    +0.000 A 
ENDROOT
BRANCH   5   7
ATOM      7  N   UNL     1       1.828   7.469  19.934  0.00  0.00    +0.000 N 
ATOM      8  C   UNL     1       1.150   7.915  21.135  0.00  0.00    +0.000 C 
ATOM      9  C   UNL     1       0.744   9.311  20.794  0.00  0.00    +0.000 A 
ATOM     10  C   UNL     1       1.142   9.608  19.490  0.00  0.00    +0.000 A 
ATOM     11  C   UNL     1       0.959  10.862  18.935  0.00  0.00    +0.000 A 
ATOM     12  C   UNL     1       0.328  11.830  19.721  0.00  0.00    +0.000 A 
ATOM     13  C   UNL     1      -0.114  11.526  21.023  0.00  0.00    +0.000 A 
ATOM     14  C   UNL     1       0.085  10.250  21.582  0.00  0.00    +0.000 A 
ATOM     15  C   UNL     1       1.775   8.405  18.908  0.00  0.00    +0.000 C 
ATOM     16  O   UNL     1       2.186   8.340  17.766  0.00  0.00    +0.000 OA
BRANCH  14  17
ATOM     17  C   UNL     1      -0.406   9.934  22.971  0.00  0.00    +0.000 C 
ATOM     18  F   UNL     1      -1.110  10.948  23.549  0.00  0.00    +0.000 F 
ATOM     19  F   UNL     1      -1.230   8.852  23.000  0.00  0.00    +0.000 F 
ATOM     20  F   UNL     1       0.612   9.658  23.831  0.00  0.00    +0.000 F 
ENDBRANCH  14  17
ENDBRANCH   5   7
BRANCH   1  21
ATOM     21  C   UNL     1       4.824   4.110  17.826  0.00  0.00    +0.000 C 
ATOM     22  C   UNL     1       4.200   3.448  16.589  0.00  0.00    +0.000 C 
BRANCH  21  23
ATOM     23  C   UNL     1       5.680   5.318  17.376  0.00  0.00    +0.000 C 
BRANCH  23  29
ATOM     24  C   UNL     1       7.595   7.941  17.219  0.00  0.00    +0.000 C 
ATOM     25  C   UNL     1       7.620   6.862  18.234  0.00  0.00    +0.000 A 
ATOM     26  C   UNL     1       8.488   6.722  19.295  0.00  0.00    +0.000 A 
ATOM     27  N   UNL     1       8.134   5.569  19.928  0.00  0.00    +0.000 N 
ATOM     28  N   UNL     1       7.103   4.935  19.352  0.00  0.00    +0.000 NA
ATOM     29  C   UNL     1       6.770   5.722  18.320  0.00  0.00    +0.000 A 
ATOM     30  H   UNL     1       8.561   5.149  20.746  0.00  0.00    +0.000 HD
ENDBRANCH  23  29
ENDBRANCH  21  23
ENDBRANCH   1  21
TORSDOF 5
ENDMDL
MODEL 9
REMARK VINA RESULT:      -8.8      4.178      9.833
REMARK  Name = 
REMARK  7 active torsions:
REMARK  status: ('A' for Active; 'I' for Inactive)
REMARK    1  A    between atoms: C_1  and  C_2
REMARK    2  A    between atoms: C_6  and  C_7
REMARK    3  A    between atoms: C_7  and  C_8
REMARK    4  A    between atoms: C_8  and  C_9
REMARK    5  A    between atoms: C_8  and  C_10
REMARK    6  A    between atoms: C_14  and  N_15
REMARK    7  A    between atoms: C_22  and  C_23
REMARK                            x       y       z     vdW  Elec       q    Type
REMARK                         _______ _______ _______ _____ _____    ______ ____
ROOT
ATOM      1  C   UNL     1       0.023   9.915  20.831  0.00  0.00    +0.000 A 
ATOM      2  C   UNL     1      -0.329  10.674  19.703  0.00  0.00    +0.000 A 
ATOM      3  C   UNL     1       0.218  10.388  18.454  0.00  0.00    +0.000 A 
ATOM      4  C   UNL     1       1.108   9.327  18.315  0.00  0.00    +0.000 A 
ATOM      5  C   UNL     1       1.512   8.590  19.432  0.00  0.00    +0.000 A 
ATOM      6  C   UNL     1       0.998   8.904  20.689  0.00  0.00    +0.000 A 
ENDROOT
BRANCH   5   7
ATOM      7  N   UNL     1       2.341   7.471  19.238  0.00  0.00    +0.000 N 
ATOM      8  C   UNL     1       3.352   7.500  18.199  0.00  0.00    +0.000 C 
ATOM      9  C   UNL     1       3.948   6.133  18.271  0.00  0.00    +0.000 A 
ATOM     10  C   UNL     1       3.299   5.391  19.258  0.00  0.00    +0.000 A 
ATOM     11  C   UNL     1       3.697   4.109  19.593  0.00  0.00    +0.000 A 
ATOM     12  C   UNL     1       4.767   3.559  18.882  0.00  0.00    +0.000 A 
ATOM     13  C   UNL     1       5.402   4.287  17.856  0.00  0.00    +0.000 A 
ATOM     14  C   UNL     1       4.996   5.593  17.530  0.00  0.00    +0.000 A 
ATOM     15  C   UNL     1       2.219   6.221  19.833  0.00  0.00    +0.000 C 
ATOM     16  O   UNL     1       1.448   5.833  20.688  0.00  0.00    +0.000 OA
BRANCH  14  17
ATOM     17  C   UNL     1       5.673   6.354  16.420  0.00  0.00    +0.000 C 
ATOM     18  F   UNL     1       6.330   7.472  16.840  0.00  0.00    +0.000 F 
ATOM     19  F   UNL     1       6.604   5.607  15.766  0.00  0.00    +0.000 F 
ATOM     20  F   UNL     1       4.795   6.780  15.471  0.00  0.00    +0.000 F 
ENDBRANCH  14  17
ENDBRANCH   5   7
BRANCH   1  21
ATOM     21  C   UNL     1      -0.662  10.128  22.175  0.00  0.00    +0.000 C 
ATOM     22  C   UNL     1       0.142   9.464  23.303  0.00  0.00    +0.000 C 
BRANCH  21  23
ATOM     23  C   UNL     1      -0.891  11.616  22.526  0.00  0.00    +0.000 C 
BRANCH  23  29
ATOM     24  C   UNL     1      -2.572  13.375  20.368  0.00  0.00    +0.000 C 
ATOM     25  C   UNL     1      -3.049  12.835  21.663  0.00  0.00    +0.000 A 
ATOM     26  C   UNL     1      -4.287  13.005  22.244  0.00  0.00    +0.000 A 
ATOM     27  N   UNL     1      -4.244  12.345  23.435  0.00  0.00    +0.000 N 
ATOM     28  N   UNL     1      -3.061  11.765  23.684  0.00  0.00    +0.000 NA
ATOM     29  C   UNL     1      -2.323  12.047  22.602  0.00  0.00    +0.000 A 
ATOM     30  H   UNL     1      -4.976  12.264  24.131  0.00  0.00    +0.000 HD
ENDBRANCH  23  29
ENDBRANCH  21  23
ENDBRANCH   1  21
TORSDOF 5
ENDMDL
