MODEL 1
REMARK VINA RESULT:      -8.4      0.000      0.000
REMARK  Name = 
REMARK  7 active torsions:
REMARK  status: ('A' for Active; 'I' for Inactive)
REMARK    1  A    between atoms: C_1  and  C_2
REMARK    2  A    between atoms: C_2  and  S_3
REMARK    3  A    between atoms: C_2  and  C_10
REMARK    4  A    between atoms: S_3  and  C_4
REMARK    5  A    between atoms: N_8  and  C_9
REMARK    6  A    between atoms: C_14  and  N_15
REMARK    7  A    between atoms: C_17  and  C_18
REMARK                            x       y       z     vdW  Elec       q    Type
REMARK                         _______ _______ _______ _____ _____    ______ ____
ROOT
ATOM      1  C   UNL     1      -0.893  11.197  21.731  0.00  0.00    +0.000 A 
ATOM      2  C   UNL     1      -0.789  10.622  23.008  0.00  0.00    +0.000 A 
ATOM      3  C   UNL     1       0.025   9.512  23.240  0.00  0.00    +0.000 A 
ATOM      4  C   UNL     1       0.747   8.941  22.197  0.00  0.00    +0.000 A 
ATOM      5  C   UNL     1       0.684   9.501  20.916  0.00  0.00    +0.000 A 
ATOM      6  C   UNL     1      -0.111  10.640  20.693  0.00  0.00    +0.000 A 
ENDROOT
BRANCH   5   7
ATOM      7  N   UNL     1       1.379   8.899  19.835  0.00  0.00    +0.000 N 
ATOM      8  C   UNL     1       2.088   7.718  19.831  0.00  0.00    +0.000 A 
ATOM      9  C   UNL     1       2.448   7.525  18.520  0.00  0.00    +0.000 A 
ATOM     10  N   UNL     1       2.015   8.585  17.777  0.00  0.00    +0.000 NA
ATOM     11  N   UNL     1       1.376   9.423  18.584  0.00  0.00    +0.000 NA
BRANCH   9  12
ATOM     12  C   UNL     1       3.091   6.344  17.978  0.00  0.00    +0.000 A 
ATOM     13  C   UNL     1       4.305   6.474  17.287  0.00  0.00    +0.000 A 
ATOM     14  C   UNL     1       4.898   5.368  16.673  0.00  0.00    +0.000 A 
ATOM     15  C   UNL     1       4.288   4.117  16.752  0.00  0.00    +0.000 A 
ATOM     16  C   UNL     1       3.097   3.975  17.459  0.00  0.00    +0.000 A 
ATOM     17 CL   UNL     1       2.340   2.432  17.556  0.00  0.00    +0.000 Cl
ATOM     18  C   UNL     1       2.500   5.076  18.075  0.00  0.00    +0.000 A 
ENDBRANCH   9  12
ENDBRANCH   5   7
BRANCH   1  20
ATOM     19  C   UNL     1      -1.386  13.230  20.241  0.00  0.00    +0.000 C 
ATOM     20  C   UNL     1      -1.842  12.365  21.427  0.00  0.00    +0.000 C 
BRANCH  20  21
ATOM     21  S   UNL     1      -1.993  13.417  22.938  0.00  0.00    +0.000 S 
BRANCH  21  22
ATOM     22  C   UNL     1      -3.583  13.057  23.495  0.00  0.00    +0.000 A 
ATOM     23  N   UNL     1      -3.957  12.074  24.281  0.00  0.00    +0.000 NA
ATOM     24  N   UNL     1      -5.335  12.100  24.354  0.00  0.00    +0.000 NA
ATOM     25  C   UNL     1      -5.751  13.111  23.630  0.00  0.00    +0.000 A 
ATOM     26  N   UNL     1      -4.681  13.763  23.097  0.00  0.00    +0.000 N 
ATOM     27  C   UNL     1      -4.729  14.943  22.275  0.00  0.00    +0.000 C 
ENDBRANCH  21  22
ENDBRANCH  20  21
ENDBRANCH   1  20
TORSDOF 5
ENDMDL
MODEL 2
REMARK VINA RESULT:      -8.3      4.183     10.195
REMARK  Name = 
REMARK  7 active torsions:
REMARK  status: ('A' for Active; 'I' for Inactive)
REMARK    1  A    between atoms: C_1  and  C_2
REMARK    2  A    between atoms: C_2  and  S_3
REMARK    3  A    between atoms: C_2  and  C_10
REMARK    4  A    between atoms: S_3  and  C_4
REMARK    5  A    between atoms: N_8  and  C_9
REMARK    6  A    between atoms: C_14  and  N_15
REMARK    7  A    between atoms: C_17  and  C_18
REMARK                            x       y       z     vdW  Elec       q    Type
REMARK                         _______ _______ _______ _____ _____    ______ ____
ROOT
ATOM      1  C   UNL     1       2.152   7.340  19.095  0.00  0.00    +0.000 A 
ATOM      2  C   UNL     1       2.242   8.048  17.885  0.00  0.00    +0.000 A 
ATOM      3  C   UNL     1       1.819   9.374  17.786  0.00  0.00    +0.000 A 
ATOM      4  C   UNL     1       1.285  10.024  18.893  0.00  0.00    +0.000 A 
ATOM      5  C   UNL     1       1.200   9.357  20.121  0.00  0.00    +0.000 A 
ATOM      6  C   UNL     1       1.658   8.031  20.225  0.00  0.00    +0.000 A 
ENDROOT
BRANCH   5   7
ATOM      7  N   UNL     1       0.613   9.995  21.244  0.00  0.00    +0.000 N 
ATOM      8  C   UNL     1      -0.143  11.146  21.271  0.00  0.00    +0.000 A 
ATOM      9  C   UNL     1      -0.574  11.257  22.571  0.00  0.00    +0.000 A 
ATOM     10  N   UNL     1      -0.045  10.236  23.306  0.00  0.00    +0.000 NA
ATOM     11  N   UNL     1       0.685   9.478  22.497  0.00  0.00    +0.000 NA
BRANCH   9  12
ATOM     12  C   UNL     1      -1.520  12.234  23.074  0.00  0.00    +0.000 A 
ATOM     13  C   UNL     1      -1.130  13.576  23.193  0.00  0.00    +0.000 A 
ATOM     14  C   UNL     1      -1.987  14.520  23.763  0.00  0.00    +0.000 A 
ATOM     15  C   UNL     1      -3.248  14.134  24.212  0.00  0.00    +0.000 A 
ATOM     16  C   UNL     1      -3.653  12.809  24.074  0.00  0.00    +0.000 A 
ATOM     17 CL   UNL     1      -5.210  12.328  24.630  0.00  0.00    +0.000 Cl
ATOM     18  C   UNL     1      -2.802  11.861  23.504  0.00  0.00    +0.000 A 
ENDBRANCH   9  12
ENDBRANCH   5   7
BRANCH   1  20
ATOM     19  C   UNL     1       1.842   5.144  20.389  0.00  0.00    +0.000 C 
ATOM     20  C   UNL     1       2.530   5.857  19.214  0.00  0.00    +0.000 C 
BRANCH  20  21
ATOM     21  S   UNL     1       4.364   5.725  19.401  0.00  0.00    +0.000 S 
BRANCH  21  22
ATOM     22  C   UNL     1       4.919   5.827  17.773  0.00  0.00    +0.000 A 
ATOM     23  N   UNL     1       5.454   6.865  17.170  0.00  0.00    +0.000 NA
ATOM     24  N   UNL     1       5.627   6.529  15.842  0.00  0.00    +0.000 NA
ATOM     25  C   UNL     1       5.214   5.294  15.687  0.00  0.00    +0.000 A 
ATOM     26  N   UNL     1       4.791   4.800  16.884  0.00  0.00    +0.000 N 
ATOM     27  C   UNL     1       4.302   3.470  17.128  0.00  0.00    +0.000 C 
ENDBRANCH  21  22
ENDBRANCH  20  21
ENDBRANCH   1  20
TORSDOF 5
ENDMDL
MODEL 3
REMARK VINA RESULT:      -8.2      4.230     10.247
REMARK  Name = 
REMARK  7 active torsions:
REMARK  status: ('A' for Active; 'I' for Inactive)
REMARK    1  A    between atoms: C_1  and  C_2
REMARK    2  A    between atoms: C_2  and  S_3
REMARK    3  A    between atoms: C_2  and  C_10
REMARK    4  A    between atoms: S_3  and  C_4
REMARK    5  A    between atoms: N_8  and  C_9
REMARK    6  A    between atoms: C_14  and  N_15
REMARK    7  A    between atoms: C_17  and  C_18
REMARK                            x       y       z     vdW  Elec       q    Type
REMARK                         _______ _______ _______ _____ _____    ______ ____
ROOT
ATOM      1  C   UNL     1       2.202   7.158  19.152  0.00  0.00    +0.000 A 
ATOM      2  C   UNL     1       2.342   7.856  17.941  0.00  0.00    +0.000 A 
ATOM      3  C   UNL     1       1.949   9.190  17.823  0.00  0.00    +0.000 A 
ATOM      4  C   UNL     1       1.395   9.857  18.910  0.00  0.00    +0.000 A 
ATOM      5  C   UNL     1       1.261   9.200  20.138  0.00  0.00    +0.000 A 
ATOM      6  C   UNL     1       1.688   7.865  20.263  0.00  0.00    +0.000 A 
ENDROOT
BRANCH   5   7
ATOM      7  N   UNL     1       0.654   9.855  21.240  0.00  0.00    +0.000 N 
ATOM      8  C   UNL     1      -0.050  11.040  21.244  0.00  0.00    +0.000 A 
ATOM      9  C   UNL     1      -0.533  11.162  22.524  0.00  0.00    +0.000 A 
ATOM     10  N   UNL     1      -0.084  10.112  23.273  0.00  0.00    +0.000 NA
ATOM     11  N   UNL     1       0.647   9.327  22.490  0.00  0.00    +0.000 NA
BRANCH   9  12
ATOM     12  C   UNL     1      -1.455  12.177  22.994  0.00  0.00    +0.000 A 
ATOM     13  C   UNL     1      -1.046  13.518  23.029  0.00  0.00    +0.000 A 
ATOM     14  C   UNL     1      -1.878  14.504  23.565  0.00  0.00    +0.000 A 
ATOM     15  C   UNL     1      -3.133  14.160  24.064  0.00  0.00    +0.000 A 
ATOM     16  C   UNL     1      -3.557  12.834  24.009  0.00  0.00    +0.000 A 
ATOM     17 CL   UNL     1      -5.106  12.406  24.627  0.00  0.00    +0.000 Cl
ATOM     18  C   UNL     1      -2.730  11.845  23.474  0.00  0.00    +0.000 A 
ENDBRANCH   9  12
ENDBRANCH   5   7
BRANCH   1  20
ATOM     19  C   UNL     1       1.898   5.002  20.515  0.00  0.00    +0.000 C 
ATOM     20  C   UNL     1       2.546   5.668  19.291  0.00  0.00    +0.000 C 
BRANCH  20  21
ATOM     21  S   UNL     1       4.383   5.490  19.391  0.00  0.00    +0.000 S 
BRANCH  21  22
ATOM     22  C   UNL     1       4.803   4.983  17.799  0.00  0.00    +0.000 A 
ATOM     23  N   UNL     1       4.533   3.833  17.224  0.00  0.00    +0.000 NA
ATOM     24  N   UNL     1       5.171   3.821  16.000  0.00  0.00    +0.000 NA
ATOM     25  C   UNL     1       5.789   4.970  15.863  0.00  0.00    +0.000 A 
ATOM     26  N   UNL     1       5.557   5.747  16.957  0.00  0.00    +0.000 N 
ATOM     27  C   UNL     1       6.034   7.088  17.161  0.00  0.00    +0.000 C 
ENDBRANCH  21  22
ENDBRANCH  20  21
ENDBRANCH   1  20
TORSDOF 5
ENDMDL
MODEL 4
REMARK VINA RESULT:      -8.1      4.418     10.204
REMARK  Name = 
REMARK  7 active torsions:
REMARK  status: ('A' for Active; 'I' for Inactive)
REMARK    1  A    between atoms: C_1  and  C_2
REMARK    2  A    between atoms: C_2  and  S_3
REMARK    3  A    between atoms: C_2  and  C_10
REMARK    4  A    between atoms: S_3  and  C_4
REMARK    5  A    between atoms: N_8  and  C_9
REMARK    6  A    between atoms: C_14  and  N_15
REMARK    7  A    between atoms: C_17  and  C_18
REMARK                            x       y       z     vdW  Elec       q    Type
REMARK                         _______ _______ _______ _____ _____    ______ ____
ROOT
ATOM      1  C   UNL     1       2.292   7.576  19.301  0.00  0.00    +0.000 A 
ATOM      2  C   UNL     1       2.082   8.131  18.028  0.00  0.00    +0.000 A 
ATOM      3  C   UNL     1       1.314   9.284  17.857  0.00  0.00    +0.000 A 
ATOM      4  C   UNL     1       0.727   9.905  18.954  0.00  0.00    +0.000 A 
ATOM      5  C   UNL     1       0.933   9.393  20.239  0.00  0.00    +0.000 A 
ATOM      6  C   UNL     1       1.735   8.249  20.411  0.00  0.00    +0.000 A 
ENDROOT
BRANCH   5   7
ATOM      7  N   UNL     1       0.300   9.990  21.360  0.00  0.00    +0.000 N 
ATOM      8  C   UNL     1      -0.283  11.235  21.444  0.00  0.00    +0.000 A 
ATOM      9  C   UNL     1      -0.859  11.273  22.691  0.00  0.00    +0.000 A 
ATOM     10  N   UNL     1      -0.580  10.110  23.347  0.00  0.00    +0.000 NA
ATOM     11  N   UNL     1       0.136   9.338  22.538  0.00  0.00    +0.000 NA
BRANCH   9  12
ATOM     12  C   UNL     1      -1.715  12.326  23.202  0.00  0.00    +0.000 A 
ATOM     13  C   UNL     1      -3.034  12.025  23.573  0.00  0.00    +0.000 A 
ATOM     14  C   UNL     1      -3.910  13.036  23.977  0.00  0.00    +0.000 A 
ATOM     15  C   UNL     1      -3.472  14.358  24.025  0.00  0.00    +0.000 A 
ATOM     16  C   UNL     1      -2.156  14.661  23.684  0.00  0.00    +0.000 A 
ATOM     17 CL   UNL     1      -1.613  16.294  23.740  0.00  0.00    +0.000 Cl
ATOM     18  C   UNL     1      -1.277  13.656  23.279  0.00  0.00    +0.000 A 
ENDBRANCH   9  12
ENDBRANCH   5   7
BRANCH   1  20
ATOM     19  C   UNL     1       3.837   5.803  18.268  0.00  0.00    +0.000 C 
ATOM     20  C   UNL     1       3.061   6.264  19.512  0.00  0.00    +0.000 C 
BRANCH  20  21
ATOM     21  S   UNL     1       1.865   4.949  20.016  0.00  0.00    +0.000 S 
BRANCH  21  22
ATOM     22  C   UNL     1       2.208   3.677  18.906  0.00  0.00    +0.000 A 
ATOM     23  N   UNL     1       1.641   3.451  17.743  0.00  0.00    +0.000 NA
ATOM     24  N   UNL     1       2.140   2.257  17.263  0.00  0.00    +0.000 NA
ATOM     25  C   UNL     1       3.008   1.809  18.138  0.00  0.00    +0.000 A 
ATOM     26  N   UNL     1       3.109   2.688  19.173  0.00  0.00    +0.000 N 
ATOM     27  C   UNL     1       3.983   2.566  20.308  0.00  0.00    +0.000 C 
ENDBRANCH  21  22
ENDBRANCH  20  21
ENDBRANCH   1  20
TORSDOF 5
ENDMDL
MODEL 5
REMARK VINA RESULT:      -8.0      4.980     10.200
REMARK  Name = 
REMARK  7 active torsions:
REMARK  status: ('A' for Active; 'I' for Inactive)
REMARK    1  A    between atoms: C_1  and  C_2
REMARK    2  A    between atoms: C_2  and  S_3
REMARK    3  A    between atoms: C_2  and  C_10
REMARK    4  A    between atoms: S_3  and  C_4
REMARK    5  A    between atoms: N_8  and  C_9
REMARK    6  A    between atoms: C_14  and  N_15
REMARK    7  A    between atoms: C_17  and  C_18
REMARK                            x       y       z     vdW  Elec       q    Type
REMARK                         _______ _______ _______ _____ _____    ______ ____
ROOT
ATOM      1  C   UNL     1       4.319   4.522  16.751  0.00  0.00    +0.000 A 
ATOM      2  C   UNL     1       3.676   3.274  16.703  0.00  0.00    +0.000 A 
ATOM      3  C   UNL     1       2.565   3.000  17.502  0.00  0.00    +0.000 A 
ATOM      4  C   UNL     1       2.075   3.963  18.378  0.00  0.00    +0.000 A 
ATOM      5  C   UNL     1       2.678   5.225  18.436  0.00  0.00    +0.000 A 
ATOM      6  C   UNL     1       3.778   5.509  17.605  0.00  0.00    +0.000 A 
ENDROOT
BRANCH   5   7
ATOM      7  N   UNL     1       2.217   6.199  19.359  0.00  0.00    +0.000 N 
ATOM      8  C   UNL     1       2.065   7.554  19.161  0.00  0.00    +0.000 A 
ATOM      9  C   UNL     1       1.470   8.015  20.311  0.00  0.00    +0.000 A 
ATOM     10  N   UNL     1       1.324   6.977  21.186  0.00  0.00    +0.000 NA
ATOM     11  N   UNL     1       1.792   5.878  20.606  0.00  0.00    +0.000 NA
BRANCH   9  12
ATOM     12  C   UNL     1       0.976   9.360  20.534  0.00  0.00    +0.000 A 
ATOM     13  C   UNL     1       0.399   9.688  21.769  0.00  0.00    +0.000 A 
ATOM     14  C   UNL     1      -0.171  10.946  21.979  0.00  0.00    +0.000 A 
ATOM     15  C   UNL     1      -0.160  11.894  20.957  0.00  0.00    +0.000 A 
ATOM     16  C   UNL     1       0.435  11.585  19.737  0.00  0.00    +0.000 A 
ATOM     17 CL   UNL     1       0.447  12.753  18.472  0.00  0.00    +0.000 Cl
ATOM     18  C   UNL     1       1.006  10.330  19.521  0.00  0.00    +0.000 A 
ENDBRANCH   9  12
ENDBRANCH   5   7
BRANCH   1  20
ATOM     19  C   UNL     1       5.758   3.935  14.706  0.00  0.00    +0.000 C 
ATOM     20  C   UNL     1       5.592   4.826  15.947  0.00  0.00    +0.000 C 
BRANCH  20  21
ATOM     21  S   UNL     1       7.057   4.620  17.055  0.00  0.00    +0.000 S 
BRANCH  21  22
ATOM     22  C   UNL     1       7.443   6.245  17.480  0.00  0.00    +0.000 A 
ATOM     23  N   UNL     1       7.351   7.316  16.726  0.00  0.00    +0.000 NA
ATOM     24  N   UNL     1       7.886   8.372  17.437  0.00  0.00    +0.000 NA
ATOM     25  C   UNL     1       8.263   7.912  18.606  0.00  0.00    +0.000 A 
ATOM     26  N   UNL     1       7.973   6.584  18.690  0.00  0.00    +0.000 N 
ATOM     27  C   UNL     1       8.202   5.736  19.829  0.00  0.00    +0.000 C 
ENDBRANCH  21  22
ENDBRANCH  20  21
ENDBRANCH   1  20
TORSDOF 5
ENDMDL
MODEL 6
REMARK VINA RESULT:      -8.0      3.841      6.051
REMARK  Name = 
REMARK  7 active torsions:
REMARK  status: ('A' for Active; 'I' for Inactive)
REMARK    1  A    between atoms: C_1  and  C_2
REMARK    2  A    between atoms: C_2  and  S_3
REMARK    3  A    between atoms: C_2  and  C_10
REMARK    4  A    between atoms: S_3  and  C_4
REMARK    5  A    between atoms: N_8  and  C_9
REMARK    6  A    between atoms: C_14  and  N_15
REMARK    7  A    between atoms: C_17  and  C_18
REMARK                            x       y       z     vdW  Elec       q    Type
REMARK                         _______ _______ _______ _____ _____    ______ ____
ROOT
ATOM      1  C   UNL     1       2.200   6.610  20.050  0.00  0.00    +0.000 A 
ATOM      2  C   UNL     1       1.495   5.519  20.583  0.00  0.00    +0.000 A 
ATOM      3  C   UNL     1       1.851   4.205  20.274  0.00  0.00    +0.000 A 
ATOM      4  C   UNL     1       2.914   3.949  19.414  0.00  0.00    +0.000 A 
ATOM      5  C   UNL     1       3.652   5.012  18.882  0.00  0.00    +0.000 A 
ATOM      6  C   UNL     1       3.312   6.334  19.222  0.00  0.00    +0.000 A 
ENDROOT
BRANCH   5   7
ATOM      7  N   UNL     1       4.708   4.765  17.967  0.00  0.00    +0.000 N 
ATOM      8  C   UNL     1       4.619   4.481  16.621  0.00  0.00    +0.000 A 
ATOM      9  C   UNL     1       5.919   4.460  16.177  0.00  0.00    +0.000 A 
ATOM     10  N   UNL     1       6.756   4.668  17.235  0.00  0.00    +0.000 NA
ATOM     11  N   UNL     1       6.015   4.841  18.323  0.00  0.00    +0.000 NA
BRANCH   9  12
ATOM     12  C   UNL     1       6.345   4.340  14.797  0.00  0.00    +0.000 A 
ATOM     13  C   UNL     1       7.406   5.129  14.331  0.00  0.00    +0.000 A 
ATOM     14  C   UNL     1       7.776   5.105  12.983  0.00  0.00    +0.000 A 
ATOM     15  C   UNL     1       7.093   4.282  12.089  0.00  0.00    +0.000 A 
ATOM     16  C   UNL     1       6.056   3.475  12.550  0.00  0.00    +0.000 A 
ATOM     17 CL   UNL     1       5.209   2.459  11.447  0.00  0.00    +0.000 Cl
ATOM     18  C   UNL     1       5.682   3.495  13.894  0.00  0.00    +0.000 A 
ENDBRANCH   9  12
ENDBRANCH   5   7
BRANCH   1  20
ATOM     19  C   UNL     1       0.486   8.196  21.119  0.00  0.00    +0.000 C 
ATOM     20  C   UNL     1       1.783   8.066  20.304  0.00  0.00    +0.000 C 
BRANCH  20  21
ATOM     21  S   UNL     1       1.578   8.918  18.677  0.00  0.00    +0.000 S 
BRANCH  21  22
ATOM     22  C   UNL     1       0.785  10.384  19.113  0.00  0.00    +0.000 A 
ATOM     23  N   UNL     1       1.191  11.294  19.969  0.00  0.00    +0.000 NA
ATOM     24  N   UNL     1       0.182  12.227  20.093  0.00  0.00    +0.000 NA
ATOM     25  C   UNL     1      -0.793  11.867  19.294  0.00  0.00    +0.000 A 
ATOM     26  N   UNL     1      -0.443  10.729  18.631  0.00  0.00    +0.000 N 
ATOM     27  C   UNL     1      -1.233  10.047  17.641  0.00  0.00    +0.000 C 
ENDBRANCH  21  22
ENDBRANCH  20  21
ENDBRANCH   1  20
TORSDOF 5
ENDMDL
MODEL 7
REMARK VINA RESULT:      -8.0      3.534      5.577
REMARK  Name = 
REMARK  7 active torsions:
REMARK  status: ('A' for Active; 'I' for Inactive)
REMARK    1  A    between atoms: C_1  and  C_2
REMARK    2  A    between atoms: C_2  and  S_3
REMARK    3  A    between atoms: C_2  and  C_10
REMARK    4  A    between atoms: S_3  and  C_4
REMARK    5  A    between atoms: N_8  and  C_9
REMARK    6  A    between atoms: C_14  and  N_15
REMARK    7  A    between atoms: C_17  and  C_18
REMARK                            x       y       z     vdW  Elec       q    Type
REMARK                         _______ _______ _______ _____ _____    ______ ____
ROOT
ATOM      1  C   UNL     1       1.965   6.921  20.092  0.00  0.00    +0.000 A 
ATOM      2  C   UNL     1       1.472   5.665  20.485  0.00  0.00    +0.000 A 
ATOM      3  C   UNL     1       1.932   4.488  19.893  0.00  0.00    +0.000 A 
ATOM      4  C   UNL     1       2.887   4.537  18.883  0.00  0.00    +0.000 A 
ATOM      5  C   UNL     1       3.415   5.769  18.481  0.00  0.00    +0.000 A 
ATOM      6  C   UNL     1       2.974   6.952  19.104  0.00  0.00    +0.000 A 
ENDROOT
BRANCH   5   7
ATOM      7  N   UNL     1       4.355   5.835  17.420  0.00  0.00    +0.000 N 
ATOM      8  C   UNL     1       4.696   4.847  16.523  0.00  0.00    +0.000 A 
ATOM      9  C   UNL     1       5.543   5.457  15.629  0.00  0.00    +0.000 A 
ATOM     10  N   UNL     1       5.743   6.751  16.015  0.00  0.00    +0.000 NA
ATOM     11  N   UNL     1       5.028   6.972  17.111  0.00  0.00    +0.000 NA
BRANCH   9  12
ATOM     12  C   UNL     1       6.065   4.867  14.412  0.00  0.00    +0.000 A 
ATOM     13  C   UNL     1       7.344   5.226  13.964  0.00  0.00    +0.000 A 
ATOM     14  C   UNL     1       7.835   4.748  12.746  0.00  0.00    +0.000 A 
ATOM     15  C   UNL     1       7.053   3.895  11.968  0.00  0.00    +0.000 A 
ATOM     16  C   UNL     1       5.792   3.513  12.419  0.00  0.00    +0.000 A 
ATOM     17 CL   UNL     1       4.824   2.462  11.459  0.00  0.00    +0.000 Cl
ATOM     18  C   UNL     1       5.298   3.987  13.634  0.00  0.00    +0.000 A 
ENDBRANCH   9  12
ENDBRANCH   5   7
BRANCH   1  20
ATOM     19  C   UNL     1       0.118   8.063  21.464  0.00  0.00    +0.000 C 
ATOM     20  C   UNL     1       1.420   8.237  20.665  0.00  0.00    +0.000 C 
BRANCH  20  21
ATOM     21  S   UNL     1       1.137   9.419  19.273  0.00  0.00    +0.000 S 
BRANCH  21  22
ATOM     22  C   UNL     1       0.753  10.886  20.092  0.00  0.00    +0.000 A 
ATOM     23  N   UNL     1       1.259  11.334  21.219  0.00  0.00    +0.000 NA
ATOM     24  N   UNL     1       0.567  12.478  21.559  0.00  0.00    +0.000 NA
ATOM     25  C   UNL     1      -0.321  12.700  20.619  0.00  0.00    +0.000 A 
ATOM     26  N   UNL     1      -0.217  11.741  19.657  0.00  0.00    +0.000 N 
ATOM     27  C   UNL     1      -0.993  11.664  18.449  0.00  0.00    +0.000 C 
ENDBRANCH  21  22
ENDBRANCH  20  21
ENDBRANCH   1  20
TORSDOF 5
ENDMDL
MODEL 8
REMARK VINA RESULT:      -8.0      7.573      9.944
REMARK  Name = 
REMARK  7 active torsions:
REMARK  status: ('A' for Active; 'I' for Inactive)
REMARK    1  A    between atoms: C_1  and  C_2
REMARK    2  A    between atoms: C_2  and  S_3
REMARK    3  A    between atoms: C_2  and  C_10
REMARK    4  A    between atoms: S_3  and  C_4
REMARK    5  A    between atoms: N_8  and  C_9
REMARK    6  A    between atoms: C_14  and  N_15
REMARK    7  A    between atoms: C_17  and  C_18
REMARK                            x       y       z     vdW  Elec       q    Type
REMARK                         _______ _______ _______ _____ _____    ______ ____
ROOT
ATOM      1  C   UNL     1       4.235   5.248  17.374  0.00  0.00    +0.000 A 
ATOM      2  C   UNL     1       4.673   4.307  16.426  0.00  0.00    +0.000 A 
ATOM      3  C   UNL     1       5.981   4.321  15.941  0.00  0.00    +0.000 A 
ATOM      4  C   UNL     1       6.883   5.283  16.382  0.00  0.00    +0.000 A 
ATOM      5  C   UNL     1       6.488   6.222  17.342  0.00  0.00    +0.000 A 
ATOM      6  C   UNL     1       5.178   6.185  17.854  0.00  0.00    +0.000 A 
ENDROOT
BRANCH   5   7
ATOM      7  N   UNL     1       7.385   7.237  17.764  0.00  0.00    +0.000 N 
ATOM      8  C   UNL     1       7.543   8.504  17.244  0.00  0.00    +0.000 A 
ATOM      9  C   UNL     1       8.434   9.124  18.086  0.00  0.00    +0.000 A 
ATOM     10  N   UNL     1       8.836   8.237  19.043  0.00  0.00    +0.000 NA
ATOM     11  N   UNL     1       8.204   7.088  18.835  0.00  0.00    +0.000 NA
BRANCH   9  12
ATOM     12  C   UNL     1       8.816  10.521  18.041  0.00  0.00    +0.000 A 
ATOM     13  C   UNL     1      10.119  10.893  18.402  0.00  0.00    +0.000 A 
ATOM     14  C   UNL     1      10.488  12.239  18.461  0.00  0.00    +0.000 A 
ATOM     15  C   UNL     1       9.557  13.229  18.148  0.00  0.00    +0.000 A 
ATOM     16  C   UNL     1       8.269  12.867  17.763  0.00  0.00    +0.000 A 
ATOM     17 CL   UNL     1       7.117  14.088  17.380  0.00  0.00    +0.000 Cl
ATOM     18  C   UNL     1       7.896  11.524  17.703  0.00  0.00    +0.000 A 
ENDBRANCH   9  12
ENDBRANCH   5   7
BRANCH   1  20
ATOM     19  C   UNL     1       2.639   5.890  19.280  0.00  0.00    +0.000 C 
ATOM     20  C   UNL     1       2.781   5.310  17.864  0.00  0.00    +0.000 C 
BRANCH  20  21
ATOM     21  S   UNL     1       2.065   3.608  17.818  0.00  0.00    +0.000 S 
BRANCH  21  22
ATOM     22  C   UNL     1       1.967   3.192  19.487  0.00  0.00    +0.000 A 
ATOM     23  N   UNL     1       0.925   3.292  20.281  0.00  0.00    +0.000 NA
ATOM     24  N   UNL     1       1.341   2.967  21.556  0.00  0.00    +0.000 NA
ATOM     25  C   UNL     1       2.614   2.658  21.491  0.00  0.00    +0.000 A 
ATOM     26  N   UNL     1       3.043   2.753  20.202  0.00  0.00    +0.000 N 
ATOM     27  C   UNL     1       4.367   2.458  19.724  0.00  0.00    +0.000 C 
ENDBRANCH  21  22
ENDBRANCH  20  21
ENDBRANCH   1  20
TORSDOF 5
ENDMDL
MODEL 9
REMARK VINA RESULT:      -7.9      4.839     10.918
REMARK  Name = 
REMARK  7 active torsions:
REMARK  status: ('A' for Active; 'I' for Inactive)
REMARK    1  A    between atoms: C_1  and  C_2
REMARK    2  A    between atoms: C_2  and  S_3
REMARK    3  A    between atoms: C_2  and  C_10
REMARK    4  A    between atoms: S_3  and  C_4
REMARK    5  A    between atoms: N_8  and  C_9
REMARK    6  A    between atoms: C_14  and  N_15
REMARK    7  A    between atoms: C_17  and  C_18
REMARK                            x       y       z     vdW  Elec       q    Type
REMARK                         _______ _______ _______ _____ _____    ______ ____
ROOT
ATOM      1  C   UNL     1       4.384   5.420  17.692  0.00  0.00    +0.000 A 
ATOM      2  C   UNL     1       4.186   4.144  18.246  0.00  0.00    +0.000 A 
ATOM      3  C   UNL     1       3.270   3.936  19.278  0.00  0.00    +0.000 A 
ATOM      4  C   UNL     1       2.536   5.001  19.791  0.00  0.00    +0.000 A 
ATOM      5  C   UNL     1       2.692   6.281  19.248  0.00  0.00    +0.000 A 
ATOM      6  C   UNL     1       3.593   6.481  18.185  0.00  0.00    +0.000 A 
ENDROOT
BRANCH   5   7
ATOM      7  N   UNL     1       1.984   7.383  19.794  0.00  0.00    +0.000 N 
ATOM      8  C   UNL     1       1.708   8.595  19.200  0.00  0.00    +0.000 A 
ATOM      9  C   UNL     1       0.893   9.249  20.093  0.00  0.00    +0.000 A 
ATOM     10  N   UNL     1       0.736   8.474  21.205  0.00  0.00    +0.000 NA
ATOM     11  N   UNL     1       1.412   7.345  21.023  0.00  0.00    +0.000 NA
BRANCH   9  12
ATOM     12  C   UNL     1       0.218  10.511  19.863  0.00  0.00    +0.000 A 
ATOM     13  C   UNL     1       0.831  11.706  20.265  0.00  0.00    +0.000 A 
ATOM     14  C   UNL     1       0.164  12.927  20.143  0.00  0.00    +0.000 A 
ATOM     15  C   UNL     1      -1.123  12.967  19.607  0.00  0.00    +0.000 A 
ATOM     16  C   UNL     1      -1.728  11.787  19.181  0.00  0.00    +0.000 A 
ATOM     17 CL   UNL     1      -3.317  11.833  18.521  0.00  0.00    +0.000 Cl
ATOM     18  C   UNL     1      -1.066  10.565  19.300  0.00  0.00    +0.000 A 
ENDBRANCH   9  12
ENDBRANCH   5   7
BRANCH   1  20
ATOM     19  C   UNL     1       5.059   6.835  15.658  0.00  0.00    +0.000 C 
ATOM     20  C   UNL     1       5.443   5.696  16.615  0.00  0.00    +0.000 C 
BRANCH  20  21
ATOM     21  S   UNL     1       5.726   4.147  15.648  0.00  0.00    +0.000 S 
BRANCH  21  22
ATOM     22  C   UNL     1       6.824   4.658  14.423  0.00  0.00    +0.000 A 
ATOM     23  N   UNL     1       7.830   5.494  14.543  0.00  0.00    +0.000 NA
ATOM     24  N   UNL     1       8.348   5.704  13.281  0.00  0.00    +0.000 NA
ATOM     25  C   UNL     1       7.656   4.972  12.440  0.00  0.00    +0.000 A 
ATOM     26  N   UNL     1       6.707   4.271  13.120  0.00  0.00    +0.000 N 
ATOM     27  C   UNL     1       5.777   3.332  12.552  0.00  0.00    +0.000 C 
ENDBRANCH  21  22
ENDBRANCH  20  21
ENDBRANCH   1  20
TORSDOF 5
ENDMDL
