MODEL 1
REMARK VINA RESULT:      -8.2      0.000      0.000
REMARK  Name = 
REMARK  8 active torsions:
REMARK  status: ('A' for Active; 'I' for Inactive)
REMARK    1  A    between atoms: C_1  and  C_2
REMARK    2  A    between atoms: C_4  and  C_5
REMARK    3  A    between atoms: N_7  and  C_8
REMARK    4  A    between atoms: C_12  and  C_13
REMARK    5  A    between atoms: C_13  and  C_14
REMARK    6  A    between atoms: C_14  and  C_15
REMARK    7  A    between atoms: N_19  and  C_20
REMARK    8  A    between atoms: C_27  and  C_28
REMARK                            x       y       z     vdW  Elec       q    Type
REMARK                         _______ _______ _______ _____ _____    ______ ____
ROOT
ATOM      1  C   UNL     1       1.368   8.349  20.779  0.00  0.00    +0.000 A 
ATOM      2  C   UNL     1       1.041   8.390  22.132  0.00  0.00    +0.000 A 
ATOM      3  C   UNL     1       0.166   9.346  22.637  0.00  0.00    +0.000 A 
ATOM      4  C   UNL     1      -0.421  10.285  21.798  0.00  0.00    +0.000 A 
ATOM      5  C   UNL     1      -0.137  10.279  20.424  0.00  0.00    +0.000 A 
ATOM      6  C   UNL     1       0.794   9.318  19.934  0.00  0.00    +0.000 A 
ENDROOT
BRANCH   5   7
ATOM      7  C   UNL     1      -0.815  11.323  19.507  0.00  0.00    +0.000 C 
ATOM      8  C   UNL     1      -1.618  10.655  18.384  0.00  0.00    +0.000 C 
ATOM      9  C   UNL     1      -2.751  11.600  18.064  0.00  0.00    +0.000 C 
ATOM     10  O   UNL     1      -3.016  12.354  19.243  0.00  0.00    +0.000 OA
ATOM     11  C   UNL     1      -1.971  12.110  20.197  0.00  0.00    +0.000 C 
BRANCH   7  12
ATOM     12  C   UNL     1       0.245  12.371  19.037  0.00  0.00    +0.000 C 
BRANCH  12  13
ATOM     13  C   UNL     1       0.734  13.307  20.098  0.00  0.00    +0.000 A 
ATOM     14  N   UNL     1       1.595  13.030  21.057  0.00  0.00    +0.000 NA
ATOM     15  N   UNL     1       1.716  14.133  21.867  0.00  0.00    +0.000 NA
ATOM     16  C   UNL     1       0.953  15.076  21.369  0.00  0.00    +0.000 A 
ATOM     17  N   UNL     1       0.378  14.630  20.219  0.00  0.00    +0.000 N 
ATOM     18  C   UNL     1      -0.382  15.431  19.298  0.00  0.00    +0.000 C 
ENDBRANCH  12  13
ENDBRANCH   7  12
ENDBRANCH   5   7
BRANCH   1  21
ATOM     19  C   UNL     1       2.076   5.987  20.305  0.00  0.00    +0.000 C 
ATOM     20  O   UNL     1       1.084   5.412  20.728  0.00  0.00    +0.000 OA
ATOM     21  N   UNL     1       2.271   7.373  20.258  0.00  0.00    +0.000 N 
ATOM     22  H   UNL     1       3.100   7.694  19.770  0.00  0.00    +0.000 HD
BRANCH  19  26
ATOM     23  C   UNL     1       3.913   1.578  18.840  0.00  0.00    +0.000 C 
ATOM     24  C   UNL     1       4.009   3.052  19.090  0.00  0.00    +0.000 A 
ATOM     25  C   UNL     1       2.978   3.777  19.632  0.00  0.00    +0.000 A 
ATOM     26  C   UNL     1       3.188   5.141  19.742  0.00  0.00    +0.000 A 
ATOM     27  N   UNL     1       4.320   5.773  19.347  0.00  0.00    +0.000 NA
ATOM     28  C   UNL     1       5.273   4.983  18.813  0.00  0.00    +0.000 A 
ATOM     29  N   UNL     1       5.147   3.643  18.692  0.00  0.00    +0.000 NA
BRANCH  28  30
ATOM     30  C   UNL     1       6.555   5.558  18.264  0.00  0.00    +0.000 C 
ATOM     31  C   UNL     1       7.754   5.648  19.189  0.00  0.00    +0.000 C 
ATOM     32  C   UNL     1       7.795   4.747  17.992  0.00  0.00    +0.000 C 
ENDBRANCH  28  30
ENDBRANCH  19  26
ENDBRANCH   1  21
TORSDOF 6
ENDMDL
MODEL 2
REMARK VINA RESULT:      -8.1      2.526      9.583
REMARK  Name = 
REMARK  8 active torsions:
REMARK  status: ('A' for Active; 'I' for Inactive)
REMARK    1  A    between atoms: C_1  and  C_2
REMARK    2  A    between atoms: C_4  and  C_5
REMARK    3  A    between atoms: N_7  and  C_8
REMARK    4  A    between atoms: C_12  and  C_13
REMARK    5  A    between atoms: C_13  and  C_14
REMARK    6  A    between atoms: C_14  and  C_15
REMARK    7  A    between atoms: N_19  and  C_20
REMARK    8  A    between atoms: C_27  and  C_28
REMARK                            x       y       z     vdW  Elec       q    Type
REMARK                         _______ _______ _______ _____ _____    ______ ____
ROOT
ATOM      1  C   UNL     1       2.139   7.479  19.149  0.00  0.00    +0.000 A 
ATOM      2  C   UNL     1       1.979   6.856  20.384  0.00  0.00    +0.000 A 
ATOM      3  C   UNL     1       2.655   5.681  20.695  0.00  0.00    +0.000 A 
ATOM      4  C   UNL     1       3.526   5.100  19.782  0.00  0.00    +0.000 A 
ATOM      5  C   UNL     1       3.736   5.695  18.530  0.00  0.00    +0.000 A 
ATOM      6  C   UNL     1       3.002   6.875  18.214  0.00  0.00    +0.000 A 
ENDROOT
BRANCH   5   7
ATOM      7  C   UNL     1       4.723   5.040  17.536  0.00  0.00    +0.000 C 
ATOM      8  C   UNL     1       5.442   6.087  16.678  0.00  0.00    +0.000 C 
ATOM      9  C   UNL     1       6.793   5.497  16.346  0.00  0.00    +0.000 C 
ATOM     10  O   UNL     1       7.121   4.584  17.389  0.00  0.00    +0.000 OA
ATOM     11  C   UNL     1       5.965   4.391  18.219  0.00  0.00    +0.000 C 
BRANCH   7  12
ATOM     12  C   UNL     1       3.990   3.913  16.739  0.00  0.00    +0.000 C 
BRANCH  12  13
ATOM     13  C   UNL     1       2.782   3.337  17.408  0.00  0.00    +0.000 A 
ATOM     14  N   UNL     1       1.539   3.766  17.297  0.00  0.00    +0.000 NA
ATOM     15  N   UNL     1       0.743   3.018  18.130  0.00  0.00    +0.000 NA
ATOM     16  C   UNL     1       1.506   2.123  18.710  0.00  0.00    +0.000 A 
ATOM     17  N   UNL     1       2.776   2.235  18.231  0.00  0.00    +0.000 N 
ATOM     18  C   UNL     1       3.853   1.321  18.496  0.00  0.00    +0.000 C 
ENDBRANCH  12  13
ENDBRANCH   7  12
ENDBRANCH   5   7
BRANCH   1  21
ATOM     19  C   UNL     1       0.990   9.629  19.751  0.00  0.00    +0.000 C 
ATOM     20  O   UNL     1       1.184   9.607  20.958  0.00  0.00    +0.000 OA
ATOM     21  N   UNL     1       1.441   8.682  18.823  0.00  0.00    +0.000 N 
ATOM     22  H   UNL     1       1.296   8.906  17.845  0.00  0.00    +0.000 HD
BRANCH  19  26
ATOM     23  C   UNL     1       0.549  14.507  18.765  0.00  0.00    +0.000 C 
ATOM     24  C   UNL     1       0.058  13.092  18.767  0.00  0.00    +0.000 A 
ATOM     25  C   UNL     1       0.777  12.062  19.319  0.00  0.00    +0.000 A 
ATOM     26  C   UNL     1       0.226  10.799  19.187  0.00  0.00    +0.000 A 
ATOM     27  N   UNL     1      -0.944  10.539  18.554  0.00  0.00    +0.000 NA
ATOM     28  C   UNL     1      -1.575  11.610  18.030  0.00  0.00    +0.000 A 
ATOM     29  N   UNL     1      -1.108  12.874  18.138  0.00  0.00    +0.000 NA
BRANCH  28  30
ATOM     30  C   UNL     1      -2.849  11.462  17.237  0.00  0.00    +0.000 C 
ATOM     31  C   UNL     1      -2.753  10.923  15.822  0.00  0.00    +0.000 C 
ATOM     32  C   UNL     1      -3.471  10.139  16.878  0.00  0.00    +0.000 C 
ENDBRANCH  28  30
ENDBRANCH  19  26
ENDBRANCH   1  21
TORSDOF 6
ENDMDL
MODEL 3
REMARK VINA RESULT:      -8.1      2.791      8.800
REMARK  Name = 
REMARK  8 active torsions:
REMARK  status: ('A' for Active; 'I' for Inactive)
REMARK    1  A    between atoms: C_1  and  C_2
REMARK    2  A    between atoms: C_4  and  C_5
REMARK    3  A    between atoms: N_7  and  C_8
REMARK    4  A    between atoms: C_12  and  C_13
REMARK    5  A    between atoms: C_13  and  C_14
REMARK    6  A    between atoms: C_14  and  C_15
REMARK    7  A    between atoms: N_19  and  C_20
REMARK    8  A    between atoms: C_27  and  C_28
REMARK                            x       y       z     vdW  Elec       q    Type
REMARK                         _______ _______ _______ _____ _____    ______ ____
ROOT
ATOM      1  C   UNL     1       2.606   5.893  18.205  0.00  0.00    +0.000 A 
ATOM      2  C   UNL     1       1.961   4.675  18.402  0.00  0.00    +0.000 A 
ATOM      3  C   UNL     1       2.471   3.492  17.878  0.00  0.00    +0.000 A 
ATOM      4  C   UNL     1       3.654   3.491  17.149  0.00  0.00    +0.000 A 
ATOM      5  C   UNL     1       4.352   4.688  16.934  0.00  0.00    +0.000 A 
ATOM      6  C   UNL     1       3.791   5.894  17.444  0.00  0.00    +0.000 A 
ENDROOT
BRANCH   5   7
ATOM      7  C   UNL     1       5.675   4.660  16.134  0.00  0.00    +0.000 C 
ATOM      8  C   UNL     1       5.714   3.492  15.142  0.00  0.00    +0.000 C 
ATOM      9  C   UNL     1       6.576   3.952  13.990  0.00  0.00    +0.000 C 
ATOM     10  O   UNL     1       6.491   5.374  13.942  0.00  0.00    +0.000 OA
ATOM     11  C   UNL     1       5.826   5.841  15.126  0.00  0.00    +0.000 C 
BRANCH   7  12
ATOM     12  C   UNL     1       6.883   4.736  17.123  0.00  0.00    +0.000 C 
BRANCH  12  13
ATOM     13  C   UNL     1       7.328   6.118  17.486  0.00  0.00    +0.000 A 
ATOM     14  N   UNL     1       7.204   7.205  16.749  0.00  0.00    +0.000 NA
ATOM     15  N   UNL     1       7.808   8.249  17.407  0.00  0.00    +0.000 NA
ATOM     16  C   UNL     1       8.260   7.790  18.549  0.00  0.00    +0.000 A 
ATOM     17  N   UNL     1       7.916   6.479  18.676  0.00  0.00    +0.000 N 
ATOM     18  C   UNL     1       8.081   5.682  19.860  0.00  0.00    +0.000 C 
ENDBRANCH  12  13
ENDBRANCH   7  12
ENDBRANCH   5   7
BRANCH   1  21
ATOM     19  C   UNL     1       1.733   7.322  20.076  0.00  0.00    +0.000 C 
ATOM     20  O   UNL     1       1.890   6.532  20.996  0.00  0.00    +0.000 OA
ATOM     21  N   UNL     1       2.082   7.111  18.737  0.00  0.00    +0.000 N 
ATOM     22  H   UNL     1       1.994   7.909  18.118  0.00  0.00    +0.000 HD
BRANCH  19  26
ATOM     23  C   UNL     1      -0.807  10.371  23.111  0.00  0.00    +0.000 C 
ATOM     24  C   UNL     1      -0.067  10.050  21.848  0.00  0.00    +0.000 A 
ATOM     25  C   UNL     1       0.426   8.799  21.580  0.00  0.00    +0.000 A 
ATOM     26  C   UNL     1       1.146   8.669  20.405  0.00  0.00    +0.000 A 
ATOM     27  N   UNL     1       1.385   9.686  19.541  0.00  0.00    +0.000 NA
ATOM     28  C   UNL     1       0.875  10.884  19.893  0.00  0.00    +0.000 A 
ATOM     29  N   UNL     1       0.145  11.080  21.013  0.00  0.00    +0.000 NA
BRANCH  28  30
ATOM     30  C   UNL     1       1.123  12.119  19.064  0.00  0.00    +0.000 C 
ATOM     31  C   UNL     1       2.206  13.079  19.517  0.00  0.00    +0.000 C 
ATOM     32  C   UNL     1       2.353  12.338  18.224  0.00  0.00    +0.000 C 
ENDBRANCH  28  30
ENDBRANCH  19  26
ENDBRANCH   1  21
TORSDOF 6
ENDMDL
MODEL 4
REMARK VINA RESULT:      -7.9      2.384      3.484
REMARK  Name = 
REMARK  8 active torsions:
REMARK  status: ('A' for Active; 'I' for Inactive)
REMARK    1  A    between atoms: C_1  and  C_2
REMARK    2  A    between atoms: C_4  and  C_5
REMARK    3  A    between atoms: N_7  and  C_8
REMARK    4  A    between atoms: C_12  and  C_13
REMARK    5  A    between atoms: C_13  and  C_14
REMARK    6  A    between atoms: C_14  and  C_15
REMARK    7  A    between atoms: N_19  and  C_20
REMARK    8  A    between atoms: C_27  and  C_28
REMARK                            x       y       z     vdW  Elec       q    Type
REMARK                         _______ _______ _______ _____ _____    ______ ____
ROOT
ATOM      1  C   UNL     1       0.594   9.037  21.395  0.00  0.00    +0.000 A 
ATOM      2  C   UNL     1       0.024   9.353  22.625  0.00  0.00    +0.000 A 
ATOM      3  C   UNL     1      -0.604  10.576  22.840  0.00  0.00    +0.000 A 
ATOM      4  C   UNL     1      -0.692  11.517  21.821  0.00  0.00    +0.000 A 
ATOM      5  C   UNL     1      -0.147  11.243  20.558  0.00  0.00    +0.000 A 
ATOM      6  C   UNL     1       0.528  10.002  20.372  0.00  0.00    +0.000 A 
ENDROOT
BRANCH   5   7
ATOM      7  C   UNL     1      -0.272  12.298  19.435  0.00  0.00    +0.000 C 
ATOM      8  C   UNL     1      -0.923  13.591  19.940  0.00  0.00    +0.000 C 
ATOM      9  C   UNL     1      -0.346  14.704  19.098  0.00  0.00    +0.000 C 
ATOM     10  O   UNL     1       0.937  14.274  18.654  0.00  0.00    +0.000 OA
ATOM     11  C   UNL     1       1.096  12.881  18.965  0.00  0.00    +0.000 C 
BRANCH   7  12
ATOM     12  C   UNL     1      -0.954  11.652  18.186  0.00  0.00    +0.000 C 
BRANCH  12  13
ATOM     13  C   UNL     1      -2.451  11.656  18.199  0.00  0.00    +0.000 A 
ATOM     14  N   UNL     1      -3.229  12.044  19.191  0.00  0.00    +0.000 NA
ATOM     15  N   UNL     1      -4.536  11.817  18.833  0.00  0.00    +0.000 NA
ATOM     16  C   UNL     1      -4.536  11.326  17.618  0.00  0.00    +0.000 A 
ATOM     17  N   UNL     1      -3.258  11.279  17.151  0.00  0.00    +0.000 N 
ATOM     18  C   UNL     1      -2.871  10.966  15.803  0.00  0.00    +0.000 C 
ENDBRANCH  12  13
ENDBRANCH   7  12
ENDBRANCH   5   7
BRANCH   1  21
ATOM     19  C   UNL     1       1.945   7.435  20.013  0.00  0.00    +0.000 C 
ATOM     20  O   UNL     1       2.165   8.162  19.055  0.00  0.00    +0.000 OA
ATOM     21  N   UNL     1       1.245   7.785  21.174  0.00  0.00    +0.000 N 
ATOM     22  H   UNL     1       1.251   7.104  21.925  0.00  0.00    +0.000 HD
BRANCH  19  26
ATOM     23  C   UNL     1       1.947   2.669  21.514  0.00  0.00    +0.000 C 
ATOM     24  C   UNL     1       2.481   3.824  20.724  0.00  0.00    +0.000 A 
ATOM     25  C   UNL     1       1.953   5.087  20.814  0.00  0.00    +0.000 A 
ATOM     26  C   UNL     1       2.508   6.038  19.974  0.00  0.00    +0.000 A 
ATOM     27  N   UNL     1       3.507   5.787  19.093  0.00  0.00    +0.000 NA
ATOM     28  C   UNL     1       3.953   4.515  19.063  0.00  0.00    +0.000 A 
ATOM     29  N   UNL     1       3.475   3.540  19.867  0.00  0.00    +0.000 NA
BRANCH  28  30
ATOM     30  C   UNL     1       5.011   4.075  18.081  0.00  0.00    +0.000 C 
ATOM     31  C   UNL     1       4.619   3.933  16.623  0.00  0.00    +0.000 C 
ATOM     32  C   UNL     1       5.616   4.973  17.035  0.00  0.00    +0.000 C 
ENDBRANCH  28  30
ENDBRANCH  19  26
ENDBRANCH   1  21
TORSDOF 6
ENDMDL
MODEL 5
REMARK VINA RESULT:      -7.9      0.729      1.205
REMARK  Name = 
REMARK  8 active torsions:
REMARK  status: ('A' for Active; 'I' for Inactive)
REMARK    1  A    between atoms: C_1  and  C_2
REMARK    2  A    between atoms: C_4  and  C_5
REMARK    3  A    between atoms: N_7  and  C_8
REMARK    4  A    between atoms: C_12  and  C_13
REMARK    5  A    between atoms: C_13  and  C_14
REMARK    6  A    between atoms: C_14  and  C_15
REMARK    7  A    between atoms: N_19  and  C_20
REMARK    8  A    between atoms: C_27  and  C_28
REMARK                            x       y       z     vdW  Elec       q    Type
REMARK                         _______ _______ _______ _____ _____    ______ ____
ROOT
ATOM      1  C   UNL     1       1.393   8.425  20.564  0.00  0.00    +0.000 A 
ATOM      2  C   UNL     1       1.237   8.535  21.943  0.00  0.00    +0.000 A 
ATOM      3  C   UNL     1       0.430   9.519  22.505  0.00  0.00    +0.000 A 
ATOM      4  C   UNL     1      -0.260  10.417  21.699  0.00  0.00    +0.000 A 
ATOM      5  C   UNL     1      -0.150  10.341  20.304  0.00  0.00    +0.000 A 
ATOM      6  C   UNL     1       0.715   9.353  19.749  0.00  0.00    +0.000 A 
ENDROOT
BRANCH   5   7
ATOM      7  C   UNL     1      -0.940  11.339  19.426  0.00  0.00    +0.000 C 
ATOM      8  C   UNL     1      -2.047  10.641  18.628  0.00  0.00    +0.000 C 
ATOM      9  C   UNL     1      -3.139  11.667  18.445  0.00  0.00    +0.000 C 
ATOM     10  O   UNL     1      -3.042  12.584  19.532  0.00  0.00    +0.000 OA
ATOM     11  C   UNL     1      -1.820  12.335  20.243  0.00  0.00    +0.000 C 
BRANCH   7  12
ATOM     12  C   UNL     1       0.058  12.192  18.578  0.00  0.00    +0.000 C 
BRANCH  12  13
ATOM     13  C   UNL     1       0.256  13.600  19.046  0.00  0.00    +0.000 A 
ATOM     14  N   UNL     1      -0.448  14.655  18.687  0.00  0.00    +0.000 NA
ATOM     15  N   UNL     1       0.103  15.767  19.277  0.00  0.00    +0.000 NA
ATOM     16  C   UNL     1       1.112  15.368  20.012  0.00  0.00    +0.000 A 
ATOM     17  N   UNL     1       1.199  14.011  19.959  0.00  0.00    +0.000 N 
ATOM     18  C   UNL     1       2.065  13.196  20.767  0.00  0.00    +0.000 C 
ENDBRANCH  12  13
ENDBRANCH   7  12
ENDBRANCH   5   7
BRANCH   1  21
ATOM     19  C   UNL     1       2.105   6.044  20.209  0.00  0.00    +0.000 C 
ATOM     20  O   UNL     1       1.236   5.494  20.870  0.00  0.00    +0.000 OA
ATOM     21  N   UNL     1       2.226   7.421  19.984  0.00  0.00    +0.000 N 
ATOM     22  H   UNL     1       2.935   7.707  19.318  0.00  0.00    +0.000 HD
BRANCH  19  26
ATOM     23  C   UNL     1       3.548   1.653  18.313  0.00  0.00    +0.000 C 
ATOM     24  C   UNL     1       3.766   3.089  18.681  0.00  0.00    +0.000 A 
ATOM     25  C   UNL     1       2.812   3.839  19.320  0.00  0.00    +0.000 A 
ATOM     26  C   UNL     1       3.130   5.169  19.535  0.00  0.00    +0.000 A 
ATOM     27  N   UNL     1       4.294   5.747  19.151  0.00  0.00    +0.000 NA
ATOM     28  C   UNL     1       5.166   4.937  18.517  0.00  0.00    +0.000 A 
ATOM     29  N   UNL     1       4.933   3.625  18.290  0.00  0.00    +0.000 NA
BRANCH  28  30
ATOM     30  C   UNL     1       6.471   5.460  17.969  0.00  0.00    +0.000 C 
ATOM     31  C   UNL     1       7.630   5.640  18.930  0.00  0.00    +0.000 C 
ATOM     32  C   UNL     1       7.719   4.631  17.826  0.00  0.00    +0.000 C 
ENDBRANCH  28  30
ENDBRANCH  19  26
ENDBRANCH   1  21
TORSDOF 6
ENDMDL
MODEL 6
REMARK VINA RESULT:      -7.9      1.705      1.940
REMARK  Name = 
REMARK  8 active torsions:
REMARK  status: ('A' for Active; 'I' for Inactive)
REMARK    1  A    between atoms: C_1  and  C_2
REMARK    2  A    between atoms: C_4  and  C_5
REMARK    3  A    between atoms: N_7  and  C_8
REMARK    4  A    between atoms: C_12  and  C_13
REMARK    5  A    between atoms: C_13  and  C_14
REMARK    6  A    between atoms: C_14  and  C_15
REMARK    7  A    between atoms: N_19  and  C_20
REMARK    8  A    between atoms: C_27  and  C_28
REMARK                            x       y       z     vdW  Elec       q    Type
REMARK                         _______ _______ _______ _____ _____    ______ ____
ROOT
ATOM      1  C   UNL     1       0.972   9.038  20.209  0.00  0.00    +0.000 A 
ATOM      2  C   UNL     1       0.993   9.381  21.558  0.00  0.00    +0.000 A 
ATOM      3  C   UNL     1       0.197  10.407  22.058  0.00  0.00    +0.000 A 
ATOM      4  C   UNL     1      -0.658  11.114  21.220  0.00  0.00    +0.000 A 
ATOM      5  C   UNL     1      -0.729  10.799  19.856  0.00  0.00    +0.000 A 
ATOM      6  C   UNL     1       0.126   9.773  19.356  0.00  0.00    +0.000 A 
ENDROOT
BRANCH   5   7
ATOM      7  C   UNL     1      -1.699  11.587  18.946  0.00  0.00    +0.000 C 
ATOM      8  C   UNL     1      -2.562  10.652  18.091  0.00  0.00    +0.000 C 
ATOM      9  C   UNL     1      -3.864  11.381  17.861  0.00  0.00    +0.000 C 
ATOM     10  O   UNL     1      -4.046  12.274  18.955  0.00  0.00    +0.000 OA
ATOM     11  C   UNL     1      -2.835  12.321  19.724  0.00  0.00    +0.000 C 
BRANCH   7  12
ATOM     12  C   UNL     1      -0.904  12.673  18.152  0.00  0.00    +0.000 C 
BRANCH  12  13
ATOM     13  C   UNL     1      -0.007  13.542  18.977  0.00  0.00    +0.000 A 
ATOM     14  N   UNL     1      -0.382  14.453  19.854  0.00  0.00    +0.000 NA
ATOM     15  N   UNL     1       0.741  15.082  20.335  0.00  0.00    +0.000 NA
ATOM     16  C   UNL     1       1.783  14.522  19.770  0.00  0.00    +0.000 A 
ATOM     17  N   UNL     1       1.367  13.502  18.971  0.00  0.00    +0.000 N 
ATOM     18  C   UNL     1       2.223  12.546  18.323  0.00  0.00    +0.000 C 
ENDBRANCH  12  13
ENDBRANCH   7  12
ENDBRANCH   5   7
BRANCH   1  21
ATOM     19  C   UNL     1       2.318   7.943  18.395  0.00  0.00    +0.000 C 
ATOM     20  O   UNL     1       2.216   8.813  17.542  0.00  0.00    +0.000 OA
ATOM     21  N   UNL     1       1.793   7.990  19.692  0.00  0.00    +0.000 N 
ATOM     22  H   UNL     1       2.066   7.238  20.316  0.00  0.00    +0.000 HD
BRANCH  19  26
ATOM     23  C   UNL     1       2.619   3.059  17.386  0.00  0.00    +0.000 C 
ATOM     24  C   UNL     1       3.206   4.420  17.602  0.00  0.00    +0.000 A 
ATOM     25  C   UNL     1       2.443   5.507  17.946  0.00  0.00    +0.000 A 
ATOM     26  C   UNL     1       3.115   6.713  18.046  0.00  0.00    +0.000 A 
ATOM     27  N   UNL     1       4.442   6.867  17.821  0.00  0.00    +0.000 NA
ATOM     28  C   UNL     1       5.110   5.748  17.473  0.00  0.00    +0.000 A 
ATOM     29  N   UNL     1       4.525   4.534  17.376  0.00  0.00    +0.000 NA
BRANCH  28  30
ATOM     30  C   UNL     1       6.576   5.783  17.122  0.00  0.00    +0.000 C 
ATOM     31  C   UNL     1       7.581   5.879  18.253  0.00  0.00    +0.000 C 
ATOM     32  C   UNL     1       7.535   4.654  17.391  0.00  0.00    +0.000 C 
ENDBRANCH  28  30
ENDBRANCH  19  26
ENDBRANCH   1  21
TORSDOF 6
ENDMDL
MODEL 7
REMARK VINA RESULT:      -7.9      2.965      4.509
REMARK  Name = 
REMARK  8 active torsions:
REMARK  status: ('A' for Active; 'I' for Inactive)
REMARK    1  A    between atoms: C_1  and  C_2
REMARK    2  A    between atoms: C_4  and  C_5
REMARK    3  A    between atoms: N_7  and  C_8
REMARK    4  A    between atoms: C_12  and  C_13
REMARK    5  A    between atoms: C_13  and  C_14
REMARK    6  A    between atoms: C_14  and  C_15
REMARK    7  A    between atoms: N_19  and  C_20
REMARK    8  A    between atoms: C_27  and  C_28
REMARK                            x       y       z     vdW  Elec       q    Type
REMARK                         _______ _______ _______ _____ _____    ______ ____
ROOT
ATOM      1  C   UNL     1       1.887   9.757  17.997  0.00  0.00    +0.000 A 
ATOM      2  C   UNL     1       2.687  10.886  17.849  0.00  0.00    +0.000 A 
ATOM      3  C   UNL     1       2.232  12.149  18.211  0.00  0.00    +0.000 A 
ATOM      4  C   UNL     1       0.961  12.319  18.747  0.00  0.00    +0.000 A 
ATOM      5  C   UNL     1       0.119  11.213  18.931  0.00  0.00    +0.000 A 
ATOM      6  C   UNL     1       0.589   9.933  18.515  0.00  0.00    +0.000 A 
ENDROOT
BRANCH   5   7
ATOM      7  C   UNL     1      -1.284  11.423  19.545  0.00  0.00    +0.000 C 
ATOM      8  C   UNL     1      -1.225  11.535  21.072  0.00  0.00    +0.000 C 
ATOM      9  C   UNL     1      -2.376  12.427  21.470  0.00  0.00    +0.000 C 
ATOM     10  O   UNL     1      -2.652  13.278  20.361  0.00  0.00    +0.000 OA
ATOM     11  C   UNL     1      -1.909  12.816  19.223  0.00  0.00    +0.000 C 
BRANCH   7  12
ATOM     12  C   UNL     1      -2.263  10.337  18.993  0.00  0.00    +0.000 C 
BRANCH  12  13
ATOM     13  C   UNL     1      -2.868  10.638  17.657  0.00  0.00    +0.000 A 
ATOM     14  N   UNL     1      -2.288  10.501  16.481  0.00  0.00    +0.000 NA
ATOM     15  N   UNL     1      -3.150  10.959  15.514  0.00  0.00    +0.000 NA
ATOM     16  C   UNL     1      -4.253  11.336  16.113  0.00  0.00    +0.000 A 
ATOM     17  N   UNL     1      -4.152  11.083  17.446  0.00  0.00    +0.000 N 
ATOM     18  C   UNL     1      -5.219  11.197  18.402  0.00  0.00    +0.000 C 
ENDBRANCH  12  13
ENDBRANCH   7  12
ENDBRANCH   5   7
BRANCH   1  21
ATOM     19  C   UNL     1       2.619   7.410  18.507  0.00  0.00    +0.000 C 
ATOM     20  O   UNL     1       2.435   7.421  19.715  0.00  0.00    +0.000 OA
ATOM     21  N   UNL     1       2.349   8.459  17.620  0.00  0.00    +0.000 N 
ATOM     22  H   UNL     1       2.448   8.250  16.632  0.00  0.00    +0.000 HD
BRANCH  19  26
ATOM     23  C   UNL     1       6.105   4.910  15.946  0.00  0.00    +0.000 C 
ATOM     24  C   UNL     1       4.799   5.022  16.671  0.00  0.00    +0.000 A 
ATOM     25  C   UNL     1       4.343   6.206  17.190  0.00  0.00    +0.000 A 
ATOM     26  C   UNL     1       3.151   6.142  17.892  0.00  0.00    +0.000 A 
ATOM     27  N   UNL     1       2.443   5.003  18.090  0.00  0.00    +0.000 NA
ATOM     28  C   UNL     1       2.975   3.884  17.556  0.00  0.00    +0.000 A 
ATOM     29  N   UNL     1       4.122   3.875  16.842  0.00  0.00    +0.000 NA
BRANCH  28  30
ATOM     30  C   UNL     1       2.334   2.534  17.758  0.00  0.00    +0.000 C 
ATOM     31  C   UNL     1       2.534   1.839  19.092  0.00  0.00    +0.000 C 
ATOM     32  C   UNL     1       1.165   2.284  18.674  0.00  0.00    +0.000 C 
ENDBRANCH  28  30
ENDBRANCH  19  26
ENDBRANCH   1  21
TORSDOF 6
ENDMDL
MODEL 8
REMARK VINA RESULT:      -7.9      1.613      2.604
REMARK  Name = 
REMARK  8 active torsions:
REMARK  status: ('A' for Active; 'I' for Inactive)
REMARK    1  A    between atoms: C_1  and  C_2
REMARK    2  A    between atoms: C_4  and  C_5
REMARK    3  A    between atoms: N_7  and  C_8
REMARK    4  A    between atoms: C_12  and  C_13
REMARK    5  A    between atoms: C_13  and  C_14
REMARK    6  A    between atoms: C_14  and  C_15
REMARK    7  A    between atoms: N_19  and  C_20
REMARK    8  A    between atoms: C_27  and  C_28
REMARK                            x       y       z     vdW  Elec       q    Type
REMARK                         _______ _______ _______ _____ _____    ______ ____
ROOT
ATOM      1  C   UNL     1       1.424   8.332  20.432  0.00  0.00    +0.000 A 
ATOM      2  C   UNL     1       1.391   8.314  21.823  0.00  0.00    +0.000 A 
ATOM      3  C   UNL     1       0.705   9.286  22.545  0.00  0.00    +0.000 A 
ATOM      4  C   UNL     1       0.016  10.300  21.891  0.00  0.00    +0.000 A 
ATOM      5  C   UNL     1       0.003  10.356  20.490  0.00  0.00    +0.000 A 
ATOM      6  C   UNL     1       0.747   9.376  19.771  0.00  0.00    +0.000 A 
ENDROOT
BRANCH   5   7
ATOM      7  C   UNL     1      -0.785  11.483  19.784  0.00  0.00    +0.000 C 
ATOM      8  C   UNL     1      -1.752  10.928  18.732  0.00  0.00    +0.000 C 
ATOM      9  C   UNL     1      -2.905  11.900  18.672  0.00  0.00    +0.000 C 
ATOM     10  O   UNL     1      -2.985  12.538  19.943  0.00  0.00    +0.000 OA
ATOM     11  C   UNL     1      -1.816  12.203  20.707  0.00  0.00    +0.000 C 
BRANCH   7  12
ATOM     12  C   UNL     1       0.211  12.571  19.266  0.00  0.00    +0.000 C 
BRANCH  12  13
ATOM     13  C   UNL     1       0.669  13.561  20.291  0.00  0.00    +0.000 A 
ATOM     14  N   UNL     1       1.513  13.338  21.280  0.00  0.00    +0.000 NA
ATOM     15  N   UNL     1       1.606  14.480  22.039  0.00  0.00    +0.000 NA
ATOM     16  C   UNL     1       0.844  15.389  21.482  0.00  0.00    +0.000 A 
ATOM     17  N   UNL     1       0.297  14.884  20.343  0.00  0.00    +0.000 N 
ATOM     18  C   UNL     1      -0.452  15.632  19.371  0.00  0.00    +0.000 C 
ENDBRANCH  12  13
ENDBRANCH   7  12
ENDBRANCH   5   7
BRANCH   1  21
ATOM     19  C   UNL     1       2.640   7.511  18.395  0.00  0.00    +0.000 C 
ATOM     20  O   UNL     1       2.617   8.544  17.741  0.00  0.00    +0.000 OA
ATOM     21  N   UNL     1       2.133   7.340  19.688  0.00  0.00    +0.000 N 
ATOM     22  H   UNL     1       2.336   6.453  20.137  0.00  0.00    +0.000 HD
BRANCH  19  26
ATOM     23  C   UNL     1       6.478   5.374  16.015  0.00  0.00    +0.000 C 
ATOM     24  C   UNL     1       5.120   5.361  16.646  0.00  0.00    +0.000 A 
ATOM     25  C   UNL     1       4.539   6.488  17.169  0.00  0.00    +0.000 A 
ATOM     26  C   UNL     1       3.309   6.310  17.779  0.00  0.00    +0.000 A 
ATOM     27  N   UNL     1       2.678   5.115  17.888  0.00  0.00    +0.000 NA
ATOM     28  C   UNL     1       3.330   4.060  17.358  0.00  0.00    +0.000 A 
ATOM     29  N   UNL     1       4.522   4.162  16.730  0.00  0.00    +0.000 NA
BRANCH  28  30
ATOM     30  C   UNL     1       2.781   2.660  17.469  0.00  0.00    +0.000 C 
ATOM     31  C   UNL     1       3.332   1.759  18.558  0.00  0.00    +0.000 C 
ATOM     32  C   UNL     1       1.897   2.187  18.593  0.00  0.00    +0.000 C 
ENDBRANCH  28  30
ENDBRANCH  19  26
ENDBRANCH   1  21
TORSDOF 6
ENDMDL
MODEL 9
REMARK VINA RESULT:      -7.9      2.451      3.575
REMARK  Name = 
REMARK  8 active torsions:
REMARK  status: ('A' for Active; 'I' for Inactive)
REMARK    1  A    between atoms: C_1  and  C_2
REMARK    2  A    between atoms: C_4  and  C_5
REMARK    3  A    between atoms: N_7  and  C_8
REMARK    4  A    between atoms: C_12  and  C_13
REMARK    5  A    between atoms: C_13  and  C_14
REMARK    6  A    between atoms: C_14  and  C_15
REMARK    7  A    between atoms: N_19  and  C_20
REMARK    8  A    between atoms: C_27  and  C_28
REMARK                            x       y       z     vdW  Elec       q    Type
REMARK                         _______ _______ _______ _____ _____    ______ ____
ROOT
ATOM      1  C   UNL     1       0.430   9.018  21.600  0.00  0.00    +0.000 A 
ATOM      2  C   UNL     1      -0.007   9.249  22.901  0.00  0.00    +0.000 A 
ATOM      3  C   UNL     1      -0.733  10.388  23.231  0.00  0.00    +0.000 A 
ATOM      4  C   UNL     1      -1.057  11.328  22.259  0.00  0.00    +0.000 A 
ATOM      5  C   UNL     1      -0.655  11.137  20.930  0.00  0.00    +0.000 A 
ATOM      6  C   UNL     1       0.124   9.984  20.622  0.00  0.00    +0.000 A 
ENDROOT
BRANCH   5   7
ATOM      7  C   UNL     1      -1.042  12.187  19.863  0.00  0.00    +0.000 C 
ATOM      8  C   UNL     1      -0.757  13.615  20.343  0.00  0.00    +0.000 C 
ATOM      9  C   UNL     1      -0.448  14.418  19.102  0.00  0.00    +0.000 C 
ATOM     10  O   UNL     1       0.065  13.511  18.130  0.00  0.00    +0.000 OA
ATOM     11  C   UNL     1      -0.126  12.168  18.600  0.00  0.00    +0.000 C 
BRANCH   7  12
ATOM     12  C   UNL     1      -2.504  11.926  19.380  0.00  0.00    +0.000 C 
BRANCH  12  13
ATOM     13  C   UNL     1      -2.630  11.120  18.125  0.00  0.00    +0.000 A 
ATOM     14  N   UNL     1      -1.809  10.174  17.710  0.00  0.00    +0.000 NA
ATOM     15  N   UNL     1      -2.233   9.738  16.478  0.00  0.00    +0.000 NA
ATOM     16  C   UNL     1      -3.323  10.401  16.177  0.00  0.00    +0.000 A 
ATOM     17  N   UNL     1      -3.653  11.222  17.211  0.00  0.00    +0.000 N 
ATOM     18  C   UNL     1      -4.872  11.974  17.326  0.00  0.00    +0.000 C 
ENDBRANCH  12  13
ENDBRANCH   7  12
ENDBRANCH   5   7
BRANCH   1  21
ATOM     19  C   UNL     1       1.822   7.634  20.034  0.00  0.00    +0.000 C 
ATOM     20  O   UNL     1       1.895   8.427  19.106  0.00  0.00    +0.000 OA
ATOM     21  N   UNL     1       1.182   7.852  21.260  0.00  0.00    +0.000 N 
ATOM     22  H   UNL     1       1.312   7.138  21.968  0.00  0.00    +0.000 HD
BRANCH  19  26
ATOM     23  C   UNL     1       2.373   2.811  21.215  0.00  0.00    +0.000 C 
ATOM     24  C   UNL     1       2.746   4.060  20.476  0.00  0.00    +0.000 A 
ATOM     25  C   UNL     1       2.104   5.255  20.677  0.00  0.00    +0.000 A 
ATOM     26  C   UNL     1       2.514   6.306  19.873  0.00  0.00    +0.000 A 
ATOM     27  N   UNL     1       3.479   6.211  18.927  0.00  0.00    +0.000 NA
ATOM     28  C   UNL     1       4.045   4.994  18.790  0.00  0.00    +0.000 A 
ATOM     29  N   UNL     1       3.711   3.929  19.552  0.00  0.00    +0.000 NA
BRANCH  28  30
ATOM     30  C   UNL     1       5.081   4.723  17.728  0.00  0.00    +0.000 C 
ATOM     31  C   UNL     1       4.626   4.084  16.430  0.00  0.00    +0.000 C 
ATOM     32  C   UNL     1       5.175   5.479  16.429  0.00  0.00    +0.000 C 
ENDBRANCH  28  30
ENDBRANCH  19  26
ENDBRANCH   1  21
TORSDOF 6
ENDMDL
