MODEL 1
REMARK VINA RESULT:      -9.3      0.000      0.000
REMARK  Name = 
REMARK  8 active torsions:
REMARK  status: ('A' for Active; 'I' for Inactive)
REMARK    1  A    between atoms: C_1  and  N_2
REMARK    2  A    between atoms: C_6  and  C_7
REMARK    3  A    between atoms: C_7  and  C_8
REMARK    4  A    between atoms: C_8  and  C_9
REMARK    5  A    between atoms: C_13  and  N_14
REMARK    6  A    between atoms: C_19  and  O_20
REMARK    7  A    between atoms: O_20  and  C_21
REMARK    8  A    between atoms: C_25  and  C_26
REMARK                            x       y       z     vdW  Elec       q    Type
REMARK                         _______ _______ _______ _____ _____    ______ ____
ROOT
ATOM      1  N   UNL     1       2.321   7.366  19.363  0.00  0.00    +0.000 N 
ATOM      2  C   UNL     1       1.559   7.723  20.546  0.00  0.00    +0.000 C 
ATOM      3  C   UNL     1       0.983   9.048  20.219  0.00  0.00    +0.000 A 
ATOM      4  C   UNL     1       1.295   9.382  18.904  0.00  0.00    +0.000 A 
ATOM      5  C   UNL     1       0.821  10.550  18.340  0.00  0.00    +0.000 A 
ATOM      6  C   UNL     1       0.014  11.384  19.131  0.00  0.00    +0.000 A 
ATOM      7  C   UNL     1      -0.230  11.070  20.485  0.00  0.00    +0.000 A 
ATOM      8  C   UNL     1       0.249   9.880  21.051  0.00  0.00    +0.000 A 
ATOM      9  C   UNL     1       2.177   8.321  18.349  0.00  0.00    +0.000 C 
ATOM     10  O   UNL     1       2.650   8.356  17.231  0.00  0.00    +0.000 OA
ENDROOT
BRANCH   1  15
ATOM     11  C   UNL     1       5.401   5.284  18.850  0.00  0.00    +0.000 A 
ATOM     12  C   UNL     1       4.917   4.033  19.260  0.00  0.00    +0.000 A 
ATOM     13  C   UNL     1       3.609   3.876  19.744  0.00  0.00    +0.000 A 
ATOM     14  C   UNL     1       2.726   4.963  19.814  0.00  0.00    +0.000 A 
ATOM     15  C   UNL     1       3.153   6.218  19.407  0.00  0.00    +0.000 A 
ATOM     16  C   UNL     1       4.485   6.342  18.965  0.00  0.00    +0.000 A 
BRANCH  11  17
ATOM     17  C   UNL     1       6.889   5.563  18.282  0.00  0.00    +0.000 C 
ATOM     18  C   UNL     1       7.947   5.953  19.348  0.00  0.00    +0.000 C 
ATOM     19  O   UNL     1       8.203   7.228  18.730  0.00  0.00    +0.000 OA
ATOM     20  C   UNL     1       7.195   6.988  17.725  0.00  0.00    +0.000 C 
BRANCH  17  21
ATOM     21  C   UNL     1       7.361   4.428  17.338  0.00  0.00    +0.000 C 
BRANCH  21  27
ATOM     22  C   UNL     1       4.664   3.516  15.950  0.00  0.00    +0.000 C 
ATOM     23  N   UNL     1       5.774   4.196  15.336  0.00  0.00    +0.000 N 
ATOM     24  C   UNL     1       5.840   4.541  14.020  0.00  0.00    +0.000 A 
ATOM     25  N   UNL     1       6.995   5.106  13.773  0.00  0.00    +0.000 NA
ATOM     26  N   UNL     1       7.708   5.124  14.947  0.00  0.00    +0.000 NA
ATOM     27  C   UNL     1       6.961   4.601  15.901  0.00  0.00    +0.000 A 
ENDBRANCH  21  27
ENDBRANCH  17  21
ENDBRANCH  11  17
ENDBRANCH   1  15
BRANCH   8  28
ATOM     28  C   UNL     1      -0.017   9.554  22.501  0.00  0.00    +0.000 C 
ATOM     29  F   UNL     1       1.099   9.243  23.211  0.00  0.00    +0.000 F 
ATOM     30  F   UNL     1      -0.613  10.583  23.160  0.00  0.00    +0.000 F 
ATOM     31  F   UNL     1      -0.846   8.484  22.638  0.00  0.00    +0.000 F 
ENDBRANCH   8  28
BRANCH   6  32
ATOM     32  O   UNL     1      -0.476  12.501  18.511  0.00  0.00    +0.000 OA
BRANCH  32  33
ATOM     33  C   UNL     1      -0.051  13.736  19.078  0.00  0.00    +0.000 C 
ATOM     34  F   UNL     1       1.304  13.762  19.104  0.00  0.00    +0.000 F 
ATOM     35  F   UNL     1      -0.447  14.728  18.243  0.00  0.00    +0.000 F 
ENDBRANCH  32  33
ENDBRANCH   6  32
TORSDOF 7
ENDMDL
MODEL 2
REMARK VINA RESULT:      -9.2      4.326      8.657
REMARK  Name = 
REMARK  8 active torsions:
REMARK  status: ('A' for Active; 'I' for Inactive)
REMARK    1  A    between atoms: C_1  and  N_2
REMARK    2  A    between atoms: C_6  and  C_7
REMARK    3  A    between atoms: C_7  and  C_8
REMARK    4  A    between atoms: C_8  and  C_9
REMARK    5  A    between atoms: C_13  and  N_14
REMARK    6  A    between atoms: C_19  and  O_20
REMARK    7  A    between atoms: O_20  and  C_21
REMARK    8  A    between atoms: C_25  and  C_26
REMARK                            x       y       z     vdW  Elec       q    Type
REMARK                         _______ _______ _______ _____ _____    ______ ____
ROOT
ATOM      1  N   UNL     1       1.501   8.045  20.130  0.00  0.00    +0.000 N 
ATOM      2  C   UNL     1       1.567   6.693  20.653  0.00  0.00    +0.000 C 
ATOM      3  C   UNL     1       2.302   5.938  19.611  0.00  0.00    +0.000 A 
ATOM      4  C   UNL     1       2.727   6.811  18.614  0.00  0.00    +0.000 A 
ATOM      5  C   UNL     1       3.488   6.356  17.555  0.00  0.00    +0.000 A 
ATOM      6  C   UNL     1       3.819   4.992  17.519  0.00  0.00    +0.000 A 
ATOM      7  C   UNL     1       3.316   4.106  18.495  0.00  0.00    +0.000 A 
ATOM      8  C   UNL     1       2.549   4.574  19.572  0.00  0.00    +0.000 A 
ATOM      9  C   UNL     1       2.198   8.166  18.921  0.00  0.00    +0.000 C 
ATOM     10  O   UNL     1       2.369   9.132  18.207  0.00  0.00    +0.000 OA
ENDROOT
BRANCH   1  15
ATOM     11  C   UNL     1      -0.734  11.029  20.559  0.00  0.00    +0.000 A 
ATOM     12  C   UNL     1      -0.802  11.079  21.959  0.00  0.00    +0.000 A 
ATOM     13  C   UNL     1      -0.162  10.120  22.760  0.00  0.00    +0.000 A 
ATOM     14  C   UNL     1       0.592   9.086  22.187  0.00  0.00    +0.000 A 
ATOM     15  C   UNL     1       0.702   9.002  20.807  0.00  0.00    +0.000 A 
ATOM     16  C   UNL     1       0.013   9.960  20.039  0.00  0.00    +0.000 A 
BRANCH  11  17
ATOM     17  C   UNL     1      -1.437  12.085  19.557  0.00  0.00    +0.000 C 
ATOM     18  C   UNL     1      -0.557  12.570  18.375  0.00  0.00    +0.000 C 
ATOM     19  O   UNL     1      -0.631  13.946  18.791  0.00  0.00    +0.000 OA
ATOM     20  C   UNL     1      -1.406  13.593  19.957  0.00  0.00    +0.000 C 
BRANCH  17  21
ATOM     21  C   UNL     1      -2.843  11.604  19.117  0.00  0.00    +0.000 C 
BRANCH  21  27
ATOM     22  C   UNL     1      -5.145  12.072  16.993  0.00  0.00    +0.000 C 
ATOM     23  N   UNL     1      -3.934  11.316  16.814  0.00  0.00    +0.000 N 
ATOM     24  C   UNL     1      -3.596  10.652  15.673  0.00  0.00    +0.000 A 
ATOM     25  N   UNL     1      -2.456  10.032  15.849  0.00  0.00    +0.000 NA
ATOM     26  N   UNL     1      -2.040  10.284  17.134  0.00  0.00    +0.000 NA
ATOM     27  C   UNL     1      -2.917  11.084  17.711  0.00  0.00    +0.000 A 
ENDBRANCH  21  27
ENDBRANCH  17  21
ENDBRANCH  11  17
ENDBRANCH   1  15
BRANCH   8  28
ATOM     28  C   UNL     1       2.014   3.617  20.611  0.00  0.00    +0.000 C 
ATOM     29  F   UNL     1       0.660   3.626  20.725  0.00  0.00    +0.000 F 
ATOM     30  F   UNL     1       2.366   2.329  20.355  0.00  0.00    +0.000 F 
ATOM     31  F   UNL     1       2.487   3.900  21.854  0.00  0.00    +0.000 F 
ENDBRANCH   8  28
BRANCH   6  32
ATOM     32  O   UNL     1       4.619   4.600  16.479  0.00  0.00    +0.000 OA
BRANCH  32  33
ATOM     33  C   UNL     1       5.638   5.528  16.124  0.00  0.00    +0.000 C 
ATOM     34  F   UNL     1       6.840   4.902  16.185  0.00  0.00    +0.000 F 
ATOM     35  F   UNL     1       5.443   5.877  14.830  0.00  0.00    +0.000 F 
ENDBRANCH  32  33
ENDBRANCH   6  32
TORSDOF 7
ENDMDL
MODEL 3
REMARK VINA RESULT:      -9.2      1.074      1.141
REMARK  Name = 
REMARK  8 active torsions:
REMARK  status: ('A' for Active; 'I' for Inactive)
REMARK    1  A    between atoms: C_1  and  N_2
REMARK    2  A    between atoms: C_6  and  C_7
REMARK    3  A    between atoms: C_7  and  C_8
REMARK    4  A    between atoms: C_8  and  C_9
REMARK    5  A    between atoms: C_13  and  N_14
REMARK    6  A    between atoms: C_19  and  O_20
REMARK    7  A    between atoms: O_20  and  C_21
REMARK    8  A    between atoms: C_25  and  C_26
REMARK                            x       y       z     vdW  Elec       q    Type
REMARK                         _______ _______ _______ _____ _____    ______ ____
ROOT
ATOM      1  N   UNL     1       2.350   7.279  19.392  0.00  0.00    +0.000 N 
ATOM      2  C   UNL     1       1.635   7.649  20.599  0.00  0.00    +0.000 C 
ATOM      3  C   UNL     1       1.006   8.948  20.261  0.00  0.00    +0.000 A 
ATOM      4  C   UNL     1       1.247   9.250  18.924  0.00  0.00    +0.000 A 
ATOM      5  C   UNL     1       0.713  10.387  18.350  0.00  0.00    +0.000 A 
ATOM      6  C   UNL     1      -0.080  11.222  19.154  0.00  0.00    +0.000 A 
ATOM      7  C   UNL     1      -0.251  10.943  20.527  0.00  0.00    +0.000 A 
ATOM      8  C   UNL     1       0.288   9.784  21.103  0.00  0.00    +0.000 A 
ATOM      9  C   UNL     1       2.132   8.198  18.358  0.00  0.00    +0.000 C 
ATOM     10  O   UNL     1       2.551   8.213  17.219  0.00  0.00    +0.000 OA
ENDROOT
BRANCH   1  15
ATOM     11  C   UNL     1       5.482   5.284  18.841  0.00  0.00    +0.000 A 
ATOM     12  C   UNL     1       5.041   4.022  19.266  0.00  0.00    +0.000 A 
ATOM     13  C   UNL     1       3.746   3.830  19.772  0.00  0.00    +0.000 A 
ATOM     14  C   UNL     1       2.833   4.891  19.850  0.00  0.00    +0.000 A 
ATOM     15  C   UNL     1       3.217   6.156  19.429  0.00  0.00    +0.000 A 
ATOM     16  C   UNL     1       4.537   6.316  18.964  0.00  0.00    +0.000 A 
BRANCH  11  17
ATOM     17  C   UNL     1       6.951   5.602  18.248  0.00  0.00    +0.000 C 
ATOM     18  C   UNL     1       8.012   6.038  19.292  0.00  0.00    +0.000 C 
ATOM     19  O   UNL     1       8.219   7.313  18.656  0.00  0.00    +0.000 OA
ATOM     20  C   UNL     1       7.204   7.030  17.670  0.00  0.00    +0.000 C 
BRANCH  17  21
ATOM     21  C   UNL     1       7.444   4.472  17.309  0.00  0.00    +0.000 C 
BRANCH  21  27
ATOM     22  C   UNL     1       4.769   3.421  15.980  0.00  0.00    +0.000 C 
ATOM     23  N   UNL     1       5.835   4.145  15.339  0.00  0.00    +0.000 N 
ATOM     24  C   UNL     1       5.861   4.479  14.019  0.00  0.00    +0.000 A 
ATOM     25  N   UNL     1       6.984   5.095  13.745  0.00  0.00    +0.000 NA
ATOM     26  N   UNL     1       7.716   5.158  14.906  0.00  0.00    +0.000 NA
ATOM     27  C   UNL     1       7.012   4.611  15.878  0.00  0.00    +0.000 A 
ENDBRANCH  21  27
ENDBRANCH  17  21
ENDBRANCH  11  17
ENDBRANCH   1  15
BRANCH   8  28
ATOM     28  C   UNL     1       0.099   9.494  22.573  0.00  0.00    +0.000 C 
ATOM     29  F   UNL     1       1.252   9.207  23.232  0.00  0.00    +0.000 F 
ATOM     30  F   UNL     1      -0.467  10.538  23.236  0.00  0.00    +0.000 F 
ATOM     31  F   UNL     1      -0.715   8.425  22.781  0.00  0.00    +0.000 F 
ENDBRANCH   8  28
BRANCH   6  32
ATOM     32  O   UNL     1      -0.630  12.307  18.526  0.00  0.00    +0.000 OA
BRANCH  32  33
ATOM     33  C   UNL     1      -1.945  12.103  18.020  0.00  0.00    +0.000 C 
ATOM     34  F   UNL     1      -1.857  11.685  16.733  0.00  0.00    +0.000 F 
ATOM     35  F   UNL     1      -2.504  11.090  18.724  0.00  0.00    +0.000 F 
ENDBRANCH  32  33
ENDBRANCH   6  32
TORSDOF 7
ENDMDL
MODEL 4
REMARK VINA RESULT:      -9.0      4.334      8.694
REMARK  Name = 
REMARK  8 active torsions:
REMARK  status: ('A' for Active; 'I' for Inactive)
REMARK    1  A    between atoms: C_1  and  N_2
REMARK    2  A    between atoms: C_6  and  C_7
REMARK    3  A    between atoms: C_7  and  C_8
REMARK    4  A    between atoms: C_8  and  C_9
REMARK    5  A    between atoms: C_13  and  N_14
REMARK    6  A    between atoms: C_19  and  O_20
REMARK    7  A    between atoms: O_20  and  C_21
REMARK    8  A    between atoms: C_25  and  C_26
REMARK                            x       y       z     vdW  Elec       q    Type
REMARK                         _______ _______ _______ _____ _____    ______ ____
ROOT
ATOM      1  N   UNL     1       1.536   8.032  20.094  0.00  0.00    +0.000 N 
ATOM      2  C   UNL     1       1.574   6.703  20.675  0.00  0.00    +0.000 C 
ATOM      3  C   UNL     1       2.307   5.893  19.674  0.00  0.00    +0.000 A 
ATOM      4  C   UNL     1       2.756   6.715  18.645  0.00  0.00    +0.000 A 
ATOM      5  C   UNL     1       3.519   6.203  17.613  0.00  0.00    +0.000 A 
ATOM      6  C   UNL     1       3.828   4.834  17.639  0.00  0.00    +0.000 A 
ATOM      7  C   UNL     1       3.302   3.999  18.648  0.00  0.00    +0.000 A 
ATOM      8  C   UNL     1       2.533   4.524  19.695  0.00  0.00    +0.000 A 
ATOM      9  C   UNL     1       2.246   8.090  18.888  0.00  0.00    +0.000 C 
ATOM     10  O   UNL     1       2.438   9.022  18.135  0.00  0.00    +0.000 OA
ENDROOT
BRANCH   1  15
ATOM     11  C   UNL     1      -0.692  11.041  20.368  0.00  0.00    +0.000 A 
ATOM     12  C   UNL     1      -0.743  11.176  21.763  0.00  0.00    +0.000 A 
ATOM     13  C   UNL     1      -0.093  10.266  22.613  0.00  0.00    +0.000 A 
ATOM     14  C   UNL     1       0.652   9.198  22.095  0.00  0.00    +0.000 A 
ATOM     15  C   UNL     1       0.746   9.030  20.721  0.00  0.00    +0.000 A 
ATOM     16  C   UNL     1       0.047   9.941  19.904  0.00  0.00    +0.000 A 
BRANCH  11  17
ATOM     17  C   UNL     1      -1.407  12.034  19.313  0.00  0.00    +0.000 C 
ATOM     18  C   UNL     1      -2.958  12.050  19.357  0.00  0.00    +0.000 C 
ATOM     19  O   UNL     1      -3.073  11.611  17.991  0.00  0.00    +0.000 OA
ATOM     20  C   UNL     1      -1.639  11.505  17.864  0.00  0.00    +0.000 C 
BRANCH  17  21
ATOM     21  C   UNL     1      -0.779  13.451  19.347  0.00  0.00    +0.000 C 
BRANCH  21  27
ATOM     22  C   UNL     1       1.215  14.414  21.611  0.00  0.00    +0.000 C 
ATOM     23  N   UNL     1       1.555  13.895  20.313  0.00  0.00    +0.000 N 
ATOM     24  C   UNL     1       2.826  13.754  19.842  0.00  0.00    +0.000 A 
ATOM     25  N   UNL     1       2.790  13.295  18.617  0.00  0.00    +0.000 NA
ATOM     26  N   UNL     1       1.470  13.140  18.269  0.00  0.00    +0.000 NA
ATOM     27  C   UNL     1       0.721  13.474  19.303  0.00  0.00    +0.000 A 
ENDBRANCH  21  27
ENDBRANCH  17  21
ENDBRANCH  11  17
ENDBRANCH   1  15
BRANCH   8  28
ATOM     28  C   UNL     1       1.973   3.622  20.769  0.00  0.00    +0.000 C 
ATOM     29  F   UNL     1       2.368   3.949  22.027  0.00  0.00    +0.000 F 
ATOM     30  F   UNL     1       0.613   3.622  20.786  0.00  0.00    +0.000 F 
ATOM     31  F   UNL     1       2.351   2.327  20.593  0.00  0.00    +0.000 F 
ENDBRANCH   8  28
BRANCH   6  32
ATOM     32  O   UNL     1       4.632   4.385  16.626  0.00  0.00    +0.000 OA
BRANCH  32  33
ATOM     33  C   UNL     1       6.003   4.749  16.741  0.00  0.00    +0.000 C 
ATOM     34  F   UNL     1       6.455   4.370  17.962  0.00  0.00    +0.000 F 
ATOM     35  F   UNL     1       6.697   4.031  15.825  0.00  0.00    +0.000 F 
ENDBRANCH  32  33
ENDBRANCH   6  32
TORSDOF 7
ENDMDL
MODEL 5
REMARK VINA RESULT:      -8.9      4.391      8.799
REMARK  Name = 
REMARK  8 active torsions:
REMARK  status: ('A' for Active; 'I' for Inactive)
REMARK    1  A    between atoms: C_1  and  N_2
REMARK    2  A    between atoms: C_6  and  C_7
REMARK    3  A    between atoms: C_7  and  C_8
REMARK    4  A    between atoms: C_8  and  C_9
REMARK    5  A    between atoms: C_13  and  N_14
REMARK    6  A    between atoms: C_19  and  O_20
REMARK    7  A    between atoms: O_20  and  C_21
REMARK    8  A    between atoms: C_25  and  C_26
REMARK                            x       y       z     vdW  Elec       q    Type
REMARK                         _______ _______ _______ _____ _____    ______ ____
ROOT
ATOM      1  N   UNL     1       2.102   7.374  19.683  0.00  0.00    +0.000 N 
ATOM      2  C   UNL     1       2.077   5.987  20.108  0.00  0.00    +0.000 C 
ATOM      3  C   UNL     1       2.825   5.271  19.048  0.00  0.00    +0.000 A 
ATOM      4  C   UNL     1       3.340   6.189  18.138  0.00  0.00    +0.000 A 
ATOM      5  C   UNL     1       4.128   5.773  17.083  0.00  0.00    +0.000 A 
ATOM      6  C   UNL     1       4.395   4.400  16.962  0.00  0.00    +0.000 A 
ATOM      7  C   UNL     1       3.804   3.473  17.847  0.00  0.00    +0.000 A 
ATOM      8  C   UNL     1       3.009   3.902  18.920  0.00  0.00    +0.000 A 
ATOM      9  C   UNL     1       2.861   7.545  18.519  0.00  0.00    +0.000 C 
ATOM     10  O   UNL     1       3.112   8.550  17.886  0.00  0.00    +0.000 OA
ENDROOT
BRANCH   1  15
ATOM     11  C   UNL     1      -0.398  10.125  20.204  0.00  0.00    +0.000 A 
ATOM     12  C   UNL     1      -0.219  10.356  21.576  0.00  0.00    +0.000 A 
ATOM     13  C   UNL     1       0.677   9.590  22.338  0.00  0.00    +0.000 A 
ATOM     14  C   UNL     1       1.447   8.577  21.749  0.00  0.00    +0.000 A 
ATOM     15  C   UNL     1       1.317   8.320  20.392  0.00  0.00    +0.000 A 
ATOM     16  C   UNL     1       0.378   9.084  19.671  0.00  0.00    +0.000 A 
BRANCH  11  17
ATOM     17  C   UNL     1      -1.406  10.951  19.248  0.00  0.00    +0.000 C 
ATOM     18  C   UNL     1      -0.726  11.888  18.214  0.00  0.00    +0.000 C 
ATOM     19  O   UNL     1      -1.357  13.062  18.757  0.00  0.00    +0.000 OA
ATOM     20  C   UNL     1      -1.992  12.289  19.797  0.00  0.00    +0.000 C 
BRANCH  17  21
ATOM     21  C   UNL     1      -2.483  10.029  18.622  0.00  0.00    +0.000 C 
BRANCH  21  27
ATOM     22  C   UNL     1      -4.835  11.782  17.428  0.00  0.00    +0.000 C 
ATOM     23  N   UNL     1      -3.814  11.080  16.697  0.00  0.00    +0.000 N 
ATOM     24  C   UNL     1      -3.715  11.048  15.339  0.00  0.00    +0.000 A 
ATOM     25  N   UNL     1      -2.705  10.291  14.991  0.00  0.00    +0.000 NA
ATOM     26  N   UNL     1      -2.133   9.806  16.143  0.00  0.00    +0.000 NA
ATOM     27  C   UNL     1      -2.783  10.305  17.177  0.00  0.00    +0.000 A 
ENDBRANCH  21  27
ENDBRANCH  17  21
ENDBRANCH  11  17
ENDBRANCH   1  15
BRANCH   8  28
ATOM     28  C   UNL     1       2.379   2.903  19.861  0.00  0.00    +0.000 C 
ATOM     29  F   UNL     1       1.047   3.090  20.054  0.00  0.00    +0.000 F 
ATOM     30  F   UNL     1       2.524   1.623  19.426  0.00  0.00    +0.000 F 
ATOM     31  F   UNL     1       2.938   2.949  21.100  0.00  0.00    +0.000 F 
ENDBRANCH   8  28
BRANCH   6  32
ATOM     32  O   UNL     1       5.225   4.042  15.934  0.00  0.00    +0.000 OA
BRANCH  32  33
ATOM     33  C   UNL     1       6.503   4.670  15.948  0.00  0.00    +0.000 C 
ATOM     34  F   UNL     1       7.226   4.167  16.979  0.00  0.00    +0.000 F 
ATOM     35  F   UNL     1       7.146   4.319  14.809  0.00  0.00    +0.000 F 
ENDBRANCH  32  33
ENDBRANCH   6  32
TORSDOF 7
ENDMDL
MODEL 6
REMARK VINA RESULT:      -8.9      4.329      8.805
REMARK  Name = 
REMARK  8 active torsions:
REMARK  status: ('A' for Active; 'I' for Inactive)
REMARK    1  A    between atoms: C_1  and  N_2
REMARK    2  A    between atoms: C_6  and  C_7
REMARK    3  A    between atoms: C_7  and  C_8
REMARK    4  A    between atoms: C_8  and  C_9
REMARK    5  A    between atoms: C_13  and  N_14
REMARK    6  A    between atoms: C_19  and  O_20
REMARK    7  A    between atoms: O_20  and  C_21
REMARK    8  A    between atoms: C_25  and  C_26
REMARK                            x       y       z     vdW  Elec       q    Type
REMARK                         _______ _______ _______ _____ _____    ______ ____
ROOT
ATOM      1  N   UNL     1       1.638   7.949  19.977  0.00  0.00    +0.000 N 
ATOM      2  C   UNL     1       1.648   6.632  20.587  0.00  0.00    +0.000 C 
ATOM      3  C   UNL     1       2.369   5.786  19.608  0.00  0.00    +0.000 A 
ATOM      4  C   UNL     1       2.839   6.576  18.563  0.00  0.00    +0.000 A 
ATOM      5  C   UNL     1       3.597   6.027  17.548  0.00  0.00    +0.000 A 
ATOM      6  C   UNL     1       3.879   4.652  17.605  0.00  0.00    +0.000 A 
ATOM      7  C   UNL     1       3.331   3.850  18.628  0.00  0.00    +0.000 A 
ATOM      8  C   UNL     1       2.567   4.414  19.660  0.00  0.00    +0.000 A 
ATOM      9  C   UNL     1       2.355   7.966  18.774  0.00  0.00    +0.000 C 
ATOM     10  O   UNL     1       2.570   8.878  18.002  0.00  0.00    +0.000 OA
ENDROOT
BRANCH   1  15
ATOM     11  C   UNL     1      -0.700  10.878  20.174  0.00  0.00    +0.000 A 
ATOM     12  C   UNL     1      -0.618  11.159  21.546  0.00  0.00    +0.000 A 
ATOM     13  C   UNL     1       0.157  10.372  22.411  0.00  0.00    +0.000 A 
ATOM     14  C   UNL     1       0.901   9.285  21.930  0.00  0.00    +0.000 A 
ATOM     15  C   UNL     1       0.866   8.975  20.579  0.00  0.00    +0.000 A 
ATOM     16  C   UNL     1       0.044   9.765  19.750  0.00  0.00    +0.000 A 
BRANCH  11  17
ATOM     17  C   UNL     1      -1.566  11.724  19.103  0.00  0.00    +0.000 C 
ATOM     18  C   UNL     1      -2.834  12.416  19.669  0.00  0.00    +0.000 C 
ATOM     19  O   UNL     1      -3.710  11.690  18.788  0.00  0.00    +0.000 OA
ATOM     20  C   UNL     1      -2.603  10.947  18.235  0.00  0.00    +0.000 C 
BRANCH  17  21
ATOM     21  C   UNL     1      -0.670  12.676  18.269  0.00  0.00    +0.000 C 
BRANCH  21  27
ATOM     22  C   UNL     1       2.487  12.430  18.228  0.00  0.00    +0.000 C 
ATOM     23  N   UNL     1       1.693  13.332  19.020  0.00  0.00    +0.000 N 
ATOM     24  C   UNL     1       2.197  14.230  19.912  0.00  0.00    +0.000 A 
ATOM     25  N   UNL     1       1.213  14.867  20.495  0.00  0.00    +0.000 NA
ATOM     26  N   UNL     1       0.037  14.371  19.985  0.00  0.00    +0.000 NA
ATOM     27  C   UNL     1       0.325  13.464  19.071  0.00  0.00    +0.000 A 
ENDBRANCH  21  27
ENDBRANCH  17  21
ENDBRANCH  11  17
ENDBRANCH   1  15
BRANCH   8  28
ATOM     28  C   UNL     1       1.984   3.546  20.750  0.00  0.00    +0.000 C 
ATOM     29  F   UNL     1       2.427   3.854  21.997  0.00  0.00    +0.000 F 
ATOM     30  F   UNL     1       0.628   3.622  20.799  0.00  0.00    +0.000 F 
ATOM     31  F   UNL     1       2.286   2.232  20.570  0.00  0.00    +0.000 F 
ENDBRANCH   8  28
BRANCH   6  32
ATOM     32  O   UNL     1       4.678   4.166  16.606  0.00  0.00    +0.000 OA
BRANCH  32  33
ATOM     33  C   UNL     1       6.024   4.628  16.636  0.00  0.00    +0.000 C 
ATOM     34  F   UNL     1       6.563   4.326  17.843  0.00  0.00    +0.000 F 
ATOM     35  F   UNL     1       6.720   3.926  15.709  0.00  0.00    +0.000 F 
ENDBRANCH  32  33
ENDBRANCH   6  32
TORSDOF 7
ENDMDL
MODEL 7
REMARK VINA RESULT:      -8.8      4.431      9.033
REMARK  Name = 
REMARK  8 active torsions:
REMARK  status: ('A' for Active; 'I' for Inactive)
REMARK    1  A    between atoms: C_1  and  N_2
REMARK    2  A    between atoms: C_6  and  C_7
REMARK    3  A    between atoms: C_7  and  C_8
REMARK    4  A    between atoms: C_8  and  C_9
REMARK    5  A    between atoms: C_13  and  N_14
REMARK    6  A    between atoms: C_19  and  O_20
REMARK    7  A    between atoms: O_20  and  C_21
REMARK    8  A    between atoms: C_25  and  C_26
REMARK                            x       y       z     vdW  Elec       q    Type
REMARK                         _______ _______ _______ _____ _____    ______ ____
ROOT
ATOM      1  N   UNL     1       2.218   7.230  19.498  0.00  0.00    +0.000 N 
ATOM      2  C   UNL     1       2.182   5.823  19.852  0.00  0.00    +0.000 C 
ATOM      3  C   UNL     1       2.949   5.159  18.772  0.00  0.00    +0.000 A 
ATOM      4  C   UNL     1       3.483   6.121  17.919  0.00  0.00    +0.000 A 
ATOM      5  C   UNL     1       4.291   5.755  16.860  0.00  0.00    +0.000 A 
ATOM      6  C   UNL     1       4.557   4.389  16.675  0.00  0.00    +0.000 A 
ATOM      7  C   UNL     1       3.946   3.421  17.501  0.00  0.00    +0.000 A 
ATOM      8  C   UNL     1       3.132   3.798  18.578  0.00  0.00    +0.000 A 
ATOM      9  C   UNL     1       3.001   7.457  18.360  0.00  0.00    +0.000 C 
ATOM     10  O   UNL     1       3.266   8.491  17.783  0.00  0.00    +0.000 OA
ENDROOT
BRANCH   1  15
ATOM     11  C   UNL     1       0.172  10.302  20.179  0.00  0.00    +0.000 A 
ATOM     12  C   UNL     1      -0.043  10.148  21.556  0.00  0.00    +0.000 A 
ATOM     13  C   UNL     1       0.436   9.027  22.252  0.00  0.00    +0.000 A 
ATOM     14  C   UNL     1       1.170   8.027  21.598  0.00  0.00    +0.000 A 
ATOM     15  C   UNL     1       1.422   8.141  20.239  0.00  0.00    +0.000 A 
ATOM     16  C   UNL     1       0.891   9.261  19.569  0.00  0.00    +0.000 A 
BRANCH  11  17
ATOM     17  C   UNL     1      -0.341  11.553  19.294  0.00  0.00    +0.000 C 
ATOM     18  C   UNL     1      -1.616  12.265  19.820  0.00  0.00    +0.000 C 
ATOM     19  O   UNL     1      -2.357  11.981  18.619  0.00  0.00    +0.000 OA
ATOM     20  C   UNL     1      -1.247  11.245  18.062  0.00  0.00    +0.000 C 
BRANCH  17  21
ATOM     21  C   UNL     1       0.815  12.532  18.966  0.00  0.00    +0.000 C 
BRANCH  21  27
ATOM     22  C   UNL     1       0.146  15.623  19.130  0.00  0.00    +0.000 C 
ATOM     23  N   UNL     1       0.843  14.830  20.107  0.00  0.00    +0.000 N 
ATOM     24  C   UNL     1       1.352  15.309  21.276  0.00  0.00    +0.000 A 
ATOM     25  N   UNL     1       1.959  14.343  21.917  0.00  0.00    +0.000 NA
ATOM     26  N   UNL     1       1.858  13.207  21.151  0.00  0.00    +0.000 NA
ATOM     27  C   UNL     1       1.158  13.491  20.069  0.00  0.00    +0.000 A 
ENDBRANCH  21  27
ENDBRANCH  17  21
ENDBRANCH  11  17
ENDBRANCH   1  15
BRANCH   8  28
ATOM     28  C   UNL     1       2.481   2.755  19.455  0.00  0.00    +0.000 C 
ATOM     29  F   UNL     1       2.915   2.767  20.742  0.00  0.00    +0.000 F 
ATOM     30  F   UNL     1       1.130   2.894  19.507  0.00  0.00    +0.000 F 
ATOM     31  F   UNL     1       2.715   1.493  19.003  0.00  0.00    +0.000 F 
ENDBRANCH   8  28
BRANCH   6  32
ATOM     32  O   UNL     1       5.406   4.081  15.647  0.00  0.00    +0.000 OA
BRANCH  32  33
ATOM     33  C   UNL     1       6.662   4.750  15.685  0.00  0.00    +0.000 C 
ATOM     34  F   UNL     1       7.393   4.250  16.712  0.00  0.00    +0.000 F 
ATOM     35  F   UNL     1       7.326   4.442  14.545  0.00  0.00    +0.000 F 
ENDBRANCH  32  33
ENDBRANCH   6  32
TORSDOF 7
ENDMDL
MODEL 8
REMARK VINA RESULT:      -8.8      4.348      8.891
REMARK  Name = 
REMARK  8 active torsions:
REMARK  status: ('A' for Active; 'I' for Inactive)
REMARK    1  A    between atoms: C_1  and  N_2
REMARK    2  A    between atoms: C_6  and  C_7
REMARK    3  A    between atoms: C_7  and  C_8
REMARK    4  A    between atoms: C_8  and  C_9
REMARK    5  A    between atoms: C_13  and  N_14
REMARK    6  A    between atoms: C_19  and  O_20
REMARK    7  A    between atoms: O_20  and  C_21
REMARK    8  A    between atoms: C_25  and  C_26
REMARK                            x       y       z     vdW  Elec       q    Type
REMARK                         _______ _______ _______ _____ _____    ______ ____
ROOT
ATOM      1  N   UNL     1       1.783   7.672  19.968  0.00  0.00    +0.000 N 
ATOM      2  C   UNL     1       1.727   6.360  20.586  0.00  0.00    +0.000 C 
ATOM      3  C   UNL     1       2.411   5.474  19.615  0.00  0.00    +0.000 A 
ATOM      4  C   UNL     1       2.923   6.235  18.568  0.00  0.00    +0.000 A 
ATOM      5  C   UNL     1       3.658   5.645  17.559  0.00  0.00    +0.000 A 
ATOM      6  C   UNL     1       3.874   4.258  17.626  0.00  0.00    +0.000 A 
ATOM      7  C   UNL     1       3.284   3.489  18.652  0.00  0.00    +0.000 A 
ATOM      8  C   UNL     1       2.544   4.095  19.677  0.00  0.00    +0.000 A 
ATOM      9  C   UNL     1       2.505   7.648  18.769  0.00  0.00    +0.000 C 
ATOM     10  O   UNL     1       2.766   8.543  17.992  0.00  0.00    +0.000 OA
ENDROOT
BRANCH   1  15
ATOM     11  C   UNL     1      -0.135  10.893  20.151  0.00  0.00    +0.000 A 
ATOM     12  C   UNL     1      -0.273  11.012  21.541  0.00  0.00    +0.000 A 
ATOM     13  C   UNL     1       0.214  10.027  22.414  0.00  0.00    +0.000 A 
ATOM     14  C   UNL     1       0.881   8.894  21.927  0.00  0.00    +0.000 A 
ATOM     15  C   UNL     1       1.057   8.737  20.560  0.00  0.00    +0.000 A 
ATOM     16  C   UNL     1       0.518   9.729  19.716  0.00  0.00    +0.000 A 
BRANCH  11  17
ATOM     17  C   UNL     1      -0.664  11.972  19.069  0.00  0.00    +0.000 C 
ATOM     18  C   UNL     1       0.371  13.044  18.636  0.00  0.00    +0.000 C 
ATOM     19  O   UNL     1      -0.447  14.129  19.112  0.00  0.00    +0.000 OA
ATOM     20  C   UNL     1      -1.446  13.211  19.606  0.00  0.00    +0.000 C 
BRANCH  17  21
ATOM     21  C   UNL     1      -1.368  11.282  17.873  0.00  0.00    +0.000 C 
BRANCH  21  27
ATOM     22  C   UNL     1      -3.318  10.981  15.396  0.00  0.00    +0.000 C 
ATOM     23  N   UNL     1      -3.677  11.284  16.756  0.00  0.00    +0.000 N 
ATOM     24  C   UNL     1      -4.948  11.513  17.190  0.00  0.00    +0.000 A 
ATOM     25  N   UNL     1      -4.929  11.799  18.468  0.00  0.00    +0.000 NA
ATOM     26  N   UNL     1      -3.619  11.770  18.881  0.00  0.00    +0.000 NA
ATOM     27  C   UNL     1      -2.862  11.429  17.855  0.00  0.00    +0.000 A 
ENDBRANCH  21  27
ENDBRANCH  17  21
ENDBRANCH  11  17
ENDBRANCH   1  15
BRANCH   8  28
ATOM     28  C   UNL     1       1.916   3.263  20.769  0.00  0.00    +0.000 C 
ATOM     29  F   UNL     1       2.040   1.923  20.583  0.00  0.00    +0.000 F 
ATOM     30  F   UNL     1       2.450   3.528  21.991  0.00  0.00    +0.000 F 
ATOM     31  F   UNL     1       0.580   3.494  20.880  0.00  0.00    +0.000 F 
ENDBRANCH   8  28
BRANCH   6  32
ATOM     32  O   UNL     1       4.654   3.729  16.633  0.00  0.00    +0.000 OA
BRANCH  32  33
ATOM     33  C   UNL     1       5.568   4.642  16.037  0.00  0.00    +0.000 C 
ATOM     34  F   UNL     1       6.822   4.137  16.142  0.00  0.00    +0.000 F 
ATOM     35  F   UNL     1       5.281   4.705  14.714  0.00  0.00    +0.000 F 
ENDBRANCH  32  33
ENDBRANCH   6  32
TORSDOF 7
ENDMDL
MODEL 9
REMARK VINA RESULT:      -8.8      4.406      8.608
REMARK  Name = 
REMARK  8 active torsions:
REMARK  status: ('A' for Active; 'I' for Inactive)
REMARK    1  A    between atoms: C_1  and  N_2
REMARK    2  A    between atoms: C_6  and  C_7
REMARK    3  A    between atoms: C_7  and  C_8
REMARK    4  A    between atoms: C_8  and  C_9
REMARK    5  A    between atoms: C_13  and  N_14
REMARK    6  A    between atoms: C_19  and  O_20
REMARK    7  A    between atoms: O_20  and  C_21
REMARK    8  A    between atoms: C_25  and  C_26
REMARK                            x       y       z     vdW  Elec       q    Type
REMARK                         _______ _______ _______ _____ _____    ______ ____
ROOT
ATOM      1  N   UNL     1       1.674   7.854  20.063  0.00  0.00    +0.000 N 
ATOM      2  C   UNL     1       1.678   6.533  20.665  0.00  0.00    +0.000 C 
ATOM      3  C   UNL     1       2.321   5.673  19.644  0.00  0.00    +0.000 A 
ATOM      4  C   UNL     1       2.756   6.457  18.579  0.00  0.00    +0.000 A 
ATOM      5  C   UNL     1       3.441   5.893  17.521  0.00  0.00    +0.000 A 
ATOM      6  C   UNL     1       3.687   4.511  17.556  0.00  0.00    +0.000 A 
ATOM      7  C   UNL     1       3.172   3.718  18.604  0.00  0.00    +0.000 A 
ATOM      8  C   UNL     1       2.482   4.296  19.679  0.00  0.00    +0.000 A 
ATOM      9  C   UNL     1       2.325   7.859  18.823  0.00  0.00    +0.000 C 
ATOM     10  O   UNL     1       2.524   8.769  18.045  0.00  0.00    +0.000 OA
ENDROOT
BRANCH   1  15
ATOM     11  C   UNL     1       0.564  11.361  20.811  0.00  0.00    +0.000 A 
ATOM     12  C   UNL     1      -0.222  11.126  21.948  0.00  0.00    +0.000 A 
ATOM     13  C   UNL     1      -0.429   9.830  22.443  0.00  0.00    +0.000 A 
ATOM     14  C   UNL     1       0.165   8.717  21.830  0.00  0.00    +0.000 A 
ATOM     15  C   UNL     1       0.965   8.898  20.711  0.00  0.00    +0.000 A 
ATOM     16  C   UNL     1       1.115  10.211  20.222  0.00  0.00    +0.000 A 
BRANCH  11  17
ATOM     17  C   UNL     1       0.856  12.814  20.167  0.00  0.00    +0.000 C 
ATOM     18  C   UNL     1       1.888  12.835  19.008  0.00  0.00    +0.000 C 
ATOM     19  O   UNL     1       2.775  13.719  19.718  0.00  0.00    +0.000 OA
ATOM     20  C   UNL     1       1.912  13.720  20.875  0.00  0.00    +0.000 C 
BRANCH  17  21
ATOM     21  C   UNL     1      -0.458  13.564  19.832  0.00  0.00    +0.000 C 
BRANCH  21  27
ATOM     22  C   UNL     1      -3.342  12.722  20.830  0.00  0.00    +0.000 C 
ATOM     23  N   UNL     1      -2.729  12.403  19.568  0.00  0.00    +0.000 N 
ATOM     24  C   UNL     1      -3.309  11.650  18.592  0.00  0.00    +0.000 A 
ATOM     25  N   UNL     1      -2.476  11.513  17.592  0.00  0.00    +0.000 NA
ATOM     26  N   UNL     1      -1.320  12.179  17.920  0.00  0.00    +0.000 NA
ATOM     27  C   UNL     1      -1.480  12.743  19.102  0.00  0.00    +0.000 A 
ENDBRANCH  21  27
ENDBRANCH  17  21
ENDBRANCH  11  17
ENDBRANCH   1  15
BRANCH   8  28
ATOM     28  C   UNL     1       1.934   3.438  20.795  0.00  0.00    +0.000 C 
ATOM     29  F   UNL     1       0.581   3.478  20.908  0.00  0.00    +0.000 F 
ATOM     30  F   UNL     1       2.266   2.128  20.648  0.00  0.00    +0.000 F 
ATOM     31  F   UNL     1       2.414   3.818  22.010  0.00  0.00    +0.000 F 
ENDBRANCH   8  28
BRANCH   6  32
ATOM     32  O   UNL     1       4.416   4.008  16.513  0.00  0.00    +0.000 OA
BRANCH  32  33
ATOM     33  C   UNL     1       5.562   4.774  16.158  0.00  0.00    +0.000 C 
ATOM     34  F   UNL     1       6.630   3.944  16.061  0.00  0.00    +0.000 F 
ATOM     35  F   UNL     1       5.348   5.285  14.922  0.00  0.00    +0.000 F 
ENDBRANCH  32  33
ENDBRANCH   6  32
TORSDOF 7
ENDMDL
