MODEL 1
REMARK VINA RESULT:     -10.8      0.000      0.000
REMARK  Name = 
REMARK  5 active torsions:
REMARK  status: ('A' for Active; 'I' for Inactive)
REMARK    1  A    between atoms: C_1  and  N_2
REMARK    2  A    between atoms: C_6  and  C_7
REMARK    3  A    between atoms: C_7  and  C_8
REMARK    4  A    between atoms: C_8  and  C_9
REMARK    5  A    between atoms: C_13  and  N_14
REMARK                            x       y       z     vdW  Elec       q    Type
REMARK                         _______ _______ _______ _____ _____    ______ ____
ROOT
ATOM      1  N   UNL     1       2.169   7.378  18.911  0.00  0.00    +0.000 N 
ATOM      2  C   UNL     1       2.034   8.577  18.264  0.00  0.00    +0.000 C 
ATOM      3  O   UNL     1       2.316   8.754  17.082  0.00  0.00    +0.000 OA
ATOM      4  N   UNL     1       1.494   9.601  19.040  0.00  0.00    +0.000 N 
ATOM      5  C   UNL     1       1.297  10.909  18.425  0.00  0.00    +0.000 C 
ATOM      6  C   UNL     1      -0.091  11.447  18.755  0.00  0.00    +0.000 C 
ATOM      7  C   UNL     1      -1.213  10.595  18.140  0.00  0.00    +0.000 C 
ATOM      8  C   UNL     1      -2.249  11.617  17.722  0.00  0.00    +0.000 C 
ATOM      9  N   UNL     1      -1.435  12.713  17.209  0.00  0.00    +0.000 NA
ATOM     10  C   UNL     1      -0.309  12.845  18.141  0.00  0.00    +0.000 C 
ATOM     11  O   UNL     1      -0.271  11.561  20.184  0.00  0.00    +0.000 OA
ATOM     12  C   UNL     1       0.204  10.488  20.896  0.00  0.00    +0.000 A 
ATOM     13  C   UNL     1      -0.249  10.375  22.209  0.00  0.00    +0.000 A 
ATOM     14  C   UNL     1       0.121   9.272  22.971  0.00  0.00    +0.000 A 
ATOM     15  C   UNL     1       0.944   8.327  22.391  0.00  0.00    +0.000 A 
ATOM     16  N   UNL     1       1.405   8.410  21.123  0.00  0.00    +0.000 NA
ATOM     17  C   UNL     1       1.043   9.492  20.384  0.00  0.00    +0.000 A 
ATOM     18  H   UNL     1       1.911   7.413  19.894  0.00  0.00    +0.000 HD
ATOM     19  H   UNL     1      -1.973  13.578  17.163  0.00  0.00    +0.000 HD
ENDROOT
BRANCH   1  24
ATOM     20  C   UNL     1       4.479   4.889  17.469  0.00  0.00    +0.000 A 
ATOM     21  C   UNL     1       3.624   3.775  17.385  0.00  0.00    +0.000 A 
ATOM     22  C   UNL     1       2.290   3.838  17.790  0.00  0.00    +0.000 A 
ATOM     23  C   UNL     1       1.770   5.024  18.298  0.00  0.00    +0.000 A 
ATOM     24  C   UNL     1       2.586   6.141  18.413  0.00  0.00    +0.000 A 
ATOM     25  C   UNL     1       3.921   6.065  18.004  0.00  0.00    +0.000 A 
BRANCH  20  26
ATOM     26  C   UNL     1       5.983   4.862  16.917  0.00  0.00    +0.000 C 
ATOM     27  C   UNL     1       7.129   4.792  17.965  0.00  0.00    +0.000 C 
ATOM     28  O   UNL     1       7.550   6.146  17.685  0.00  0.00    +0.000 OA
ATOM     29  C   UNL     1       6.631   6.238  16.580  0.00  0.00    +0.000 C 
BRANCH  26  30
ATOM     30  C   UNL     1       6.066   3.903  15.715  0.00  0.00    +0.000 C 
BRANCH  30  36
ATOM     31  C   UNL     1       5.599   3.363  12.574  0.00  0.00    +0.000 C 
ATOM     32  N   UNL     1       6.563   4.226  13.207  0.00  0.00    +0.000 N 
ATOM     33  C   UNL     1       7.426   5.037  12.527  0.00  0.00    +0.000 A 
ATOM     34  N   UNL     1       8.185   5.683  13.376  0.00  0.00    +0.000 NA
ATOM     35  N   UNL     1       7.809   5.302  14.638  0.00  0.00    +0.000 NA
ATOM     36  C   UNL     1       6.815   4.441  14.541  0.00  0.00    +0.000 A 
ENDBRANCH  30  36
ENDBRANCH  26  30
ENDBRANCH  20  26
ENDBRANCH   1  24
TORSDOF 4
ENDMDL
MODEL 2
REMARK VINA RESULT:     -10.7      2.172      8.966
REMARK  Name = 
REMARK  5 active torsions:
REMARK  status: ('A' for Active; 'I' for Inactive)
REMARK    1  A    between atoms: C_1  and  N_2
REMARK    2  A    between atoms: C_6  and  C_7
REMARK    3  A    between atoms: C_7  and  C_8
REMARK    4  A    between atoms: C_8  and  C_9
REMARK    5  A    between atoms: C_13  and  N_14
REMARK                            x       y       z     vdW  Elec       q    Type
REMARK                         _______ _______ _______ _____ _____    ______ ____
ROOT
ATOM      1  N   UNL     1       1.844   7.266  20.156  0.00  0.00    +0.000 N 
ATOM      2  C   UNL     1       2.612   7.156  19.028  0.00  0.00    +0.000 C 
ATOM      3  O   UNL     1       2.863   8.093  18.275  0.00  0.00    +0.000 OA
ATOM      4  N   UNL     1       3.147   5.888  18.806  0.00  0.00    +0.000 N 
ATOM      5  C   UNL     1       3.993   5.685  17.637  0.00  0.00    +0.000 C 
ATOM      6  C   UNL     1       5.257   4.924  18.021  0.00  0.00    +0.000 C 
ATOM      7  C   UNL     1       6.159   5.725  18.975  0.00  0.00    +0.000 C 
ATOM      8  C   UNL     1       7.560   5.385  18.511  0.00  0.00    +0.000 C 
ATOM      9  N   UNL     1       7.423   5.355  17.060  0.00  0.00    +0.000 NA
ATOM     10  C   UNL     1       6.153   4.669  16.792  0.00  0.00    +0.000 C 
ATOM     11  O   UNL     1       4.927   3.641  18.599  0.00  0.00    +0.000 OA
ATOM     12  C   UNL     1       3.886   3.679  19.491  0.00  0.00    +0.000 A 
ATOM     13  C   UNL     1       3.757   2.574  20.330  0.00  0.00    +0.000 A 
ATOM     14  C   UNL     1       2.777   2.570  21.317  0.00  0.00    +0.000 A 
ATOM     15  C   UNL     1       1.952   3.674  21.420  0.00  0.00    +0.000 A 
ATOM     16  N   UNL     1       2.048   4.759  20.619  0.00  0.00    +0.000 NA
ATOM     17  C   UNL     1       3.005   4.755  19.653  0.00  0.00    +0.000 A 
ATOM     18  H   UNL     1       1.718   6.387  20.651  0.00  0.00    +0.000 HD
ATOM     19  H   UNL     1       8.202   4.860  16.629  0.00  0.00    +0.000 HD
ENDROOT
BRANCH   1  24
ATOM     20  C   UNL     1      -0.358  10.221  20.321  0.00  0.00    +0.000 A 
ATOM     21  C   UNL     1      -0.075  10.671  21.624  0.00  0.00    +0.000 A 
ATOM     22  C   UNL     1       0.842  10.015  22.446  0.00  0.00    +0.000 A 
ATOM     23  C   UNL     1       1.504   8.880  21.987  0.00  0.00    +0.000 A 
ATOM     24  C   UNL     1       1.240   8.395  20.714  0.00  0.00    +0.000 A 
ATOM     25  C   UNL     1       0.319   9.061  19.900  0.00  0.00    +0.000 A 
BRANCH  20  26
ATOM     26  C   UNL     1      -1.332  11.018  19.329  0.00  0.00    +0.000 C 
ATOM     27  C   UNL     1      -0.678  12.020  18.338  0.00  0.00    +0.000 C 
ATOM     28  O   UNL     1      -1.226  13.162  19.034  0.00  0.00    +0.000 OA
ATOM     29  C   UNL     1      -2.006  12.305  19.890  0.00  0.00    +0.000 C 
BRANCH  26  30
ATOM     30  C   UNL     1      -2.384  10.047  18.760  0.00  0.00    +0.000 C 
BRANCH  30  36
ATOM     31  C   UNL     1      -4.839  11.803  17.639  0.00  0.00    +0.000 C 
ATOM     32  N   UNL     1      -3.813  11.114  16.899  0.00  0.00    +0.000 N 
ATOM     33  C   UNL     1      -3.688  11.160  15.541  0.00  0.00    +0.000 A 
ATOM     34  N   UNL     1      -2.673  10.421  15.167  0.00  0.00    +0.000 NA
ATOM     35  N   UNL     1      -2.113   9.887  16.299  0.00  0.00    +0.000 NA
ATOM     36  C   UNL     1      -2.783  10.322  17.348  0.00  0.00    +0.000 A 
ENDBRANCH  30  36
ENDBRANCH  26  30
ENDBRANCH  20  26
ENDBRANCH   1  24
TORSDOF 4
ENDMDL
MODEL 3
REMARK VINA RESULT:     -10.6      1.617      2.641
REMARK  Name = 
REMARK  5 active torsions:
REMARK  status: ('A' for Active; 'I' for Inactive)
REMARK    1  A    between atoms: C_1  and  N_2
REMARK    2  A    between atoms: C_6  and  C_7
REMARK    3  A    between atoms: C_7  and  C_8
REMARK    4  A    between atoms: C_8  and  C_9
REMARK    5  A    between atoms: C_13  and  N_14
REMARK                            x       y       z     vdW  Elec       q    Type
REMARK                         _______ _______ _______ _____ _____    ______ ____
ROOT
ATOM      1  N   UNL     1       2.178   7.253  19.015  0.00  0.00    +0.000 N 
ATOM      2  C   UNL     1       2.033   8.415  18.307  0.00  0.00    +0.000 C 
ATOM      3  O   UNL     1       2.291   8.527  17.111  0.00  0.00    +0.000 OA
ATOM      4  N   UNL     1       1.512   9.483  19.036  0.00  0.00    +0.000 N 
ATOM      5  C   UNL     1       1.306  10.755  18.354  0.00  0.00    +0.000 C 
ATOM      6  C   UNL     1      -0.073  11.316  18.682  0.00  0.00    +0.000 C 
ATOM      7  C   UNL     1      -1.211  10.436  18.137  0.00  0.00    +0.000 C 
ATOM      8  C   UNL     1      -2.252  11.437  17.686  0.00  0.00    +0.000 C 
ATOM      9  N   UNL     1      -1.446  12.500  17.097  0.00  0.00    +0.000 NA
ATOM     10  C   UNL     1      -0.301  12.679  17.997  0.00  0.00    +0.000 C 
ATOM     11  O   UNL     1      -0.224  11.509  20.106  0.00  0.00    +0.000 OA
ATOM     12  C   UNL     1       0.263  10.475  20.866  0.00  0.00    +0.000 A 
ATOM     13  C   UNL     1      -0.164  10.436  22.192  0.00  0.00    +0.000 A 
ATOM     14  C   UNL     1       0.219   9.375  23.007  0.00  0.00    +0.000 A 
ATOM     15  C   UNL     1       1.028   8.396  22.463  0.00  0.00    +0.000 A 
ATOM     16  N   UNL     1       1.462   8.408  21.183  0.00  0.00    +0.000 NA
ATOM     17  C   UNL     1       1.089   9.449  20.393  0.00  0.00    +0.000 A 
ATOM     18  H   UNL     1       1.941   7.343  20.000  0.00  0.00    +0.000 HD
ATOM     19  H   UNL     1      -1.983  13.363  17.014  0.00  0.00    +0.000 HD
ENDROOT
BRANCH   1  24
ATOM     20  C   UNL     1       4.260   4.754  17.274  0.00  0.00    +0.000 A 
ATOM     21  C   UNL     1       3.560   3.578  17.597  0.00  0.00    +0.000 A 
ATOM     22  C   UNL     1       2.402   3.600  18.376  0.00  0.00    +0.000 A 
ATOM     23  C   UNL     1       1.910   4.808  18.862  0.00  0.00    +0.000 A 
ATOM     24  C   UNL     1       2.582   5.990  18.578  0.00  0.00    +0.000 A 
ATOM     25  C   UNL     1       3.740   5.954  17.796  0.00  0.00    +0.000 A 
BRANCH  20  26
ATOM     26  C   UNL     1       5.531   4.758  16.299  0.00  0.00    +0.000 C 
ATOM     27  C   UNL     1       5.484   5.703  15.066  0.00  0.00    +0.000 C 
ATOM     28  O   UNL     1       5.372   4.595  14.144  0.00  0.00    +0.000 OA
ATOM     29  C   UNL     1       5.582   3.647  15.207  0.00  0.00    +0.000 C 
BRANCH  26  30
ATOM     30  C   UNL     1       6.819   4.763  17.143  0.00  0.00    +0.000 C 
BRANCH  30  36
ATOM     31  C   UNL     1       8.140   5.735  19.915  0.00  0.00    +0.000 C 
ATOM     32  N   UNL     1       7.900   6.496  18.716  0.00  0.00    +0.000 N 
ATOM     33  C   UNL     1       8.276   7.797  18.547  0.00  0.00    +0.000 A 
ATOM     34  N   UNL     1       7.904   8.213  17.362  0.00  0.00    +0.000 NA
ATOM     35  N   UNL     1       7.282   7.166  16.734  0.00  0.00    +0.000 NA
ATOM     36  C   UNL     1       7.298   6.121  17.538  0.00  0.00    +0.000 A 
ENDBRANCH  30  36
ENDBRANCH  26  30
ENDBRANCH  20  26
ENDBRANCH   1  24
TORSDOF 4
ENDMDL
MODEL 4
REMARK VINA RESULT:     -10.5      2.136      9.187
REMARK  Name = 
REMARK  5 active torsions:
REMARK  status: ('A' for Active; 'I' for Inactive)
REMARK    1  A    between atoms: C_1  and  N_2
REMARK    2  A    between atoms: C_6  and  C_7
REMARK    3  A    between atoms: C_7  and  C_8
REMARK    4  A    between atoms: C_8  and  C_9
REMARK    5  A    between atoms: C_13  and  N_14
REMARK                            x       y       z     vdW  Elec       q    Type
REMARK                         _______ _______ _______ _____ _____    ______ ____
ROOT
ATOM      1  N   UNL     1       1.868   7.253  20.175  0.00  0.00    +0.000 N 
ATOM      2  C   UNL     1       2.624   7.130  19.041  0.00  0.00    +0.000 C 
ATOM      3  O   UNL     1       2.876   8.060  18.279  0.00  0.00    +0.000 OA
ATOM      4  N   UNL     1       3.149   5.857  18.824  0.00  0.00    +0.000 N 
ATOM      5  C   UNL     1       3.984   5.640  17.649  0.00  0.00    +0.000 C 
ATOM      6  C   UNL     1       5.246   4.874  18.028  0.00  0.00    +0.000 C 
ATOM      7  C   UNL     1       6.162   5.676  18.968  0.00  0.00    +0.000 C 
ATOM      8  C   UNL     1       7.556   5.323  18.494  0.00  0.00    +0.000 C 
ATOM      9  N   UNL     1       7.406   5.284  17.044  0.00  0.00    +0.000 NA
ATOM     10  C   UNL     1       6.130   4.604  16.793  0.00  0.00    +0.000 C 
ATOM     11  O   UNL     1       4.914   3.597  18.617  0.00  0.00    +0.000 OA
ATOM     12  C   UNL     1       3.880   3.648  19.519  0.00  0.00    +0.000 A 
ATOM     13  C   UNL     1       3.752   2.550  20.366  0.00  0.00    +0.000 A 
ATOM     14  C   UNL     1       2.780   2.559  21.362  0.00  0.00    +0.000 A 
ATOM     15  C   UNL     1       1.964   3.669  21.464  0.00  0.00    +0.000 A 
ATOM     16  N   UNL     1       2.060   4.748  20.655  0.00  0.00    +0.000 NA
ATOM     17  C   UNL     1       3.008   4.731  19.680  0.00  0.00    +0.000 A 
ATOM     18  H   UNL     1       1.741   6.379  20.678  0.00  0.00    +0.000 HD
ATOM     19  H   UNL     1       8.179   4.781  16.610  0.00  0.00    +0.000 HD
ENDROOT
BRANCH   1  24
ATOM     20  C   UNL     1      -0.143  10.344  20.273  0.00  0.00    +0.000 A 
ATOM     21  C   UNL     1       0.012  10.700  21.625  0.00  0.00    +0.000 A 
ATOM     22  C   UNL     1       0.781   9.936  22.504  0.00  0.00    +0.000 A 
ATOM     23  C   UNL     1       1.418   8.784  22.053  0.00  0.00    +0.000 A 
ATOM     24  C   UNL     1       1.276   8.390  20.730  0.00  0.00    +0.000 A 
ATOM     25  C   UNL     1       0.503   9.164  19.859  0.00  0.00    +0.000 A 
BRANCH  20  26
ATOM     26  C   UNL     1      -0.939  11.262  19.228  0.00  0.00    +0.000 C 
ATOM     27  C   UNL     1      -0.135  12.370  18.492  0.00  0.00    +0.000 C 
ATOM     28  O   UNL     1      -0.811  13.425  19.214  0.00  0.00    +0.000 OA
ATOM     29  C   UNL     1      -1.716  12.479  19.812  0.00  0.00    +0.000 C 
BRANCH  26  30
ATOM     30  C   UNL     1      -1.863  10.375  18.373  0.00  0.00    +0.000 C 
BRANCH  30  36
ATOM     31  C   UNL     1      -2.924  10.841  15.368  0.00  0.00    +0.000 C 
ATOM     32  N   UNL     1      -3.559  11.193  16.612  0.00  0.00    +0.000 N 
ATOM     33  C   UNL     1      -4.802  11.749  16.706  0.00  0.00    +0.000 A 
ATOM     34  N   UNL     1      -5.092  11.968  17.965  0.00  0.00    +0.000 NA
ATOM     35  N   UNL     1      -4.028  11.539  18.714  0.00  0.00    +0.000 NA
ATOM     36  C   UNL     1      -3.111  11.049  17.904  0.00  0.00    +0.000 A 
ENDBRANCH  30  36
ENDBRANCH  26  30
ENDBRANCH  20  26
ENDBRANCH   1  24
TORSDOF 4
ENDMDL
MODEL 5
REMARK VINA RESULT:     -10.4      2.291      9.207
REMARK  Name = 
REMARK  5 active torsions:
REMARK  status: ('A' for Active; 'I' for Inactive)
REMARK    1  A    between atoms: C_1  and  N_2
REMARK    2  A    between atoms: C_6  and  C_7
REMARK    3  A    between atoms: C_7  and  C_8
REMARK    4  A    between atoms: C_8  and  C_9
REMARK    5  A    between atoms: C_13  and  N_14
REMARK                            x       y       z     vdW  Elec       q    Type
REMARK                         _______ _______ _______ _____ _____    ______ ____
ROOT
ATOM      1  N   UNL     1       2.046   7.048  19.387  0.00  0.00    +0.000 N 
ATOM      2  C   UNL     1       2.949   7.111  18.360  0.00  0.00    +0.000 C 
ATOM      3  O   UNL     1       3.462   8.152  17.961  0.00  0.00    +0.000 OA
ATOM      4  N   UNL     1       3.298   5.878  17.813  0.00  0.00    +0.000 N 
ATOM      5  C   UNL     1       4.269   5.849  16.726  0.00  0.00    +0.000 C 
ATOM      6  C   UNL     1       5.318   4.773  16.979  0.00  0.00    +0.000 C 
ATOM      7  C   UNL     1       6.182   5.071  18.216  0.00  0.00    +0.000 C 
ATOM      8  C   UNL     1       7.563   4.603  17.809  0.00  0.00    +0.000 C 
ATOM      9  N   UNL     1       7.647   5.015  16.412  0.00  0.00    +0.000 NA
ATOM     10  C   UNL     1       6.339   4.703  15.824  0.00  0.00    +0.000 C 
ATOM     11  O   UNL     1       4.700   3.472  17.098  0.00  0.00    +0.000 OA
ATOM     12  C   UNL     1       3.554   3.463  17.853  0.00  0.00    +0.000 A 
ATOM     13  C   UNL     1       3.120   2.215  18.294  0.00  0.00    +0.000 A 
ATOM     14  C   UNL     1       2.013   2.128  19.132  0.00  0.00    +0.000 A 
ATOM     15  C   UNL     1       1.374   3.299  19.489  0.00  0.00    +0.000 A 
ATOM     16  N   UNL     1       1.766   4.525  19.074  0.00  0.00    +0.000 NA
ATOM     17  C   UNL     1       2.846   4.603  18.252  0.00  0.00    +0.000 A 
ATOM     18  H   UNL     1       1.704   6.109  19.573  0.00  0.00    +0.000 HD
ATOM     19  H   UNL     1       8.392   4.516  15.928  0.00  0.00    +0.000 HD
ENDROOT
BRANCH   1  24
ATOM     20  C   UNL     1       0.501  10.290  20.232  0.00  0.00    +0.000 A 
ATOM     21  C   UNL     1       0.528  10.220  21.637  0.00  0.00    +0.000 A 
ATOM     22  C   UNL     1       1.060   9.119  22.310  0.00  0.00    +0.000 A 
ATOM     23  C   UNL     1       1.579   8.046  21.592  0.00  0.00    +0.000 A 
ATOM     24  C   UNL     1       1.555   8.069  20.204  0.00  0.00    +0.000 A 
ATOM     25  C   UNL     1       1.020   9.178  19.542  0.00  0.00    +0.000 A 
BRANCH  20  26
ATOM     26  C   UNL     1      -0.013  11.587  19.445  0.00  0.00    +0.000 C 
ATOM     27  C   UNL     1      -1.256  12.324  20.016  0.00  0.00    +0.000 C 
ATOM     28  O   UNL     1      -2.088  11.905  18.911  0.00  0.00    +0.000 OA
ATOM     29  C   UNL     1      -0.953  11.343  18.227  0.00  0.00    +0.000 C 
BRANCH  26  30
ATOM     30  C   UNL     1       1.198  12.451  19.045  0.00  0.00    +0.000 C 
BRANCH  30  36
ATOM     31  C   UNL     1       0.486  15.590  19.156  0.00  0.00    +0.000 C 
ATOM     32  N   UNL     1       1.234  14.803  20.101  0.00  0.00    +0.000 N 
ATOM     33  C   UNL     1       1.725  15.284  21.280  0.00  0.00    +0.000 A 
ATOM     34  N   UNL     1       2.372  14.335  21.909  0.00  0.00    +0.000 NA
ATOM     35  N   UNL     1       2.297  13.205  21.138  0.00  0.00    +0.000 NA
ATOM     36  C   UNL     1       1.592  13.476  20.057  0.00  0.00    +0.000 A 
ENDBRANCH  30  36
ENDBRANCH  26  30
ENDBRANCH  20  26
ENDBRANCH   1  24
TORSDOF 4
ENDMDL
MODEL 6
REMARK VINA RESULT:     -10.4      2.457      9.096
REMARK  Name = 
REMARK  5 active torsions:
REMARK  status: ('A' for Active; 'I' for Inactive)
REMARK    1  A    between atoms: C_1  and  N_2
REMARK    2  A    between atoms: C_6  and  C_7
REMARK    3  A    between atoms: C_7  and  C_8
REMARK    4  A    between atoms: C_8  and  C_9
REMARK    5  A    between atoms: C_13  and  N_14
REMARK                            x       y       z     vdW  Elec       q    Type
REMARK                         _______ _______ _______ _____ _____    ______ ____
ROOT
ATOM      1  N   UNL     1       1.844   7.237  20.253  0.00  0.00    +0.000 N 
ATOM      2  C   UNL     1       2.585   7.150  19.105  0.00  0.00    +0.000 C 
ATOM      3  O   UNL     1       2.816   8.101  18.364  0.00  0.00    +0.000 OA
ATOM      4  N   UNL     1       3.120   5.889  18.850  0.00  0.00    +0.000 N 
ATOM      5  C   UNL     1       3.941   5.709  17.658  0.00  0.00    +0.000 C 
ATOM      6  C   UNL     1       5.216   4.947  18.000  0.00  0.00    +0.000 C 
ATOM      7  C   UNL     1       6.136   5.736  18.947  0.00  0.00    +0.000 C 
ATOM      8  C   UNL     1       7.527   5.410  18.445  0.00  0.00    +0.000 C 
ATOM      9  N   UNL     1       7.357   5.404  16.997  0.00  0.00    +0.000 NA
ATOM     10  C   UNL     1       6.084   4.717  16.746  0.00  0.00    +0.000 C 
ATOM     11  O   UNL     1       4.905   3.653  18.563  0.00  0.00    +0.000 OA
ATOM     12  C   UNL     1       3.884   3.671  19.479  0.00  0.00    +0.000 A 
ATOM     13  C   UNL     1       3.778   2.551  20.301  0.00  0.00    +0.000 A 
ATOM     14  C   UNL     1       2.822   2.526  21.311  0.00  0.00    +0.000 A 
ATOM     15  C   UNL     1       1.995   3.624  21.451  0.00  0.00    +0.000 A 
ATOM     16  N   UNL     1       2.069   4.723  20.668  0.00  0.00    +0.000 NA
ATOM     17  C   UNL     1       3.003   4.740  19.680  0.00  0.00    +0.000 A 
ATOM     18  H   UNL     1       1.733   6.349  20.735  0.00  0.00    +0.000 HD
ATOM     19  H   UNL     1       8.129   4.921  16.539  0.00  0.00    +0.000 HD
ENDROOT
BRANCH   1  24
ATOM     20  C   UNL     1       0.185  10.528  20.416  0.00  0.00    +0.000 A 
ATOM     21  C   UNL     1       0.036  10.664  21.808  0.00  0.00    +0.000 A 
ATOM     22  C   UNL     1       0.486   9.685  22.695  0.00  0.00    +0.000 A 
ATOM     23  C   UNL     1       1.098   8.532  22.212  0.00  0.00    +0.000 A 
ATOM     24  C   UNL     1       1.248   8.354  20.844  0.00  0.00    +0.000 A 
ATOM     25  C   UNL     1       0.794   9.342  19.965  0.00  0.00    +0.000 A 
BRANCH  20  26
ATOM     26  C   UNL     1      -0.234  11.685  19.390  0.00  0.00    +0.000 C 
ATOM     27  C   UNL     1      -1.477  12.546  19.751  0.00  0.00    +0.000 C 
ATOM     28  O   UNL     1      -2.264  11.966  18.686  0.00  0.00    +0.000 OA
ATOM     29  C   UNL     1      -1.116  11.262  18.176  0.00  0.00    +0.000 C 
BRANCH  26  30
ATOM     30  C   UNL     1       1.029  12.431  18.921  0.00  0.00    +0.000 C 
BRANCH  30  36
ATOM     31  C   UNL     1       0.560  15.617  18.988  0.00  0.00    +0.000 C 
ATOM     32  N   UNL     1       1.292  14.795  19.916  0.00  0.00    +0.000 N 
ATOM     33  C   UNL     1       1.874  15.263  21.059  0.00  0.00    +0.000 A 
ATOM     34  N   UNL     1       2.478  14.280  21.680  0.00  0.00    +0.000 NA
ATOM     35  N   UNL     1       2.282  13.143  20.941  0.00  0.00    +0.000 NA
ATOM     36  C   UNL     1       1.547  13.444  19.889  0.00  0.00    +0.000 A 
ENDBRANCH  30  36
ENDBRANCH  26  30
ENDBRANCH  20  26
ENDBRANCH   1  24
TORSDOF 4
ENDMDL
MODEL 7
REMARK VINA RESULT:     -10.4      1.081      1.125
REMARK  Name = 
REMARK  5 active torsions:
REMARK  status: ('A' for Active; 'I' for Inactive)
REMARK    1  A    between atoms: C_1  and  N_2
REMARK    2  A    between atoms: C_6  and  C_7
REMARK    3  A    between atoms: C_7  and  C_8
REMARK    4  A    between atoms: C_8  and  C_9
REMARK    5  A    between atoms: C_13  and  N_14
REMARK                            x       y       z     vdW  Elec       q    Type
REMARK                         _______ _______ _______ _____ _____    ______ ____
ROOT
ATOM      1  N   UNL     1       1.957   7.681  19.847  0.00  0.00    +0.000 N 
ATOM      2  C   UNL     1       1.725   8.695  18.957  0.00  0.00    +0.000 C 
ATOM      3  O   UNL     1       2.049   8.657  17.773  0.00  0.00    +0.000 OA
ATOM      4  N   UNL     1       1.034   9.786  19.481  0.00  0.00    +0.000 N 
ATOM      5  C   UNL     1       0.726  10.904  18.597  0.00  0.00    +0.000 C 
ATOM      6  C   UNL     1      -0.729  11.328  18.763  0.00  0.00    +0.000 C 
ATOM      7  C   UNL     1      -1.715  10.238  18.310  0.00  0.00    +0.000 C 
ATOM      8  C   UNL     1      -2.834  11.020  17.654  0.00  0.00    +0.000 C 
ATOM      9  N   UNL     1      -2.120  12.076  16.945  0.00  0.00    +0.000 NA
ATOM     10  C   UNL     1      -1.068  12.532  17.861  0.00  0.00    +0.000 C 
ATOM     11  O   UNL     1      -0.998  11.713  20.130  0.00  0.00    +0.000 OA
ATOM     12  C   UNL     1      -0.447  10.877  21.067  0.00  0.00    +0.000 A 
ATOM     13  C   UNL     1      -0.955  10.984  22.360  0.00  0.00    +0.000 A 
ATOM     14  C   UNL     1      -0.507  10.116  23.350  0.00  0.00    +0.000 A 
ATOM     15  C   UNL     1       0.447   9.176  23.008  0.00  0.00    +0.000 A 
ATOM     16  N   UNL     1       0.964   9.049  21.766  0.00  0.00    +0.000 NA
ATOM     17  C   UNL     1       0.525   9.904  20.803  0.00  0.00    +0.000 A 
ATOM     18  H   UNL     1       1.644   7.888  20.792  0.00  0.00    +0.000 HD
ATOM     19  H   UNL     1      -2.747  12.841  16.700  0.00  0.00    +0.000 HD
ENDROOT
BRANCH   1  24
ATOM     20  C   UNL     1       4.410   5.229  18.589  0.00  0.00    +0.000 A 
ATOM     21  C   UNL     1       3.852   4.039  19.092  0.00  0.00    +0.000 A 
ATOM     22  C   UNL     1       2.670   4.035  19.833  0.00  0.00    +0.000 A 
ATOM     23  C   UNL     1       2.009   5.231  20.099  0.00  0.00    +0.000 A 
ATOM     24  C   UNL     1       2.536   6.428  19.636  0.00  0.00    +0.000 A 
ATOM     25  C   UNL     1       3.721   6.418  18.893  0.00  0.00    +0.000 A 
BRANCH  20  26
ATOM     26  C   UNL     1       5.709   5.241  17.653  0.00  0.00    +0.000 C 
ATOM     27  C   UNL     1       6.708   4.059  17.800  0.00  0.00    +0.000 C 
ATOM     28  O   UNL     1       7.714   4.903  18.403  0.00  0.00    +0.000 OA
ATOM     29  C   UNL     1       6.925   6.080  18.149  0.00  0.00    +0.000 C 
BRANCH  26  30
ATOM     30  C   UNL     1       5.303   5.648  16.224  0.00  0.00    +0.000 C 
BRANCH  30  36
ATOM     31  C   UNL     1       5.086   3.754  13.628  0.00  0.00    +0.000 C 
ATOM     32  N   UNL     1       6.190   4.573  14.056  0.00  0.00    +0.000 N 
ATOM     33  C   UNL     1       7.348   4.725  13.349  0.00  0.00    +0.000 A 
ATOM     34  N   UNL     1       8.163   5.516  14.003  0.00  0.00    +0.000 NA
ATOM     35  N   UNL     1       7.528   5.901  15.154  0.00  0.00    +0.000 NA
ATOM     36  C   UNL     1       6.328   5.354  15.179  0.00  0.00    +0.000 A 
ENDBRANCH  30  36
ENDBRANCH  26  30
ENDBRANCH  20  26
ENDBRANCH   1  24
TORSDOF 4
ENDMDL
MODEL 8
REMARK VINA RESULT:     -10.4      0.737      1.226
REMARK  Name = 
REMARK  5 active torsions:
REMARK  status: ('A' for Active; 'I' for Inactive)
REMARK    1  A    between atoms: C_1  and  N_2
REMARK    2  A    between atoms: C_6  and  C_7
REMARK    3  A    between atoms: C_7  and  C_8
REMARK    4  A    between atoms: C_8  and  C_9
REMARK    5  A    between atoms: C_13  and  N_14
REMARK                            x       y       z     vdW  Elec       q    Type
REMARK                         _______ _______ _______ _____ _____    ______ ____
ROOT
ATOM      1  N   UNL     1       2.224   7.461  18.917  0.00  0.00    +0.000 N 
ATOM      2  C   UNL     1       2.022   8.649  18.267  0.00  0.00    +0.000 C 
ATOM      3  O   UNL     1       2.291   8.838  17.084  0.00  0.00    +0.000 OA
ATOM      4  N   UNL     1       1.427   9.644  19.041  0.00  0.00    +0.000 N 
ATOM      5  C   UNL     1       1.157  10.937  18.423  0.00  0.00    +0.000 C 
ATOM      6  C   UNL     1      -0.258  11.398  18.753  0.00  0.00    +0.000 C 
ATOM      7  C   UNL     1      -1.333  10.484  18.142  0.00  0.00    +0.000 C 
ATOM      8  C   UNL     1      -2.424  11.446  17.724  0.00  0.00    +0.000 C 
ATOM      9  N   UNL     1      -1.673  12.584  17.206  0.00  0.00    +0.000 NA
ATOM     10  C   UNL     1      -0.554  12.780  18.136  0.00  0.00    +0.000 C 
ATOM     11  O   UNL     1      -0.442  11.506  20.182  0.00  0.00    +0.000 OA
ATOM     12  C   UNL     1       0.093  10.464  20.897  0.00  0.00    +0.000 A 
ATOM     13  C   UNL     1      -0.352  10.330  22.210  0.00  0.00    +0.000 A 
ATOM     14  C   UNL     1       0.080   9.251  22.976  0.00  0.00    +0.000 A 
ATOM     15  C   UNL     1       0.953   8.351  22.397  0.00  0.00    +0.000 A 
ATOM     16  N   UNL     1       1.407   8.456  21.128  0.00  0.00    +0.000 NA
ATOM     17  C   UNL     1       0.985   9.514  20.386  0.00  0.00    +0.000 A 
ATOM     18  H   UNL     1       1.966   7.485  19.900  0.00  0.00    +0.000 HD
ATOM     19  H   UNL     1      -2.258  13.417  17.158  0.00  0.00    +0.000 HD
ENDROOT
BRANCH   1  24
ATOM     20  C   UNL     1       4.558   5.161  17.222  0.00  0.00    +0.000 A 
ATOM     21  C   UNL     1       3.855   3.949  17.357  0.00  0.00    +0.000 A 
ATOM     22  C   UNL     1       2.615   3.884  17.994  0.00  0.00    +0.000 A 
ATOM     23  C   UNL     1       2.039   5.036  18.521  0.00  0.00    +0.000 A 
ATOM     24  C   UNL     1       2.708   6.248  18.423  0.00  0.00    +0.000 A 
ATOM     25  C   UNL     1       3.950   6.300  17.782  0.00  0.00    +0.000 A 
BRANCH  20  26
ATOM     26  C   UNL     1       5.933   5.271  16.408  0.00  0.00    +0.000 C 
ATOM     27  C   UNL     1       6.925   4.079  16.514  0.00  0.00    +0.000 C 
ATOM     28  O   UNL     1       7.868   4.854  17.289  0.00  0.00    +0.000 OA
ATOM     29  C   UNL     1       7.094   6.052  17.094  0.00  0.00    +0.000 C 
BRANCH  26  30
ATOM     30  C   UNL     1       5.647   5.829  15.001  0.00  0.00    +0.000 C 
BRANCH  30  36
ATOM     31  C   UNL     1       8.217   5.601  13.073  0.00  0.00    +0.000 C 
ATOM     32  N   UNL     1       7.042   4.770  13.109  0.00  0.00    +0.000 N 
ATOM     33  C   UNL     1       6.864   3.663  12.331  0.00  0.00    +0.000 A 
ATOM     34  N   UNL     1       5.693   3.132  12.581  0.00  0.00    +0.000 NA
ATOM     35  N   UNL     1       5.093   3.895  13.549  0.00  0.00    +0.000 NA
ATOM     36  C   UNL     1       5.913   4.870  13.887  0.00  0.00    +0.000 A 
ENDBRANCH  30  36
ENDBRANCH  26  30
ENDBRANCH  20  26
ENDBRANCH   1  24
TORSDOF 4
ENDMDL
MODEL 9
REMARK VINA RESULT:     -10.3      2.284      9.157
REMARK  Name = 
REMARK  5 active torsions:
REMARK  status: ('A' for Active; 'I' for Inactive)
REMARK    1  A    between atoms: C_1  and  N_2
REMARK    2  A    between atoms: C_6  and  C_7
REMARK    3  A    between atoms: C_7  and  C_8
REMARK    4  A    between atoms: C_8  and  C_9
REMARK    5  A    between atoms: C_13  and  N_14
REMARK                            x       y       z     vdW  Elec       q    Type
REMARK                         _______ _______ _______ _____ _____    ______ ____
ROOT
ATOM      1  N   UNL     1       1.891   7.273  20.146  0.00  0.00    +0.000 N 
ATOM      2  C   UNL     1       2.642   7.143  19.009  0.00  0.00    +0.000 C 
ATOM      3  O   UNL     1       2.897   8.069  18.244  0.00  0.00    +0.000 OA
ATOM      4  N   UNL     1       3.158   5.866  18.792  0.00  0.00    +0.000 N 
ATOM      5  C   UNL     1       3.986   5.641  17.614  0.00  0.00    +0.000 C 
ATOM      6  C   UNL     1       5.244   4.866  17.989  0.00  0.00    +0.000 C 
ATOM      7  C   UNL     1       6.169   5.663  18.924  0.00  0.00    +0.000 C 
ATOM      8  C   UNL     1       7.559   5.300  18.445  0.00  0.00    +0.000 C 
ATOM      9  N   UNL     1       7.403   5.259  16.996  0.00  0.00    +0.000 NA
ATOM     10  C   UNL     1       6.121   4.588  16.751  0.00  0.00    +0.000 C 
ATOM     11  O   UNL     1       4.905   3.593  18.583  0.00  0.00    +0.000 OA
ATOM     12  C   UNL     1       3.876   3.653  19.488  0.00  0.00    +0.000 A 
ATOM     13  C   UNL     1       3.743   2.557  20.338  0.00  0.00    +0.000 A 
ATOM     14  C   UNL     1       2.776   2.575  21.338  0.00  0.00    +0.000 A 
ATOM     15  C   UNL     1       1.968   3.691  21.441  0.00  0.00    +0.000 A 
ATOM     16  N   UNL     1       2.068   4.767  20.630  0.00  0.00    +0.000 NA
ATOM     17  C   UNL     1       3.012   4.742  19.651  0.00  0.00    +0.000 A 
ATOM     18  H   UNL     1       1.760   6.400  20.651  0.00  0.00    +0.000 HD
ATOM     19  H   UNL     1       8.171   4.750  16.559  0.00  0.00    +0.000 HD
ENDROOT
BRANCH   1  24
ATOM     20  C   UNL     1       0.020  10.452  20.219  0.00  0.00    +0.000 A 
ATOM     21  C   UNL     1       0.085  10.748  21.593  0.00  0.00    +0.000 A 
ATOM     22  C   UNL     1       0.747   9.914  22.495  0.00  0.00    +0.000 A 
ATOM     23  C   UNL     1       1.365   8.750  22.047  0.00  0.00    +0.000 A 
ATOM     24  C   UNL     1       1.310   8.415  20.701  0.00  0.00    +0.000 A 
ATOM     25  C   UNL     1       0.643   9.258  19.807  0.00  0.00    +0.000 A 
BRANCH  20  26
ATOM     26  C   UNL     1      -0.648  11.446  19.156  0.00  0.00    +0.000 C 
ATOM     27  C   UNL     1      -1.972  12.148  19.568  0.00  0.00    +0.000 C 
ATOM     28  O   UNL     1      -2.747  11.375  18.624  0.00  0.00    +0.000 OA
ATOM     29  C   UNL     1      -1.552  10.802  18.062  0.00  0.00    +0.000 C 
BRANCH  26  30
ATOM     30  C   UNL     1       0.447  12.323  18.521  0.00  0.00    +0.000 C 
BRANCH  30  36
ATOM     31  C   UNL     1       2.437  13.489  20.769  0.00  0.00    +0.000 C 
ATOM     32  N   UNL     1       1.431  14.184  20.009  0.00  0.00    +0.000 N 
ATOM     33  C   UNL     1       1.204  15.527  20.089  0.00  0.00    +0.000 A 
ATOM     34  N   UNL     1       0.218  15.856  19.292  0.00  0.00    +0.000 NA
ATOM     35  N   UNL     1      -0.206  14.712  18.667  0.00  0.00    +0.000 NA
ATOM     36  C   UNL     1       0.539  13.705  19.079  0.00  0.00    +0.000 A 
ENDBRANCH  30  36
ENDBRANCH  26  30
ENDBRANCH  20  26
ENDBRANCH   1  24
TORSDOF 4
ENDMDL
