MODEL 1
REMARK VINA RESULT:      -8.3      0.000      0.000
REMARK  Name = 
REMARK  6 active torsions:
REMARK  status: ('A' for Active; 'I' for Inactive)
REMARK    1  A    between atoms: C_1  and  C_2
REMARK    2  A    between atoms: C_2  and  S_3
REMARK    3  A    between atoms: C_2  and  C_10
REMARK    4  A    between atoms: S_3  and  C_4
REMARK    5  A    between atoms: N_8  and  C_9
REMARK    6  A    between atoms: C_14  and  N_15
REMARK                            x       y       z     vdW  Elec       q    Type
REMARK                         _______ _______ _______ _____ _____    ______ ____
ROOT
ATOM      1  C   UNL     1      -0.016  10.408  19.720  0.00  0.00    +0.000 A 
ATOM      2  C   UNL     1      -0.594   9.892  20.892  0.00  0.00    +0.000 A 
ATOM      3  C   UNL     1      -0.086   8.744  21.497  0.00  0.00    +0.000 A 
ATOM      4  C   UNL     1       0.992   8.069  20.932  0.00  0.00    +0.000 A 
ATOM      5  C   UNL     1       1.584   8.543  19.765  0.00  0.00    +0.000 A 
ATOM      6  C   UNL     1       1.107   9.734  19.193  0.00  0.00    +0.000 A 
ENDROOT
BRANCH   5   7
ATOM      7  N   UNL     1       2.626   7.867  19.100  0.00  0.00    +0.000 N 
ATOM      8  C   UNL     1       2.619   6.567  18.639  0.00  0.00    +0.000 C 
ATOM      9  O   UNL     1       1.724   5.742  18.776  0.00  0.00    +0.000 OA
ATOM     10  N   UNL     1       3.780   6.237  17.982  0.00  0.00    +0.000 N 
ATOM     11  C   UNL     1       4.040   4.983  17.267  0.00  0.00    +0.000 C 
ATOM     12  C   UNL     1       5.334   5.700  16.779  0.00  0.00    +0.000 C 
ATOM     13  C   UNL     1       5.846   5.446  15.382  0.00  0.00    +0.000 C 
ATOM     14  C   UNL     1       6.553   4.106  15.397  0.00  0.00    +0.000 C 
ATOM     15  O   UNL     1       7.612   4.051  16.367  0.00  0.00    +0.000 OA
ATOM     16  C   UNL     1       7.498   4.668  17.572  0.00  0.00    +0.000 C 
ATOM     17  O   UNL     1       8.298   4.484  18.482  0.00  0.00    +0.000 OA
ATOM     18  N   UNL     1       6.455   5.531  17.727  0.00  0.00    +0.000 N 
ATOM     19  C   UNL     1       4.534   7.014  16.999  0.00  0.00    +0.000 C 
ATOM     20  H   UNL     1       3.467   8.392  18.920  0.00  0.00    +0.000 HD
ATOM     21  H   UNL     1       6.387   5.895  18.672  0.00  0.00    +0.000 HD
ENDBRANCH   5   7
BRANCH   1  23
ATOM     22  C   UNL     1      -0.155  12.975  19.612  0.00  0.00    +0.000 C 
ATOM     23  C   UNL     1      -0.583  11.634  18.993  0.00  0.00    +0.000 C 
BRANCH  23  24
ATOM     24  S   UNL     1      -2.427  11.513  18.986  0.00  0.00    +0.000 S 
BRANCH  24  25
ATOM     25  C   UNL     1      -2.755  10.859  17.425  0.00  0.00    +0.000 A 
ATOM     26  N   UNL     1      -1.977  10.093  16.698  0.00  0.00    +0.000 NA
ATOM     27  N   UNL     1      -2.604   9.896  15.485  0.00  0.00    +0.000 NA
ATOM     28  C   UNL     1      -3.753  10.532  15.523  0.00  0.00    +0.000 A 
ATOM     29  N   UNL     1      -3.905  11.125  16.740  0.00  0.00    +0.000 N 
ATOM     30  C   UNL     1      -5.045  11.883  17.179  0.00  0.00    +0.000 C 
ENDBRANCH  24  25
ENDBRANCH  23  24
ENDBRANCH   1  23
TORSDOF 4
ENDMDL
MODEL 2
REMARK VINA RESULT:      -8.1      0.889      1.133
REMARK  Name = 
REMARK  6 active torsions:
REMARK  status: ('A' for Active; 'I' for Inactive)
REMARK    1  A    between atoms: C_1  and  C_2
REMARK    2  A    between atoms: C_2  and  S_3
REMARK    3  A    between atoms: C_2  and  C_10
REMARK    4  A    between atoms: S_3  and  C_4
REMARK    5  A    between atoms: N_8  and  C_9
REMARK    6  A    between atoms: C_14  and  N_15
REMARK                            x       y       z     vdW  Elec       q    Type
REMARK                         _______ _______ _______ _____ _____    ______ ____
ROOT
ATOM      1  C   UNL     1      -0.065  10.247  19.609  0.00  0.00    +0.000 A 
ATOM      2  C   UNL     1      -0.553   9.797  20.847  0.00  0.00    +0.000 A 
ATOM      3  C   UNL     1       0.046   8.726  21.507  0.00  0.00    +0.000 A 
ATOM      4  C   UNL     1       1.127   8.062  20.935  0.00  0.00    +0.000 A 
ATOM      5  C   UNL     1       1.631   8.471  19.704  0.00  0.00    +0.000 A 
ATOM      6  C   UNL     1       1.062   9.589  19.072  0.00  0.00    +0.000 A 
ENDROOT
BRANCH   5   7
ATOM      7  N   UNL     1       2.671   7.797  19.035  0.00  0.00    +0.000 N 
ATOM      8  C   UNL     1       2.668   6.492  18.584  0.00  0.00    +0.000 C 
ATOM      9  O   UNL     1       1.780   5.663  18.737  0.00  0.00    +0.000 OA
ATOM     10  N   UNL     1       3.825   6.165  17.918  0.00  0.00    +0.000 N 
ATOM     11  C   UNL     1       4.085   4.906  17.211  0.00  0.00    +0.000 C 
ATOM     12  C   UNL     1       5.370   5.628  16.704  0.00  0.00    +0.000 C 
ATOM     13  C   UNL     1       5.870   5.366  15.305  0.00  0.00    +0.000 C 
ATOM     14  C   UNL     1       6.586   4.031  15.324  0.00  0.00    +0.000 C 
ATOM     15  O   UNL     1       7.654   3.991  16.284  0.00  0.00    +0.000 OA
ATOM     16  C   UNL     1       7.549   4.617  17.484  0.00  0.00    +0.000 C 
ATOM     17  O   UNL     1       8.358   4.445  18.387  0.00  0.00    +0.000 OA
ATOM     18  N   UNL     1       6.501   5.474  17.642  0.00  0.00    +0.000 N 
ATOM     19  C   UNL     1       4.563   6.938  16.921  0.00  0.00    +0.000 C 
ATOM     20  H   UNL     1       3.507   8.325  18.842  0.00  0.00    +0.000 HD
ATOM     21  H   UNL     1       6.441   5.846  18.585  0.00  0.00    +0.000 HD
ENDBRANCH   5   7
BRANCH   1  23
ATOM     22  C   UNL     1       0.159  12.623  18.648  0.00  0.00    +0.000 C 
ATOM     23  C   UNL     1      -0.734  11.383  18.825  0.00  0.00    +0.000 C 
BRANCH  23  24
ATOM     24  S   UNL     1      -2.295  11.858  19.693  0.00  0.00    +0.000 S 
BRANCH  24  25
ATOM     25  C   UNL     1      -3.479  11.705  18.449  0.00  0.00    +0.000 A 
ATOM     26  N   UNL     1      -3.293  11.314  17.210  0.00  0.00    +0.000 NA
ATOM     27  N   UNL     1      -4.497  11.442  16.549  0.00  0.00    +0.000 NA
ATOM     28  C   UNL     1      -5.381  11.887  17.415  0.00  0.00    +0.000 A 
ATOM     29  N   UNL     1      -4.789  12.035  18.633  0.00  0.00    +0.000 N 
ATOM     30  C   UNL     1      -5.435  12.467  19.843  0.00  0.00    +0.000 C 
ENDBRANCH  24  25
ENDBRANCH  23  24
ENDBRANCH   1  23
TORSDOF 4
ENDMDL
MODEL 3
REMARK VINA RESULT:      -8.0      4.038      9.442
REMARK  Name = 
REMARK  6 active torsions:
REMARK  status: ('A' for Active; 'I' for Inactive)
REMARK    1  A    between atoms: C_1  and  C_2
REMARK    2  A    between atoms: C_2  and  S_3
REMARK    3  A    between atoms: C_2  and  C_10
REMARK    4  A    between atoms: S_3  and  C_4
REMARK    5  A    between atoms: N_8  and  C_9
REMARK    6  A    between atoms: C_14  and  N_15
REMARK                            x       y       z     vdW  Elec       q    Type
REMARK                         _______ _______ _______ _____ _____    ______ ____
ROOT
ATOM      1  C   UNL     1       4.242   5.796  17.523  0.00  0.00    +0.000 A 
ATOM      2  C   UNL     1       3.951   4.564  18.131  0.00  0.00    +0.000 A 
ATOM      3  C   UNL     1       2.962   4.462  19.108  0.00  0.00    +0.000 A 
ATOM      4  C   UNL     1       2.263   5.592  19.522  0.00  0.00    +0.000 A 
ATOM      5  C   UNL     1       2.532   6.833  18.951  0.00  0.00    +0.000 A 
ATOM      6  C   UNL     1       3.486   6.919  17.924  0.00  0.00    +0.000 A 
ENDROOT
BRANCH   5   7
ATOM      7  N   UNL     1       1.916   8.026  19.376  0.00  0.00    +0.000 N 
ATOM      8  C   UNL     1       1.571   9.113  18.598  0.00  0.00    +0.000 C 
ATOM      9  O   UNL     1       1.792   9.261  17.402  0.00  0.00    +0.000 OA
ATOM     10  N   UNL     1       0.931  10.092  19.319  0.00  0.00    +0.000 N 
ATOM     11  C   UNL     1       0.326  11.310  18.770  0.00  0.00    +0.000 C 
ATOM     12  C   UNL     1      -0.240  11.501  20.208  0.00  0.00    +0.000 C 
ATOM     13  C   UNL     1      -1.616  12.093  20.397  0.00  0.00    +0.000 C 
ATOM     14  C   UNL     1      -1.492  13.592  20.209  0.00  0.00    +0.000 C 
ATOM     15  O   UNL     1      -0.534  14.183  21.103  0.00  0.00    +0.000 OA
ATOM     16  C   UNL     1       0.613  13.537  21.437  0.00  0.00    +0.000 C 
ATOM     17  O   UNL     1       1.525  14.088  22.041  0.00  0.00    +0.000 OA
ATOM     18  N   UNL     1       0.705  12.223  21.086  0.00  0.00    +0.000 N 
ATOM     19  C   UNL     1      -0.126   9.956  20.320  0.00  0.00    +0.000 C 
ATOM     20  H   UNL     1       1.679   8.094  20.353  0.00  0.00    +0.000 HD
ATOM     21  H   UNL     1       1.615  11.826  21.298  0.00  0.00    +0.000 HD
ENDBRANCH   5   7
BRANCH   1  23
ATOM     22  C   UNL     1       5.045   6.984  15.387  0.00  0.00    +0.000 C 
ATOM     23  C   UNL     1       5.362   5.958  16.487  0.00  0.00    +0.000 C 
BRANCH  23  24
ATOM     24  S   UNL     1       5.701   4.309  15.723  0.00  0.00    +0.000 S 
BRANCH  24  25
ATOM     25  C   UNL     1       6.790   4.703  14.447  0.00  0.00    +0.000 A 
ATOM     26  N   UNL     1       7.847   5.477  14.506  0.00  0.00    +0.000 NA
ATOM     27  N   UNL     1       8.356   5.585  13.228  0.00  0.00    +0.000 NA
ATOM     28  C   UNL     1       7.603   4.854  12.437  0.00  0.00    +0.000 A 
ATOM     29  N   UNL     1       6.624   4.253  13.170  0.00  0.00    +0.000 N 
ATOM     30  C   UNL     1       5.623   3.349  12.670  0.00  0.00    +0.000 C 
ENDBRANCH  24  25
ENDBRANCH  23  24
ENDBRANCH   1  23
TORSDOF 4
ENDMDL
MODEL 4
REMARK VINA RESULT:      -7.9      7.042     10.035
REMARK  Name = 
REMARK  6 active torsions:
REMARK  status: ('A' for Active; 'I' for Inactive)
REMARK    1  A    between atoms: C_1  and  C_2
REMARK    2  A    between atoms: C_2  and  S_3
REMARK    3  A    between atoms: C_2  and  C_10
REMARK    4  A    between atoms: S_3  and  C_4
REMARK    5  A    between atoms: N_8  and  C_9
REMARK    6  A    between atoms: C_14  and  N_15
REMARK                            x       y       z     vdW  Elec       q    Type
REMARK                         _______ _______ _______ _____ _____    ______ ____
ROOT
ATOM      1  C   UNL     1       6.465   6.397  17.430  0.00  0.00    +0.000 A 
ATOM      2  C   UNL     1       7.027   5.470  18.323  0.00  0.00    +0.000 A 
ATOM      3  C   UNL     1       8.060   5.839  19.182  0.00  0.00    +0.000 A 
ATOM      4  C   UNL     1       8.576   7.132  19.150  0.00  0.00    +0.000 A 
ATOM      5  C   UNL     1       8.053   8.075  18.269  0.00  0.00    +0.000 A 
ATOM      6  C   UNL     1       6.971   7.715  17.449  0.00  0.00    +0.000 A 
ENDROOT
BRANCH   5   7
ATOM      7  N   UNL     1       8.578   9.374  18.132  0.00  0.00    +0.000 N 
ATOM      8  C   UNL     1       9.075  10.185  19.131  0.00  0.00    +0.000 C 
ATOM      9  O   UNL     1       9.097   9.945  20.332  0.00  0.00    +0.000 OA
ATOM     10  N   UNL     1       9.565  11.375  18.647  0.00  0.00    +0.000 N 
ATOM     11  C   UNL     1      10.272  12.397  19.425  0.00  0.00    +0.000 C 
ATOM     12  C   UNL     1      10.542  13.055  18.040  0.00  0.00    +0.000 C 
ATOM     13  C   UNL     1      11.855  13.755  17.789  0.00  0.00    +0.000 C 
ATOM     14  C   UNL     1      11.778  15.112  18.457  0.00  0.00    +0.000 C 
ATOM     15  O   UNL     1      10.665  15.894  17.994  0.00  0.00    +0.000 OA
ATOM     16  C   UNL     1       9.471  15.317  17.699  0.00  0.00    +0.000 C 
ATOM     17  O   UNL     1       8.460  15.975  17.483  0.00  0.00    +0.000 OA
ATOM     18  N   UNL     1       9.445  13.957  17.629  0.00  0.00    +0.000 N 
ATOM     19  C   UNL     1      10.401  11.615  17.472  0.00  0.00    +0.000 C 
ATOM     20  H   UNL     1       8.616   9.754  17.199  0.00  0.00    +0.000 HD
ATOM     21  H   UNL     1       8.509  13.592  17.481  0.00  0.00    +0.000 HD
ENDBRANCH   5   7
BRANCH   1  23
ATOM     22  C   UNL     1       3.957   5.980  17.038  0.00  0.00    +0.000 C 
ATOM     23  C   UNL     1       5.367   6.014  16.428  0.00  0.00    +0.000 C 
BRANCH  23  24
ATOM     24  S   UNL     1       5.777   4.360  15.712  0.00  0.00    +0.000 S 
BRANCH  24  25
ATOM     25  C   UNL     1       6.834   4.764  14.412  0.00  0.00    +0.000 A 
ATOM     26  N   UNL     1       7.884   5.550  14.448  0.00  0.00    +0.000 NA
ATOM     27  N   UNL     1       8.364   5.662  13.160  0.00  0.00    +0.000 NA
ATOM     28  C   UNL     1       7.601   4.923  12.386  0.00  0.00    +0.000 A 
ATOM     29  N   UNL     1       6.645   4.313  13.139  0.00  0.00    +0.000 N 
ATOM     30  C   UNL     1       5.644   3.398  12.661  0.00  0.00    +0.000 C 
ENDBRANCH  24  25
ENDBRANCH  23  24
ENDBRANCH   1  23
TORSDOF 4
ENDMDL
MODEL 5
REMARK VINA RESULT:      -7.9      2.400      3.130
REMARK  Name = 
REMARK  6 active torsions:
REMARK  status: ('A' for Active; 'I' for Inactive)
REMARK    1  A    between atoms: C_1  and  C_2
REMARK    2  A    between atoms: C_2  and  S_3
REMARK    3  A    between atoms: C_2  and  C_10
REMARK    4  A    between atoms: S_3  and  C_4
REMARK    5  A    between atoms: N_8  and  C_9
REMARK    6  A    between atoms: C_14  and  N_15
REMARK                            x       y       z     vdW  Elec       q    Type
REMARK                         _______ _______ _______ _____ _____    ______ ____
ROOT
ATOM      1  C   UNL     1      -0.333   9.954  20.038  0.00  0.00    +0.000 A 
ATOM      2  C   UNL     1      -0.601   9.613  21.374  0.00  0.00    +0.000 A 
ATOM      3  C   UNL     1       0.205   8.705  22.058  0.00  0.00    +0.000 A 
ATOM      4  C   UNL     1       1.279   8.095  21.416  0.00  0.00    +0.000 A 
ATOM      5  C   UNL     1       1.569   8.398  20.089  0.00  0.00    +0.000 A 
ATOM      6  C   UNL     1       0.790   9.359  19.423  0.00  0.00    +0.000 A 
ENDROOT
BRANCH   5   7
ATOM      7  N   UNL     1       2.591   7.761  19.359  0.00  0.00    +0.000 N 
ATOM      8  C   UNL     1       2.588   6.472  18.866  0.00  0.00    +0.000 C 
ATOM      9  O   UNL     1       1.717   5.625  19.024  0.00  0.00    +0.000 OA
ATOM     10  N   UNL     1       3.723   6.184  18.146  0.00  0.00    +0.000 N 
ATOM     11  C   UNL     1       3.973   4.953  17.388  0.00  0.00    +0.000 C 
ATOM     12  C   UNL     1       5.227   5.709  16.857  0.00  0.00    +0.000 C 
ATOM     13  C   UNL     1       5.677   5.500  15.432  0.00  0.00    +0.000 C 
ATOM     14  C   UNL     1       6.410   4.176  15.380  0.00  0.00    +0.000 C 
ATOM     15  O   UNL     1       7.515   4.120  16.297  0.00  0.00    +0.000 OA
ATOM     16  C   UNL     1       7.447   4.705  17.521  0.00  0.00    +0.000 C 
ATOM     17  O   UNL     1       8.293   4.516  18.386  0.00  0.00    +0.000 OA
ATOM     18  N   UNL     1       6.396   5.541  17.747  0.00  0.00    +0.000 N 
ATOM     19  C   UNL     1       4.412   7.000  17.148  0.00  0.00    +0.000 C 
ATOM     20  H   UNL     1       3.411   8.308  19.152  0.00  0.00    +0.000 HD
ATOM     21  H   UNL     1       6.366   5.881  18.703  0.00  0.00    +0.000 HD
ENDBRANCH   5   7
BRANCH   1  23
ATOM     22  C   UNL     1      -1.451  10.464  17.778  0.00  0.00    +0.000 C 
ATOM     23  C   UNL     1      -1.231  10.904  19.234  0.00  0.00    +0.000 C 
BRANCH  23  24
ATOM     24  S   UNL     1      -0.482  12.593  19.269  0.00  0.00    +0.000 S 
BRANCH  24  25
ATOM     25  C   UNL     1      -0.655  13.047  20.923  0.00  0.00    +0.000 A 
ATOM     26  N   UNL     1       0.272  13.064  21.851  0.00  0.00    +0.000 NA
ATOM     27  N   UNL     1      -0.337  13.395  23.043  0.00  0.00    +0.000 NA
ATOM     28  C   UNL     1      -1.613  13.590  22.796  0.00  0.00    +0.000 A 
ATOM     29  N   UNL     1      -1.852  13.414  21.467  0.00  0.00    +0.000 N 
ATOM     30  C   UNL     1      -3.117  13.573  20.802  0.00  0.00    +0.000 C 
ENDBRANCH  24  25
ENDBRANCH  23  24
ENDBRANCH   1  23
TORSDOF 4
ENDMDL
MODEL 6
REMARK VINA RESULT:      -7.8      2.635      3.937
REMARK  Name = 
REMARK  6 active torsions:
REMARK  status: ('A' for Active; 'I' for Inactive)
REMARK    1  A    between atoms: C_1  and  C_2
REMARK    2  A    between atoms: C_2  and  S_3
REMARK    3  A    between atoms: C_2  and  C_10
REMARK    4  A    between atoms: S_3  and  C_4
REMARK    5  A    between atoms: N_8  and  C_9
REMARK    6  A    between atoms: C_14  and  N_15
REMARK                            x       y       z     vdW  Elec       q    Type
REMARK                         _______ _______ _______ _____ _____    ______ ____
ROOT
ATOM      1  C   UNL     1      -2.069  11.400  19.318  0.00  0.00    +0.000 A 
ATOM      2  C   UNL     1      -1.583  12.422  20.151  0.00  0.00    +0.000 A 
ATOM      3  C   UNL     1      -0.292  12.368  20.672  0.00  0.00    +0.000 A 
ATOM      4  C   UNL     1       0.533  11.281  20.399  0.00  0.00    +0.000 A 
ATOM      5  C   UNL     1       0.082  10.243  19.589  0.00  0.00    +0.000 A 
ATOM      6  C   UNL     1      -1.197  10.332  19.016  0.00  0.00    +0.000 A 
ENDROOT
BRANCH   5   7
ATOM      7  N   UNL     1       0.836   9.081  19.335  0.00  0.00    +0.000 N 
ATOM      8  C   UNL     1       1.814   8.911  18.377  0.00  0.00    +0.000 C 
ATOM      9  O   UNL     1       2.165   9.724  17.530  0.00  0.00    +0.000 OA
ATOM     10  N   UNL     1       2.396   7.667  18.435  0.00  0.00    +0.000 N 
ATOM     11  C   UNL     1       3.545   7.215  17.645  0.00  0.00    +0.000 C 
ATOM     12  C   UNL     1       3.503   5.963  18.572  0.00  0.00    +0.000 C 
ATOM     13  C   UNL     1       4.793   5.303  18.993  0.00  0.00    +0.000 C 
ATOM     14  C   UNL     1       5.273   4.464  17.826  0.00  0.00    +0.000 C 
ATOM     15  O   UNL     1       4.297   3.498  17.402  0.00  0.00    +0.000 OA
ATOM     16  C   UNL     1       2.970   3.784  17.412  0.00  0.00    +0.000 C 
ATOM     17  O   UNL     1       2.137   3.056  16.885  0.00  0.00    +0.000 OA
ATOM     18  N   UNL     1       2.589   4.921  18.059  0.00  0.00    +0.000 N 
ATOM     19  C   UNL     1       2.837   6.912  19.607  0.00  0.00    +0.000 C 
ATOM     20  H   UNL     1       0.661   8.286  19.929  0.00  0.00    +0.000 HD
ATOM     21  H   UNL     1       1.597   5.112  17.962  0.00  0.00    +0.000 HD
ENDBRANCH   5   7
BRANCH   1  23
ATOM     22  C   UNL     1      -3.583  11.391  17.239  0.00  0.00    +0.000 C 
ATOM     23  C   UNL     1      -3.504  11.395  18.774  0.00  0.00    +0.000 C 
BRANCH  23  24
ATOM     24  S   UNL     1      -4.391  12.873  19.440  0.00  0.00    +0.000 S 
BRANCH  24  25
ATOM     25  C   UNL     1      -5.763  12.171  20.213  0.00  0.00    +0.000 A 
ATOM     26  N   UNL     1      -5.938  11.958  21.496  0.00  0.00    +0.000 NA
ATOM     27  N   UNL     1      -7.134  11.287  21.647  0.00  0.00    +0.000 NA
ATOM     28  C   UNL     1      -7.657  11.133  20.451  0.00  0.00    +0.000 A 
ATOM     29  N   UNL     1      -6.842  11.705  19.521  0.00  0.00    +0.000 N 
ATOM     30  C   UNL     1      -7.087  11.775  18.106  0.00  0.00    +0.000 C 
ENDBRANCH  24  25
ENDBRANCH  23  24
ENDBRANCH   1  23
TORSDOF 4
ENDMDL
MODEL 7
REMARK VINA RESULT:      -7.8      2.521      3.592
REMARK  Name = 
REMARK  6 active torsions:
REMARK  status: ('A' for Active; 'I' for Inactive)
REMARK    1  A    between atoms: C_1  and  C_2
REMARK    2  A    between atoms: C_2  and  S_3
REMARK    3  A    between atoms: C_2  and  C_10
REMARK    4  A    between atoms: S_3  and  C_4
REMARK    5  A    between atoms: N_8  and  C_9
REMARK    6  A    between atoms: C_14  and  N_15
REMARK                            x       y       z     vdW  Elec       q    Type
REMARK                         _______ _______ _______ _____ _____    ______ ____
ROOT
ATOM      1  C   UNL     1       0.086  10.196  20.176  0.00  0.00    +0.000 A 
ATOM      2  C   UNL     1      -0.492   9.573  21.295  0.00  0.00    +0.000 A 
ATOM      3  C   UNL     1      -0.008   8.353  21.765  0.00  0.00    +0.000 A 
ATOM      4  C   UNL     1       1.043   7.714  21.114  0.00  0.00    +0.000 A 
ATOM      5  C   UNL     1       1.632   8.294  19.994  0.00  0.00    +0.000 A 
ATOM      6  C   UNL     1       1.181   9.552  19.561  0.00  0.00    +0.000 A 
ENDROOT
BRANCH   5   7
ATOM      7  N   UNL     1       2.644   7.665  19.244  0.00  0.00    +0.000 N 
ATOM      8  C   UNL     1       2.638   6.380  18.741  0.00  0.00    +0.000 C 
ATOM      9  O   UNL     1       1.772   5.529  18.907  0.00  0.00    +0.000 OA
ATOM     10  N   UNL     1       3.762   6.100  18.002  0.00  0.00    +0.000 N 
ATOM     11  C   UNL     1       4.004   4.875  17.232  0.00  0.00    +0.000 C 
ATOM     12  C   UNL     1       5.248   5.639  16.687  0.00  0.00    +0.000 C 
ATOM     13  C   UNL     1       5.676   5.442  15.253  0.00  0.00    +0.000 C 
ATOM     14  C   UNL     1       6.413   4.120  15.180  0.00  0.00    +0.000 C 
ATOM     15  O   UNL     1       7.532   4.061  16.080  0.00  0.00    +0.000 OA
ATOM     16  C   UNL     1       7.481   4.637  17.309  0.00  0.00    +0.000 C 
ATOM     17  O   UNL     1       8.341   4.445  18.160  0.00  0.00    +0.000 OA
ATOM     18  N   UNL     1       6.430   5.468  17.557  0.00  0.00    +0.000 N 
ATOM     19  C   UNL     1       4.434   6.925  17.000  0.00  0.00    +0.000 C 
ATOM     20  H   UNL     1       3.460   8.216  19.028  0.00  0.00    +0.000 HD
ATOM     21  H   UNL     1       6.415   5.802  18.516  0.00  0.00    +0.000 HD
ENDBRANCH   5   7
BRANCH   1  23
ATOM     22  C   UNL     1      -1.559  11.309  18.541  0.00  0.00    +0.000 C 
ATOM     23  C   UNL     1      -0.457  11.507  19.593  0.00  0.00    +0.000 C 
BRANCH  23  24
ATOM     24  S   UNL     1       0.951  12.448  18.852  0.00  0.00    +0.000 S 
BRANCH  24  25
ATOM     25  C   UNL     1       1.423  13.494  20.138  0.00  0.00    +0.000 A 
ATOM     26  N   UNL     1       2.256  13.234  21.118  0.00  0.00    +0.000 NA
ATOM     27  N   UNL     1       2.253  14.322  21.965  0.00  0.00    +0.000 NA
ATOM     28  C   UNL     1       1.435  15.218  21.460  0.00  0.00    +0.000 A 
ATOM     29  N   UNL     1       0.915  14.751  20.291  0.00  0.00    +0.000 N 
ATOM     30  C   UNL     1       0.007  15.454  19.425  0.00  0.00    +0.000 C 
ENDBRANCH  24  25
ENDBRANCH  23  24
ENDBRANCH   1  23
TORSDOF 4
ENDMDL
MODEL 8
REMARK VINA RESULT:      -7.8      2.996      4.331
REMARK  Name = 
REMARK  6 active torsions:
REMARK  status: ('A' for Active; 'I' for Inactive)
REMARK    1  A    between atoms: C_1  and  C_2
REMARK    2  A    between atoms: C_2  and  S_3
REMARK    3  A    between atoms: C_2  and  C_10
REMARK    4  A    between atoms: S_3  and  C_4
REMARK    5  A    between atoms: N_8  and  C_9
REMARK    6  A    between atoms: C_14  and  N_15
REMARK                            x       y       z     vdW  Elec       q    Type
REMARK                         _______ _______ _______ _____ _____    ______ ____
ROOT
ATOM      1  C   UNL     1      -0.876  11.724  19.100  0.00  0.00    +0.000 A 
ATOM      2  C   UNL     1      -0.139  12.906  18.917  0.00  0.00    +0.000 A 
ATOM      3  C   UNL     1       1.221  12.862  18.615  0.00  0.00    +0.000 A 
ATOM      4  C   UNL     1       1.882  11.641  18.519  0.00  0.00    +0.000 A 
ATOM      5  C   UNL     1       1.188  10.449  18.707  0.00  0.00    +0.000 A 
ATOM      6  C   UNL     1      -0.195  10.497  18.949  0.00  0.00    +0.000 A 
ENDROOT
BRANCH   5   7
ATOM      7  N   UNL     1       1.810   9.186  18.699  0.00  0.00    +0.000 N 
ATOM      8  C   UNL     1       1.794   8.239  19.703  0.00  0.00    +0.000 C 
ATOM      9  O   UNL     1       1.283   8.350  20.811  0.00  0.00    +0.000 OA
ATOM     10  N   UNL     1       2.454   7.087  19.349  0.00  0.00    +0.000 N 
ATOM     11  C   UNL     1       2.511   5.851  20.135  0.00  0.00    +0.000 C 
ATOM     12  C   UNL     1       3.180   5.247  18.864  0.00  0.00    +0.000 C 
ATOM     13  C   UNL     1       2.894   3.817  18.478  0.00  0.00    +0.000 C 
ATOM     14  C   UNL     1       3.729   2.930  19.380  0.00  0.00    +0.000 C 
ATOM     15  O   UNL     1       5.133   3.230  19.302  0.00  0.00    +0.000 OA
ATOM     16  C   UNL     1       5.576   4.505  19.160  0.00  0.00    +0.000 C 
ATOM     17  O   UNL     1       6.758   4.806  19.279  0.00  0.00    +0.000 OA
ATOM     18  N   UNL     1       4.644   5.451  18.856  0.00  0.00    +0.000 N 
ATOM     19  C   UNL     1       2.401   6.346  18.090  0.00  0.00    +0.000 C 
ATOM     20  H   UNL     1       2.308   8.928  17.861  0.00  0.00    +0.000 HD
ATOM     21  H   UNL     1       5.031   6.390  18.840  0.00  0.00    +0.000 HD
ENDBRANCH   5   7
BRANCH   1  23
ATOM     22  C   UNL     1      -3.314  11.528  18.303  0.00  0.00    +0.000 C 
ATOM     23  C   UNL     1      -2.360  11.733  19.491  0.00  0.00    +0.000 C 
BRANCH  23  24
ATOM     24  S   UNL     1      -2.740  13.337  20.326  0.00  0.00    +0.000 S 
BRANCH  24  25
ATOM     25  C   UNL     1      -3.409  12.829  21.831  0.00  0.00    +0.000 A 
ATOM     26  N   UNL     1      -4.645  12.464  22.075  0.00  0.00    +0.000 NA
ATOM     27  N   UNL     1      -4.752  12.239  23.431  0.00  0.00    +0.000 NA
ATOM     28  C   UNL     1      -3.571  12.455  23.965  0.00  0.00    +0.000 A 
ATOM     29  N   UNL     1      -2.686  12.797  22.987  0.00  0.00    +0.000 N 
ATOM     30  C   UNL     1      -1.287  13.077  23.167  0.00  0.00    +0.000 C 
ENDBRANCH  24  25
ENDBRANCH  23  24
ENDBRANCH   1  23
TORSDOF 4
ENDMDL
MODEL 9
REMARK VINA RESULT:      -7.8      2.541      3.500
REMARK  Name = 
REMARK  6 active torsions:
REMARK  status: ('A' for Active; 'I' for Inactive)
REMARK    1  A    between atoms: C_1  and  C_2
REMARK    2  A    between atoms: C_2  and  S_3
REMARK    3  A    between atoms: C_2  and  C_10
REMARK    4  A    between atoms: S_3  and  C_4
REMARK    5  A    between atoms: N_8  and  C_9
REMARK    6  A    between atoms: C_14  and  N_15
REMARK                            x       y       z     vdW  Elec       q    Type
REMARK                         _______ _______ _______ _____ _____    ______ ____
ROOT
ATOM      1  C   UNL     1      -1.580  11.445  19.524  0.00  0.00    +0.000 A 
ATOM      2  C   UNL     1      -1.171  12.446  20.420  0.00  0.00    +0.000 A 
ATOM      3  C   UNL     1       0.092  12.409  21.008  0.00  0.00    +0.000 A 
ATOM      4  C   UNL     1       0.963  11.357  20.739  0.00  0.00    +0.000 A 
ATOM      5  C   UNL     1       0.588  10.340  19.867  0.00  0.00    +0.000 A 
ATOM      6  C   UNL     1      -0.661  10.414  19.229  0.00  0.00    +0.000 A 
ENDROOT
BRANCH   5   7
ATOM      7  N   UNL     1       1.389   9.210  19.611  0.00  0.00    +0.000 N 
ATOM      8  C   UNL     1       1.402   8.018  20.307  0.00  0.00    +0.000 C 
ATOM      9  O   UNL     1       0.759   7.747  21.314  0.00  0.00    +0.000 OA
ATOM     10  N   UNL     1       2.263   7.099  19.758  0.00  0.00    +0.000 N 
ATOM     11  C   UNL     1       2.416   5.703  20.180  0.00  0.00    +0.000 C 
ATOM     12  C   UNL     1       3.307   5.571  18.909  0.00  0.00    +0.000 C 
ATOM     13  C   UNL     1       3.285   4.289  18.111  0.00  0.00    +0.000 C 
ATOM     14  C   UNL     1       4.136   3.280  18.854  0.00  0.00    +0.000 C 
ATOM     15  O   UNL     1       5.478   3.744  19.073  0.00  0.00    +0.000 OA
ATOM     16  C   UNL     1       5.738   5.048  19.350  0.00  0.00    +0.000 C 
ATOM     17  O   UNL     1       6.841   5.432  19.722  0.00  0.00    +0.000 OA
ATOM     18  N   UNL     1       4.715   5.931  19.176  0.00  0.00    +0.000 N 
ATOM     19  C   UNL     1       2.464   6.751  18.352  0.00  0.00    +0.000 C 
ATOM     20  H   UNL     1       2.011   9.262  18.820  0.00  0.00    +0.000 HD
ATOM     21  H   UNL     1       4.957   6.871  19.474  0.00  0.00    +0.000 HD
ENDBRANCH   5   7
BRANCH   1  23
ATOM     22  C   UNL     1      -2.979  11.417  17.365  0.00  0.00    +0.000 C 
ATOM     23  C   UNL     1      -2.983  11.420  18.902  0.00  0.00    +0.000 C 
BRANCH  23  24
ATOM     24  S   UNL     1      -3.926  12.884  19.520  0.00  0.00    +0.000 S 
BRANCH  24  25
ATOM     25  C   UNL     1      -5.388  12.174  20.095  0.00  0.00    +0.000 A 
ATOM     26  N   UNL     1      -5.729  11.939  21.340  0.00  0.00    +0.000 NA
ATOM     27  N   UNL     1      -6.935  11.270  21.321  0.00  0.00    +0.000 NA
ATOM     28  C   UNL     1      -7.299  11.140  20.065  0.00  0.00    +0.000 A 
ATOM     29  N   UNL     1      -6.369  11.725  19.260  0.00  0.00    +0.000 N 
ATOM     30  C   UNL     1      -6.427  11.821  17.826  0.00  0.00    +0.000 C 
ENDBRANCH  24  25
ENDBRANCH  23  24
ENDBRANCH   1  23
TORSDOF 4
ENDMDL
