MODEL 1
REMARK VINA RESULT:      -9.4      0.000      0.000
REMARK  Name = 
REMARK  10 active torsions:
REMARK  status: ('A' for Active; 'I' for Inactive)
REMARK    1  A    between atoms: C_1  and  C_2
REMARK    2  A    between atoms: C_2  and  C_3
REMARK    3  A    between atoms: C_2  and  N_32
REMARK    4  A    between atoms: C_5  and  C_6
REMARK    5  A    between atoms: N_8  and  C_9
REMARK    6  A    between atoms: C_13  and  C_14
REMARK    7  A    between atoms: C_14  and  C_15
REMARK    8  A    between atoms: C_15  and  C_16
REMARK    9  A    between atoms: N_20  and  C_21
REMARK   10  A    between atoms: C_27  and  C_28
REMARK                            x       y       z     vdW  Elec       q    Type
REMARK                         _______ _______ _______ _____ _____    ______ ____
ROOT
ATOM      1  C   UNL     1       2.175   8.101  18.242  0.00  0.00    +0.000 C 
ATOM      2  O   UNL     1       2.324   8.307  17.041  0.00  0.00    +0.000 OA
ATOM      3  N   UNL     1       2.363   6.899  18.904  0.00  0.00    +0.000 N 
ATOM      4  H   UNL     1       2.049   6.886  19.874  0.00  0.00    +0.000 HD
ENDROOT
BRANCH   1   7
ATOM      5  C   UNL     1       0.699  11.310  19.273  0.00  0.00    +0.000 A 
ATOM      6  C   UNL     1       1.409  10.416  18.513  0.00  0.00    +0.000 A 
ATOM      7  C   UNL     1       1.661   9.201  19.101  0.00  0.00    +0.000 A 
ATOM      8  N   UNL     1       1.375   8.894  20.382  0.00  0.00    +0.000 NA
ATOM      9  C   UNL     1       0.781   9.862  21.098  0.00  0.00    +0.000 A 
ATOM     10  N   UNL     1       0.401  11.048  20.566  0.00  0.00    +0.000 NA
BRANCH   9  11
ATOM     11  C   UNL     1       0.536   9.616  22.565  0.00  0.00    +0.000 C 
ATOM     12  C   UNL     1      -0.662  10.231  23.247  0.00  0.00    +0.000 C 
ATOM     13  C   UNL     1      -0.623   8.751  23.011  0.00  0.00    +0.000 C 
ENDBRANCH   9  11
BRANCH   5  15
ATOM     14  C   UNL     1       0.511  13.831  19.419  0.00  0.00    +0.000 C 
ATOM     15  C   UNL     1       0.154  12.576  18.605  0.00  0.00    +0.000 C 
BRANCH  15  16
ATOM     16  N   UNL     1      -1.284  12.564  18.288  0.00  0.00    +0.000 NA
ATOM     17  C   UNL     1      -2.174  12.058  19.322  0.00  0.00    +0.000 C 
ATOM     18  C   UNL     1      -3.449  11.848  18.519  0.00  0.00    +0.000 C 
ATOM     19  C   UNL     1      -2.947  11.079  17.289  0.00  0.00    +0.000 C 
ATOM     20  C   UNL     1      -2.340   9.682  16.827  0.00  0.00    +0.000 C 
ATOM     21  C   UNL     1      -3.378   9.628  17.785  0.00  0.00    +0.000 C 
ATOM     22  C   UNL     1      -1.704  11.986  17.006  0.00  0.00    +0.000 C 
ENDBRANCH  15  16
ENDBRANCH   5  15
ENDBRANCH   1   7
BRANCH   3  23
ATOM     23  C   UNL     1       2.790   5.694  18.322  0.00  0.00    +0.000 A 
ATOM     24  C   UNL     1       2.153   4.475  18.566  0.00  0.00    +0.000 A 
ATOM     25  C   UNL     1       2.624   3.307  17.977  0.00  0.00    +0.000 A 
ATOM     26  C   UNL     1       3.752   3.348  17.169  0.00  0.00    +0.000 A 
ATOM     27  C   UNL     1       4.454   4.550  16.921  0.00  0.00    +0.000 A 
ATOM     28  C   UNL     1       3.907   5.723  17.483  0.00  0.00    +0.000 A 
BRANCH  27  29
ATOM     29  C   UNL     1       5.821   4.545  16.091  0.00  0.00    +0.000 C 
ATOM     30  C   UNL     1       5.977   3.567  14.889  0.00  0.00    +0.000 C 
ATOM     31  O   UNL     1       6.498   4.641  14.057  0.00  0.00    +0.000 OA
ATOM     32  C   UNL     1       5.892   5.605  14.951  0.00  0.00    +0.000 C 
BRANCH  29  33
ATOM     33  C   UNL     1       7.054   4.580  17.015  0.00  0.00    +0.000 C 
BRANCH  33  34
ATOM     34  C   UNL     1       7.464   5.967  17.390  0.00  0.00    +0.000 A 
ATOM     35  N   UNL     1       7.513   7.004  16.576  0.00  0.00    +0.000 NA
ATOM     36  N   UNL     1       7.923   8.099  17.296  0.00  0.00    +0.000 NA
ATOM     37  C   UNL     1       8.114   7.713  18.534  0.00  0.00    +0.000 A 
ATOM     38  N   UNL     1       7.846   6.382  18.640  0.00  0.00    +0.000 N 
ATOM     39  C   UNL     1       7.940   5.611  19.849  0.00  0.00    +0.000 C 
ENDBRANCH  33  34
ENDBRANCH  29  33
ENDBRANCH  27  29
ENDBRANCH   3  23
TORSDOF 8
ENDMDL
MODEL 2
REMARK VINA RESULT:      -9.3      1.904      4.026
REMARK  Name = 
REMARK  10 active torsions:
REMARK  status: ('A' for Active; 'I' for Inactive)
REMARK    1  A    between atoms: C_1  and  C_2
REMARK    2  A    between atoms: C_2  and  C_3
REMARK    3  A    between atoms: C_2  and  N_32
REMARK    4  A    between atoms: C_5  and  C_6
REMARK    5  A    between atoms: N_8  and  C_9
REMARK    6  A    between atoms: C_13  and  C_14
REMARK    7  A    between atoms: C_14  and  C_15
REMARK    8  A    between atoms: C_15  and  C_16
REMARK    9  A    between atoms: N_20  and  C_21
REMARK   10  A    between atoms: C_27  and  C_28
REMARK                            x       y       z     vdW  Elec       q    Type
REMARK                         _______ _______ _______ _____ _____    ______ ____
ROOT
ATOM      1  C   UNL     1       1.919   8.187  18.651  0.00  0.00    +0.000 C 
ATOM      2  O   UNL     1       2.442   8.285  17.545  0.00  0.00    +0.000 OA
ATOM      3  N   UNL     1       2.148   7.194  19.590  0.00  0.00    +0.000 N 
ATOM      4  H   UNL     1       1.514   7.199  20.388  0.00  0.00    +0.000 HD
ENDROOT
BRANCH   1   7
ATOM      5  C   UNL     1       0.073  10.755  20.533  0.00  0.00    +0.000 A 
ATOM      6  C   UNL     1       0.893   9.679  20.307  0.00  0.00    +0.000 A 
ATOM      7  C   UNL     1       0.864   9.162  19.035  0.00  0.00    +0.000 A 
ATOM      8  N   UNL     1       0.010   9.553  18.068  0.00  0.00    +0.000 NA
ATOM      9  C   UNL     1      -0.842  10.537  18.400  0.00  0.00    +0.000 A 
ATOM     10  N   UNL     1      -0.807  11.173  19.594  0.00  0.00    +0.000 NA
BRANCH   9  11
ATOM     11  C   UNL     1      -1.890  10.941  17.395  0.00  0.00    +0.000 C 
ATOM     12  C   UNL     1      -2.354   9.959  16.346  0.00  0.00    +0.000 C 
ATOM     13  C   UNL     1      -3.280  10.348  17.460  0.00  0.00    +0.000 C 
ENDBRANCH   9  11
BRANCH   5  15
ATOM     14  C   UNL     1      -1.101  11.672  22.580  0.00  0.00    +0.000 C 
ATOM     15  C   UNL     1       0.238  11.547  21.833  0.00  0.00    +0.000 C 
BRANCH  15  16
ATOM     16  N   UNL     1       0.875  12.868  21.702  0.00  0.00    +0.000 NA
ATOM     17  C   UNL     1      -0.013  14.021  21.687  0.00  0.00    +0.000 C 
ATOM     18  C   UNL     1       0.928  15.096  21.169  0.00  0.00    +0.000 C 
ATOM     19  C   UNL     1       1.570  14.421  19.949  0.00  0.00    +0.000 C 
ATOM     20  C   UNL     1       1.255  13.890  18.482  0.00  0.00    +0.000 C 
ATOM     21  C   UNL     1       0.655  15.117  18.846  0.00  0.00    +0.000 C 
ATOM     22  C   UNL     1       1.872  13.052  20.641  0.00  0.00    +0.000 C 
ENDBRANCH  15  16
ENDBRANCH   5  15
ENDBRANCH   1   7
BRANCH   3  23
ATOM     23  C   UNL     1       3.050   6.126  19.456  0.00  0.00    +0.000 A 
ATOM     24  C   UNL     1       2.756   4.835  19.902  0.00  0.00    +0.000 A 
ATOM     25  C   UNL     1       3.689   3.814  19.760  0.00  0.00    +0.000 A 
ATOM     26  C   UNL     1       4.932   4.087  19.204  0.00  0.00    +0.000 A 
ATOM     27  C   UNL     1       5.292   5.385  18.773  0.00  0.00    +0.000 A 
ATOM     28  C   UNL     1       4.295   6.379  18.873  0.00  0.00    +0.000 A 
BRANCH  27  29
ATOM     29  C   UNL     1       6.773   5.696  18.256  0.00  0.00    +0.000 C 
ATOM     30  C   UNL     1       7.097   7.107  17.683  0.00  0.00    +0.000 C 
ATOM     31  O   UNL     1       8.308   7.178  18.489  0.00  0.00    +0.000 OA
ATOM     32  C   UNL     1       7.763   6.163  19.365  0.00  0.00    +0.000 C 
BRANCH  29  33
ATOM     33  C   UNL     1       7.337   4.544  17.401  0.00  0.00    +0.000 C 
BRANCH  33  34
ATOM     34  C   UNL     1       6.969   4.652  15.958  0.00  0.00    +0.000 A 
ATOM     35  N   UNL     1       7.678   5.257  15.024  0.00  0.00    +0.000 NA
ATOM     36  N   UNL     1       7.015   5.129  13.828  0.00  0.00    +0.000 NA
ATOM     37  C   UNL     1       5.919   4.448  14.051  0.00  0.00    +0.000 A 
ATOM     38  N   UNL     1       5.842   4.133  15.374  0.00  0.00    +0.000 N 
ATOM     39  C   UNL     1       4.779   3.385  15.988  0.00  0.00    +0.000 C 
ENDBRANCH  33  34
ENDBRANCH  29  33
ENDBRANCH  27  29
ENDBRANCH   3  23
TORSDOF 8
ENDMDL
MODEL 3
REMARK VINA RESULT:      -9.2      2.819      9.234
REMARK  Name = 
REMARK  10 active torsions:
REMARK  status: ('A' for Active; 'I' for Inactive)
REMARK    1  A    between atoms: C_1  and  C_2
REMARK    2  A    between atoms: C_2  and  C_3
REMARK    3  A    between atoms: C_2  and  N_32
REMARK    4  A    between atoms: C_5  and  C_6
REMARK    5  A    between atoms: N_8  and  C_9
REMARK    6  A    between atoms: C_13  and  C_14
REMARK    7  A    between atoms: C_14  and  C_15
REMARK    8  A    between atoms: C_15  and  C_16
REMARK    9  A    between atoms: N_20  and  C_21
REMARK   10  A    between atoms: C_27  and  C_28
REMARK                            x       y       z     vdW  Elec       q    Type
REMARK                         _______ _______ _______ _____ _____    ______ ____
ROOT
ATOM      1  C   UNL     1       1.602   8.363  19.975  0.00  0.00    +0.000 C 
ATOM      2  O   UNL     1       1.399   8.730  21.129  0.00  0.00    +0.000 OA
ATOM      3  N   UNL     1       1.336   9.080  18.820  0.00  0.00    +0.000 N 
ATOM      4  H   UNL     1       1.434   8.553  17.952  0.00  0.00    +0.000 HD
ENDROOT
BRANCH   1   7
ATOM      5  C   UNL     1       3.468   5.540  18.528  0.00  0.00    +0.000 A 
ATOM      6  C   UNL     1       2.806   6.740  18.583  0.00  0.00    +0.000 A 
ATOM      7  C   UNL     1       2.105   6.983  19.739  0.00  0.00    +0.000 A 
ATOM      8  N   UNL     1       1.930   6.089  20.732  0.00  0.00    +0.000 NA
ATOM      9  C   UNL     1       2.516   4.893  20.554  0.00  0.00    +0.000 A 
ATOM     10  N   UNL     1       3.312   4.610  19.497  0.00  0.00    +0.000 NA
BRANCH   9  11
ATOM     11  C   UNL     1       2.264   3.818  21.580  0.00  0.00    +0.000 C 
ATOM     12  C   UNL     1       1.233   2.746  21.318  0.00  0.00    +0.000 C 
ATOM     13  C   UNL     1       2.690   2.391  21.312  0.00  0.00    +0.000 C 
ENDBRANCH   9  11
BRANCH   5  15
ATOM     14  C   UNL     1       4.078   4.091  16.544  0.00  0.00    +0.000 C 
ATOM     15  C   UNL     1       4.476   5.306  17.399  0.00  0.00    +0.000 C 
BRANCH  15  16
ATOM     16  N   UNL     1       5.886   5.201  17.810  0.00  0.00    +0.000 NA
ATOM     17  C   UNL     1       6.192   5.567  19.185  0.00  0.00    +0.000 C 
ATOM     18  C   UNL     1       7.705   5.701  19.112  0.00  0.00    +0.000 C 
ATOM     19  C   UNL     1       7.904   6.577  17.866  0.00  0.00    +0.000 C 
ATOM     20  C   UNL     1       7.675   8.047  17.301  0.00  0.00    +0.000 C 
ATOM     21  C   UNL     1       8.122   7.954  18.638  0.00  0.00    +0.000 C 
ATOM     22  C   UNL     1       6.905   5.805  16.944  0.00  0.00    +0.000 C 
ENDBRANCH  15  16
ENDBRANCH   5  15
ENDBRANCH   1   7
BRANCH   3  23
ATOM     23  C   UNL     1       0.808  10.379  18.760  0.00  0.00    +0.000 A 
ATOM     24  C   UNL     1      -0.520  10.635  18.408  0.00  0.00    +0.000 A 
ATOM     25  C   UNL     1      -0.991  11.942  18.348  0.00  0.00    +0.000 A 
ATOM     26  C   UNL     1      -0.128  12.999  18.606  0.00  0.00    +0.000 A 
ATOM     27  C   UNL     1       1.234  12.795  18.929  0.00  0.00    +0.000 A 
ATOM     28  C   UNL     1       1.656  11.453  19.044  0.00  0.00    +0.000 A 
BRANCH  27  29
ATOM     29  C   UNL     1       2.232  14.033  19.094  0.00  0.00    +0.000 C 
ATOM     30  C   UNL     1       3.190  14.398  17.923  0.00  0.00    +0.000 C 
ATOM     31  O   UNL     1       2.828  15.804  18.039  0.00  0.00    +0.000 OA
ATOM     32  C   UNL     1       1.615  15.416  18.728  0.00  0.00    +0.000 C 
BRANCH  29  33
ATOM     33  C   UNL     1       2.922  14.034  20.472  0.00  0.00    +0.000 C 
BRANCH  33  34
ATOM     34  C   UNL     1       2.192  14.845  21.492  0.00  0.00    +0.000 A 
ATOM     35  N   UNL     1       1.111  14.468  22.148  0.00  0.00    +0.000 NA
ATOM     36  N   UNL     1       0.749  15.481  23.002  0.00  0.00    +0.000 NA
ATOM     37  C   UNL     1       1.614  16.454  22.855  0.00  0.00    +0.000 A 
ATOM     38  N   UNL     1       2.534  16.104  21.913  0.00  0.00    +0.000 N 
ATOM     39  C   UNL     1       3.639  16.920  21.490  0.00  0.00    +0.000 C 
ENDBRANCH  33  34
ENDBRANCH  29  33
ENDBRANCH  27  29
ENDBRANCH   3  23
TORSDOF 8
ENDMDL
MODEL 4
REMARK VINA RESULT:      -9.1      1.173      1.837
REMARK  Name = 
REMARK  10 active torsions:
REMARK  status: ('A' for Active; 'I' for Inactive)
REMARK    1  A    between atoms: C_1  and  C_2
REMARK    2  A    between atoms: C_2  and  C_3
REMARK    3  A    between atoms: C_2  and  N_32
REMARK    4  A    between atoms: C_5  and  C_6
REMARK    5  A    between atoms: N_8  and  C_9
REMARK    6  A    between atoms: C_13  and  C_14
REMARK    7  A    between atoms: C_14  and  C_15
REMARK    8  A    between atoms: C_15  and  C_16
REMARK    9  A    between atoms: N_20  and  C_21
REMARK   10  A    between atoms: C_27  and  C_28
REMARK                            x       y       z     vdW  Elec       q    Type
REMARK                         _______ _______ _______ _____ _____    ______ ____
ROOT
ATOM      1  C   UNL     1       2.366   7.707  18.610  0.00  0.00    +0.000 C 
ATOM      2  O   UNL     1       3.247   8.136  17.870  0.00  0.00    +0.000 OA
ATOM      3  N   UNL     1       2.119   6.380  18.919  0.00  0.00    +0.000 N 
ATOM      4  H   UNL     1       1.255   6.209  19.433  0.00  0.00    +0.000 HD
ENDROOT
BRANCH   1   7
ATOM      5  C   UNL     1      -0.186  10.346  18.868  0.00  0.00    +0.000 A 
ATOM      6  C   UNL     1       0.894   9.656  18.378  0.00  0.00    +0.000 A 
ATOM      7  C   UNL     1       1.387   8.665  19.190  0.00  0.00    +0.000 A 
ATOM      8  N   UNL     1       0.969   8.425  20.449  0.00  0.00    +0.000 NA
ATOM      9  C   UNL     1      -0.018   9.217  20.900  0.00  0.00    +0.000 A 
ATOM     10  N   UNL     1      -0.632  10.145  20.129  0.00  0.00    +0.000 NA
BRANCH   9  11
ATOM     11  C   UNL     1      -0.452   9.067  22.335  0.00  0.00    +0.000 C 
ATOM     12  C   UNL     1       0.467   9.497  23.454  0.00  0.00    +0.000 C 
ATOM     13  C   UNL     1      -0.775  10.288  23.168  0.00  0.00    +0.000 C 
ENDBRANCH   9  11
BRANCH   5  15
ATOM     14  C   UNL     1      -1.328  12.593  18.632  0.00  0.00    +0.000 C 
ATOM     15  C   UNL     1      -0.953  11.279  17.926  0.00  0.00    +0.000 C 
BRANCH  15  16
ATOM     16  N   UNL     1      -2.135  10.697  17.268  0.00  0.00    +0.000 NA
ATOM     17  C   UNL     1      -2.603  11.364  16.063  0.00  0.00    +0.000 C 
ATOM     18  C   UNL     1      -3.984  10.744  15.916  0.00  0.00    +0.000 C 
ATOM     19  C   UNL     1      -4.569  10.890  17.328  0.00  0.00    +0.000 C 
ATOM     20  C   UNL     1      -5.085  11.966  18.382  0.00  0.00    +0.000 C 
ATOM     21  C   UNL     1      -5.450  12.185  17.034  0.00  0.00    +0.000 C 
ATOM     22  C   UNL     1      -3.304  10.387  18.098  0.00  0.00    +0.000 C 
ENDBRANCH  15  16
ENDBRANCH   5  15
ENDBRANCH   1   7
BRANCH   3  23
ATOM     23  C   UNL     1       2.856   5.276  18.462  0.00  0.00    +0.000 A 
ATOM     24  C   UNL     1       2.782   4.019  19.069  0.00  0.00    +0.000 A 
ATOM     25  C   UNL     1       3.544   2.961  18.587  0.00  0.00    +0.000 A 
ATOM     26  C   UNL     1       4.408   3.163  17.519  0.00  0.00    +0.000 A 
ATOM     27  C   UNL     1       4.548   4.424  16.895  0.00  0.00    +0.000 A 
ATOM     28  C   UNL     1       3.709   5.455  17.370  0.00  0.00    +0.000 A 
BRANCH  27  29
ATOM     29  C   UNL     1       5.642   4.657  15.752  0.00  0.00    +0.000 C 
ATOM     30  C   UNL     1       6.422   3.433  15.186  0.00  0.00    +0.000 C 
ATOM     31  O   UNL     1       6.181   3.885  13.824  0.00  0.00    +0.000 OA
ATOM     32  C   UNL     1       5.071   4.682  14.303  0.00  0.00    +0.000 C 
BRANCH  29  33
ATOM     33  C   UNL     1       6.544   5.868  16.059  0.00  0.00    +0.000 C 
BRANCH  33  34
ATOM     34  C   UNL     1       7.200   5.785  17.398  0.00  0.00    +0.000 A 
ATOM     35  N   UNL     1       7.421   4.678  18.082  0.00  0.00    +0.000 NA
ATOM     36  N   UNL     1       8.054   5.014  19.254  0.00  0.00    +0.000 NA
ATOM     37  C   UNL     1       8.211   6.315  19.263  0.00  0.00    +0.000 A 
ATOM     38  N   UNL     1       7.685   6.843  18.123  0.00  0.00    +0.000 N 
ATOM     39  C   UNL     1       7.679   8.239  17.783  0.00  0.00    +0.000 C 
ENDBRANCH  33  34
ENDBRANCH  29  33
ENDBRANCH  27  29
ENDBRANCH   3  23
TORSDOF 8
ENDMDL
MODEL 5
REMARK VINA RESULT:      -9.1      1.823      2.963
REMARK  Name = 
REMARK  10 active torsions:
REMARK  status: ('A' for Active; 'I' for Inactive)
REMARK    1  A    between atoms: C_1  and  C_2
REMARK    2  A    between atoms: C_2  and  C_3
REMARK    3  A    between atoms: C_2  and  N_32
REMARK    4  A    between atoms: C_5  and  C_6
REMARK    5  A    between atoms: N_8  and  C_9
REMARK    6  A    between atoms: C_13  and  C_14
REMARK    7  A    between atoms: C_14  and  C_15
REMARK    8  A    between atoms: C_15  and  C_16
REMARK    9  A    between atoms: N_20  and  C_21
REMARK   10  A    between atoms: C_27  and  C_28
REMARK                            x       y       z     vdW  Elec       q    Type
REMARK                         _______ _______ _______ _____ _____    ______ ____
ROOT
ATOM      1  C   UNL     1       2.177   8.376  18.121  0.00  0.00    +0.000 C 
ATOM      2  O   UNL     1       2.443   8.563  16.937  0.00  0.00    +0.000 OA
ATOM      3  N   UNL     1       2.217   7.168  18.797  0.00  0.00    +0.000 N 
ATOM      4  H   UNL     1       1.821   7.185  19.737  0.00  0.00    +0.000 HD
ENDROOT
BRANCH   1   7
ATOM      5  C   UNL     1       1.229  11.792  19.110  0.00  0.00    +0.000 A 
ATOM      6  C   UNL     1       1.924  10.790  18.482  0.00  0.00    +0.000 A 
ATOM      7  C   UNL     1       1.675   9.517  18.933  0.00  0.00    +0.000 A 
ATOM      8  N   UNL     1       0.914   9.218  20.004  0.00  0.00    +0.000 NA
ATOM      9  C   UNL     1       0.356  10.263  20.637  0.00  0.00    +0.000 A 
ATOM     10  N   UNL     1       0.463  11.538  20.195  0.00  0.00    +0.000 NA
BRANCH   9  11
ATOM     11  C   UNL     1      -0.417   9.999  21.904  0.00  0.00    +0.000 C 
ATOM     12  C   UNL     1      -0.575   8.587  22.415  0.00  0.00    +0.000 C 
ATOM     13  C   UNL     1       0.301   9.551  23.158  0.00  0.00    +0.000 C 
ENDBRANCH   9  11
BRANCH   5  15
ATOM     14  C   UNL     1       2.656  13.563  17.997  0.00  0.00    +0.000 C 
ATOM     15  C   UNL     1       1.250  13.197  18.501  0.00  0.00    +0.000 C 
BRANCH  15  16
ATOM     16  N   UNL     1       0.717  14.273  19.353  0.00  0.00    +0.000 NA
ATOM     17  C   UNL     1      -0.249  15.171  18.739  0.00  0.00    +0.000 C 
ATOM     18  C   UNL     1      -0.260  16.308  19.749  0.00  0.00    +0.000 C 
ATOM     19  C   UNL     1       1.236  16.581  19.961  0.00  0.00    +0.000 C 
ATOM     20  C   UNL     1       2.538  17.141  19.236  0.00  0.00    +0.000 C 
ATOM     21  C   UNL     1       1.336  17.843  18.993  0.00  0.00    +0.000 C 
ATOM     22  C   UNL     1       1.670  15.087  20.115  0.00  0.00    +0.000 C 
ENDBRANCH  15  16
ENDBRANCH   5  15
ENDBRANCH   1   7
BRANCH   3  23
ATOM     23  C   UNL     1       2.600   5.931  18.254  0.00  0.00    +0.000 A 
ATOM     24  C   UNL     1       1.890   4.752  18.496  0.00  0.00    +0.000 A 
ATOM     25  C   UNL     1       2.319   3.549  17.947  0.00  0.00    +0.000 A 
ATOM     26  C   UNL     1       3.477   3.514  17.182  0.00  0.00    +0.000 A 
ATOM     27  C   UNL     1       4.252   4.672  16.939  0.00  0.00    +0.000 A 
ATOM     28  C   UNL     1       3.747   5.884  17.459  0.00  0.00    +0.000 A 
BRANCH  27  29
ATOM     29  C   UNL     1       5.647   4.578  16.163  0.00  0.00    +0.000 C 
ATOM     30  C   UNL     1       5.797   3.566  14.990  0.00  0.00    +0.000 C 
ATOM     31  O   UNL     1       6.404   4.593  14.156  0.00  0.00    +0.000 OA
ATOM     32  C   UNL     1       5.815   5.607  15.005  0.00  0.00    +0.000 C 
BRANCH  29  33
ATOM     33  C   UNL     1       6.845   4.572  17.133  0.00  0.00    +0.000 C 
BRANCH  33  34
ATOM     34  C   UNL     1       7.351   5.942  17.447  0.00  0.00    +0.000 A 
ATOM     35  N   UNL     1       7.408   6.955  16.603  0.00  0.00    +0.000 NA
ATOM     36  N   UNL     1       7.919   8.043  17.268  0.00  0.00    +0.000 NA
ATOM     37  C   UNL     1       8.160   7.677  18.503  0.00  0.00    +0.000 A 
ATOM     38  N   UNL     1       7.826   6.366  18.661  0.00  0.00    +0.000 N 
ATOM     39  C   UNL     1       7.948   5.621  19.883  0.00  0.00    +0.000 C 
ENDBRANCH  33  34
ENDBRANCH  29  33
ENDBRANCH  27  29
ENDBRANCH   3  23
TORSDOF 8
ENDMDL
MODEL 6
REMARK VINA RESULT:      -9.1      1.500      2.517
REMARK  Name = 
REMARK  10 active torsions:
REMARK  status: ('A' for Active; 'I' for Inactive)
REMARK    1  A    between atoms: C_1  and  C_2
REMARK    2  A    between atoms: C_2  and  C_3
REMARK    3  A    between atoms: C_2  and  N_32
REMARK    4  A    between atoms: C_5  and  C_6
REMARK    5  A    between atoms: N_8  and  C_9
REMARK    6  A    between atoms: C_13  and  C_14
REMARK    7  A    between atoms: C_14  and  C_15
REMARK    8  A    between atoms: C_15  and  C_16
REMARK    9  A    between atoms: N_20  and  C_21
REMARK   10  A    between atoms: C_27  and  C_28
REMARK                            x       y       z     vdW  Elec       q    Type
REMARK                         _______ _______ _______ _____ _____    ______ ____
ROOT
ATOM      1  C   UNL     1       2.151   8.178  18.359  0.00  0.00    +0.000 C 
ATOM      2  O   UNL     1       2.867   8.582  17.448  0.00  0.00    +0.000 OA
ATOM      3  N   UNL     1       1.921   6.857  18.707  0.00  0.00    +0.000 N 
ATOM      4  H   UNL     1       1.182   6.713  19.394  0.00  0.00    +0.000 HD
ENDROOT
BRANCH   1   7
ATOM      5  C   UNL     1       0.189  11.171  19.217  0.00  0.00    +0.000 A 
ATOM      6  C   UNL     1       1.127  10.397  18.584  0.00  0.00    +0.000 A 
ATOM      7  C   UNL     1       1.361   9.165  19.143  0.00  0.00    +0.000 A 
ATOM      8  N   UNL     1       0.836   8.739  20.310  0.00  0.00    +0.000 NA
ATOM      9  C   UNL     1       0.012   9.600  20.930  0.00  0.00    +0.000 A 
ATOM     10  N   UNL     1      -0.355  10.788  20.395  0.00  0.00    +0.000 NA
BRANCH   9  11
ATOM     11  C   UNL     1      -0.520   9.223  22.289  0.00  0.00    +0.000 C 
ATOM     12  C   UNL     1       0.340   9.405  23.517  0.00  0.00    +0.000 C 
ATOM     13  C   UNL     1      -0.848  10.295  23.305  0.00  0.00    +0.000 C 
ENDBRANCH   9  11
BRANCH   5  15
ATOM     14  C   UNL     1      -0.058  13.686  19.375  0.00  0.00    +0.000 C 
ATOM     15  C   UNL     1      -0.317  12.436  18.517  0.00  0.00    +0.000 C 
BRANCH  15  16
ATOM     16  N   UNL     1      -1.720  12.404  18.071  0.00  0.00    +0.000 NA
ATOM     17  C   UNL     1      -2.707  11.993  19.058  0.00  0.00    +0.000 C 
ATOM     18  C   UNL     1      -3.906  11.721  18.163  0.00  0.00    +0.000 C 
ATOM     19  C   UNL     1      -3.303  10.847  17.054  0.00  0.00    +0.000 C 
ATOM     20  C   UNL     1      -2.675   9.412  16.771  0.00  0.00    +0.000 C 
ATOM     21  C   UNL     1      -3.797   9.446  17.630  0.00  0.00    +0.000 C 
ATOM     22  C   UNL     1      -2.029  11.720  16.810  0.00  0.00    +0.000 C 
ENDBRANCH  15  16
ENDBRANCH   5  15
ENDBRANCH   1   7
BRANCH   3  23
ATOM     23  C   UNL     1       2.495   5.732  18.094  0.00  0.00    +0.000 A 
ATOM     24  C   UNL     1       1.812   4.520  17.956  0.00  0.00    +0.000 A 
ATOM     25  C   UNL     1       2.430   3.430  17.355  0.00  0.00    +0.000 A 
ATOM     26  C   UNL     1       3.744   3.535  16.919  0.00  0.00    +0.000 A 
ATOM     27  C   UNL     1       4.491   4.727  17.069  0.00  0.00    +0.000 A 
ATOM     28  C   UNL     1       3.807   5.830  17.624  0.00  0.00    +0.000 A 
BRANCH  27  29
ATOM     29  C   UNL     1       6.040   4.779  16.674  0.00  0.00    +0.000 C 
ATOM     30  C   UNL     1       6.745   6.161  16.545  0.00  0.00    +0.000 C 
ATOM     31  O   UNL     1       7.867   5.685  17.342  0.00  0.00    +0.000 OA
ATOM     32  C   UNL     1       7.021   4.640  17.877  0.00  0.00    +0.000 C 
BRANCH  29  33
ATOM     33  C   UNL     1       6.371   3.813  15.520  0.00  0.00    +0.000 C 
BRANCH  33  34
ATOM     34  C   UNL     1       6.981   4.497  14.341  0.00  0.00    +0.000 A 
ATOM     35  N   UNL     1       7.918   5.425  14.387  0.00  0.00    +0.000 NA
ATOM     36  N   UNL     1       8.223   5.795  13.100  0.00  0.00    +0.000 NA
ATOM     37  C   UNL     1       7.473   5.085  12.294  0.00  0.00    +0.000 A 
ATOM     38  N   UNL     1       6.673   4.262  13.026  0.00  0.00    +0.000 N 
ATOM     39  C   UNL     1       5.720   3.333  12.482  0.00  0.00    +0.000 C 
ENDBRANCH  33  34
ENDBRANCH  29  33
ENDBRANCH  27  29
ENDBRANCH   3  23
TORSDOF 8
ENDMDL
MODEL 7
REMARK VINA RESULT:      -9.1      2.797     10.301
REMARK  Name = 
REMARK  10 active torsions:
REMARK  status: ('A' for Active; 'I' for Inactive)
REMARK    1  A    between atoms: C_1  and  C_2
REMARK    2  A    between atoms: C_2  and  C_3
REMARK    3  A    between atoms: C_2  and  N_32
REMARK    4  A    between atoms: C_5  and  C_6
REMARK    5  A    between atoms: N_8  and  C_9
REMARK    6  A    between atoms: C_13  and  C_14
REMARK    7  A    between atoms: C_14  and  C_15
REMARK    8  A    between atoms: C_15  and  C_16
REMARK    9  A    between atoms: N_20  and  C_21
REMARK   10  A    between atoms: C_27  and  C_28
REMARK                            x       y       z     vdW  Elec       q    Type
REMARK                         _______ _______ _______ _____ _____    ______ ____
ROOT
ATOM      1  C   UNL     1       1.195   8.088  20.546  0.00  0.00    +0.000 C 
ATOM      2  O   UNL     1       0.880   8.095  21.732  0.00  0.00    +0.000 OA
ATOM      3  N   UNL     1       0.821   9.014  19.586  0.00  0.00    +0.000 N 
ATOM      4  H   UNL     1       1.058   8.762  18.626  0.00  0.00    +0.000 HD
ENDROOT
BRANCH   1   7
ATOM      5  C   UNL     1       3.726   6.173  18.683  0.00  0.00    +0.000 A 
ATOM      6  C   UNL     1       2.833   7.176  18.964  0.00  0.00    +0.000 A 
ATOM      7  C   UNL     1       1.987   6.945  20.020  0.00  0.00    +0.000 A 
ATOM      8  N   UNL     1       1.900   5.779  20.692  0.00  0.00    +0.000 NA
ATOM      9  C   UNL     1       2.730   4.805  20.285  0.00  0.00    +0.000 A 
ATOM     10  N   UNL     1       3.666   4.984  19.325  0.00  0.00    +0.000 NA
BRANCH   9  11
ATOM     11  C   UNL     1       2.602   3.446  20.926  0.00  0.00    +0.000 C 
ATOM     12  C   UNL     1       1.353   3.085  21.694  0.00  0.00    +0.000 C 
ATOM     13  C   UNL     1       1.627   2.429  20.374  0.00  0.00    +0.000 C 
ENDBRANCH   9  11
BRANCH   5  15
ATOM     14  C   UNL     1       4.350   7.178  16.445  0.00  0.00    +0.000 C 
ATOM     15  C   UNL     1       4.866   6.456  17.700  0.00  0.00    +0.000 C 
BRANCH  15  16
ATOM     16  N   UNL     1       5.687   5.293  17.320  0.00  0.00    +0.000 NA
ATOM     17  C   UNL     1       7.031   5.574  16.841  0.00  0.00    +0.000 C 
ATOM     18  C   UNL     1       7.393   4.238  16.213  0.00  0.00    +0.000 C 
ATOM     19  C   UNL     1       6.161   3.929  15.350  0.00  0.00    +0.000 C 
ATOM     20  C   UNL     1       5.370   4.405  14.054  0.00  0.00    +0.000 C 
ATOM     21  C   UNL     1       6.780   4.407  13.962  0.00  0.00    +0.000 C 
ATOM     22  C   UNL     1       5.091   4.288  16.432  0.00  0.00    +0.000 C 
ENDBRANCH  15  16
ENDBRANCH   5  15
ENDBRANCH   1   7
BRANCH   3  23
ATOM     23  C   UNL     1       0.031  10.154  19.803  0.00  0.00    +0.000 A 
ATOM     24  C   UNL     1       0.313  11.083  20.808  0.00  0.00    +0.000 A 
ATOM     25  C   UNL     1      -0.510  12.189  20.992  0.00  0.00    +0.000 A 
ATOM     26  C   UNL     1      -1.634  12.353  20.195  0.00  0.00    +0.000 A 
ATOM     27  C   UNL     1      -1.983  11.422  19.189  0.00  0.00    +0.000 A 
ATOM     28  C   UNL     1      -1.088  10.349  18.990  0.00  0.00    +0.000 A 
BRANCH  27  29
ATOM     29  C   UNL     1      -3.351  11.570  18.374  0.00  0.00    +0.000 C 
ATOM     30  C   UNL     1      -3.318  11.515  16.818  0.00  0.00    +0.000 C 
ATOM     31  O   UNL     1      -4.435  10.581  16.807  0.00  0.00    +0.000 OA
ATOM     32  C   UNL     1      -4.139  10.239  18.183  0.00  0.00    +0.000 C 
BRANCH  29  33
ATOM     33  C   UNL     1      -4.230  12.708  18.928  0.00  0.00    +0.000 C 
BRANCH  33  34
ATOM     34  C   UNL     1      -5.417  12.214  19.688  0.00  0.00    +0.000 A 
ATOM     35  N   UNL     1      -5.425  11.855  20.958  0.00  0.00    +0.000 NA
ATOM     36  N   UNL     1      -6.702  11.474  21.291  0.00  0.00    +0.000 NA
ATOM     37  C   UNL     1      -7.449  11.610  20.223  0.00  0.00    +0.000 A 
ATOM     38  N   UNL     1      -6.686  12.065  19.191  0.00  0.00    +0.000 N 
ATOM     39  C   UNL     1      -7.165  12.338  17.863  0.00  0.00    +0.000 C 
ENDBRANCH  33  34
ENDBRANCH  29  33
ENDBRANCH  27  29
ENDBRANCH   3  23
TORSDOF 8
ENDMDL
MODEL 8
REMARK VINA RESULT:      -9.1      2.059      3.730
REMARK  Name = 
REMARK  10 active torsions:
REMARK  status: ('A' for Active; 'I' for Inactive)
REMARK    1  A    between atoms: C_1  and  C_2
REMARK    2  A    between atoms: C_2  and  C_3
REMARK    3  A    between atoms: C_2  and  N_32
REMARK    4  A    between atoms: C_5  and  C_6
REMARK    5  A    between atoms: N_8  and  C_9
REMARK    6  A    between atoms: C_13  and  C_14
REMARK    7  A    between atoms: C_14  and  C_15
REMARK    8  A    between atoms: C_15  and  C_16
REMARK    9  A    between atoms: N_20  and  C_21
REMARK   10  A    between atoms: C_27  and  C_28
REMARK                            x       y       z     vdW  Elec       q    Type
REMARK                         _______ _______ _______ _____ _____    ______ ____
ROOT
ATOM      1  C   UNL     1       2.138   8.458  18.064  0.00  0.00    +0.000 C 
ATOM      2  O   UNL     1       2.824   8.509  17.048  0.00  0.00    +0.000 OA
ATOM      3  N   UNL     1       2.172   7.473  19.037  0.00  0.00    +0.000 N 
ATOM      4  H   UNL     1       1.426   7.523  19.731  0.00  0.00    +0.000 HD
ENDROOT
BRANCH   1   7
ATOM      5  C   UNL     1       0.531  11.689  18.788  0.00  0.00    +0.000 A 
ATOM      6  C   UNL     1       1.459  10.680  18.851  0.00  0.00    +0.000 A 
ATOM      7  C   UNL     1       1.089   9.491  18.275  0.00  0.00    +0.000 A 
ATOM      8  N   UNL     1      -0.139   9.226  17.783  0.00  0.00    +0.000 NA
ATOM      9  C   UNL     1      -1.029  10.229  17.859  0.00  0.00    +0.000 A 
ATOM     10  N   UNL     1      -0.715  11.464  18.313  0.00  0.00    +0.000 NA
BRANCH   9  11
ATOM     11  C   UNL     1      -2.447   9.956  17.424  0.00  0.00    +0.000 C 
ATOM     12  C   UNL     1      -3.415  11.100  17.236  0.00  0.00    +0.000 C 
ATOM     13  C   UNL     1      -2.911  10.351  16.039  0.00  0.00    +0.000 C 
ENDBRANCH   9  11
BRANCH   5  15
ATOM     14  C   UNL     1       2.488  13.210  19.305  0.00  0.00    +0.000 C 
ATOM     15  C   UNL     1       0.959  13.109  19.170  0.00  0.00    +0.000 C 
BRANCH  15  16
ATOM     16  N   UNL     1       0.303  13.679  20.359  0.00  0.00    +0.000 NA
ATOM     17  C   UNL     1       0.229  12.824  21.533  0.00  0.00    +0.000 C 
ATOM     18  C   UNL     1      -0.803  13.572  22.363  0.00  0.00    +0.000 C 
ATOM     19  C   UNL     1      -1.926  13.829  21.347  0.00  0.00    +0.000 C 
ATOM     20  C   UNL     1      -3.045  13.099  20.482  0.00  0.00    +0.000 C 
ATOM     21  C   UNL     1      -2.871  12.630  21.804  0.00  0.00    +0.000 C 
ATOM     22  C   UNL     1      -1.004  14.322  20.184  0.00  0.00    +0.000 C 
ENDBRANCH  15  16
ENDBRANCH   5  15
ENDBRANCH   1   7
BRANCH   3  23
ATOM     23  C   UNL     1       3.027   6.359  19.052  0.00  0.00    +0.000 A 
ATOM     24  C   UNL     1       2.628   5.112  19.540  0.00  0.00    +0.000 A 
ATOM     25  C   UNL     1       3.518   4.043  19.548  0.00  0.00    +0.000 A 
ATOM     26  C   UNL     1       4.819   4.226  19.100  0.00  0.00    +0.000 A 
ATOM     27  C   UNL     1       5.283   5.477  18.632  0.00  0.00    +0.000 A 
ATOM     28  C   UNL     1       4.332   6.519  18.578  0.00  0.00    +0.000 A 
BRANCH  27  29
ATOM     29  C   UNL     1       6.820   5.689  18.243  0.00  0.00    +0.000 C 
ATOM     30  C   UNL     1       7.294   7.089  17.755  0.00  0.00    +0.000 C 
ATOM     31  O   UNL     1       8.439   7.037  18.653  0.00  0.00    +0.000 OA
ATOM     32  C   UNL     1       7.751   6.037  19.443  0.00  0.00    +0.000 C 
BRANCH  29  33
ATOM     33  C   UNL     1       7.361   4.527  17.387  0.00  0.00    +0.000 C 
BRANCH  33  34
ATOM     34  C   UNL     1       7.028   4.663  15.938  0.00  0.00    +0.000 A 
ATOM     35  N   UNL     1       7.705   5.372  15.054  0.00  0.00    +0.000 NA
ATOM     36  N   UNL     1       7.093   5.235  13.832  0.00  0.00    +0.000 NA
ATOM     37  C   UNL     1       6.060   4.445  13.989  0.00  0.00    +0.000 A 
ATOM     38  N   UNL     1       5.974   4.067  15.295  0.00  0.00    +0.000 N 
ATOM     39  C   UNL     1       4.970   3.196  15.841  0.00  0.00    +0.000 C 
ENDBRANCH  33  34
ENDBRANCH  29  33
ENDBRANCH  27  29
ENDBRANCH   3  23
TORSDOF 8
ENDMDL
MODEL 9
REMARK VINA RESULT:      -9.0      2.717      9.313
REMARK  Name = 
REMARK  10 active torsions:
REMARK  status: ('A' for Active; 'I' for Inactive)
REMARK    1  A    between atoms: C_1  and  C_2
REMARK    2  A    between atoms: C_2  and  C_3
REMARK    3  A    between atoms: C_2  and  N_32
REMARK    4  A    between atoms: C_5  and  C_6
REMARK    5  A    between atoms: N_8  and  C_9
REMARK    6  A    between atoms: C_13  and  C_14
REMARK    7  A    between atoms: C_14  and  C_15
REMARK    8  A    between atoms: C_15  and  C_16
REMARK    9  A    between atoms: N_20  and  C_21
REMARK   10  A    between atoms: C_27  and  C_28
REMARK                            x       y       z     vdW  Elec       q    Type
REMARK                         _______ _______ _______ _____ _____    ______ ____
ROOT
ATOM      1  C   UNL     1       1.593   8.284  19.724  0.00  0.00    +0.000 C 
ATOM      2  O   UNL     1       1.752   9.070  18.795  0.00  0.00    +0.000 OA
ATOM      3  N   UNL     1       1.034   8.566  20.959  0.00  0.00    +0.000 N 
ATOM      4  H   UNL     1       1.121   7.824  21.653  0.00  0.00    +0.000 HD
ENDROOT
BRANCH   1   7
ATOM      5  C   UNL     1       3.529   5.397  18.518  0.00  0.00    +0.000 A 
ATOM      6  C   UNL     1       2.858   6.592  18.477  0.00  0.00    +0.000 A 
ATOM      7  C   UNL     1       2.113   6.898  19.589  0.00  0.00    +0.000 A 
ATOM      8  N   UNL     1       1.906   6.062  20.627  0.00  0.00    +0.000 NA
ATOM      9  C   UNL     1       2.506   4.863  20.542  0.00  0.00    +0.000 A 
ATOM     10  N   UNL     1       3.343   4.524  19.534  0.00  0.00    +0.000 NA
BRANCH   9  11
ATOM     11  C   UNL     1       2.224   3.849  21.620  0.00  0.00    +0.000 C 
ATOM     12  C   UNL     1       1.234   2.735  21.373  0.00  0.00    +0.000 C 
ATOM     13  C   UNL     1       2.696   2.420  21.468  0.00  0.00    +0.000 C 
ENDBRANCH   9  11
BRANCH   5  15
ATOM     14  C   UNL     1       4.249   3.809  16.681  0.00  0.00    +0.000 C 
ATOM     15  C   UNL     1       4.580   5.104  17.442  0.00  0.00    +0.000 C 
BRANCH  15  16
ATOM     16  N   UNL     1       5.979   5.084  17.902  0.00  0.00    +0.000 NA
ATOM     17  C   UNL     1       6.227   5.562  19.253  0.00  0.00    +0.000 C 
ATOM     18  C   UNL     1       7.735   5.747  19.215  0.00  0.00    +0.000 C 
ATOM     19  C   UNL     1       7.944   6.535  17.914  0.00  0.00    +0.000 C 
ATOM     20  C   UNL     1       7.681   7.949  17.232  0.00  0.00    +0.000 C 
ATOM     21  C   UNL     1       8.087   7.973  18.585  0.00  0.00    +0.000 C 
ATOM     22  C   UNL     1       7.003   5.659  17.023  0.00  0.00    +0.000 C 
ENDBRANCH  15  16
ENDBRANCH   5  15
ENDBRANCH   1   7
BRANCH   3  23
ATOM     23  C   UNL     1       0.516   9.807  21.366  0.00  0.00    +0.000 A 
ATOM     24  C   UNL     1      -0.355   9.938  22.451  0.00  0.00    +0.000 A 
ATOM     25  C   UNL     1      -0.851  11.188  22.805  0.00  0.00    +0.000 A 
ATOM     26  C   UNL     1      -0.506  12.305  22.056  0.00  0.00    +0.000 A 
ATOM     27  C   UNL     1       0.341  12.219  20.927  0.00  0.00    +0.000 A 
ATOM     28  C   UNL     1       0.877  10.945  20.641  0.00  0.00    +0.000 A 
BRANCH  27  29
ATOM     29  C   UNL     1       0.618  13.500  20.011  0.00  0.00    +0.000 C 
ATOM     30  C   UNL     1      -0.123  13.633  18.648  0.00  0.00    +0.000 C 
ATOM     31  O   UNL     1      -0.469  15.015  18.948  0.00  0.00    +0.000 OA
ATOM     32  C   UNL     1      -0.254  14.744  20.354  0.00  0.00    +0.000 C 
BRANCH  29  33
ATOM     33  C   UNL     1       2.121  13.831  19.925  0.00  0.00    +0.000 C 
BRANCH  33  34
ATOM     34  C   UNL     1       2.567  14.798  20.972  0.00  0.00    +0.000 A 
ATOM     35  N   UNL     1       2.770  14.517  22.245  0.00  0.00    +0.000 NA
ATOM     36  N   UNL     1       3.185  15.663  22.879  0.00  0.00    +0.000 NA
ATOM     37  C   UNL     1       3.232  16.619  21.984  0.00  0.00    +0.000 A 
ATOM     38  N   UNL     1       2.846  16.126  20.775  0.00  0.00    +0.000 N 
ATOM     39  C   UNL     1       2.778  16.883  19.555  0.00  0.00    +0.000 C 
ENDBRANCH  33  34
ENDBRANCH  29  33
ENDBRANCH  27  29
ENDBRANCH   3  23
TORSDOF 8
ENDMDL
