MODEL 1
REMARK VINA RESULT:      -8.3      0.000      0.000
REMARK  Name = 
REMARK  6 active torsions:
REMARK  status: ('A' for Active; 'I' for Inactive)
REMARK    1  A    between atoms: C_1  and  C_2
REMARK    2  A    between atoms: C_2  and  S_3
REMARK    3  A    between atoms: C_2  and  C_10
REMARK    4  A    between atoms: S_3  and  C_4
REMARK    5  A    between atoms: N_8  and  C_9
REMARK    6  A    between atoms: C_14  and  N_15
REMARK                            x       y       z     vdW  Elec       q    Type
REMARK                         _______ _______ _______ _____ _____    ______ ____
ROOT
ATOM      1  C   UNL     1       4.344   5.576  17.273  0.00  0.00    +0.000 A 
ATOM      2  C   UNL     1       4.933   4.474  16.626  0.00  0.00    +0.000 A 
ATOM      3  C   UNL     1       6.264   4.514  16.219  0.00  0.00    +0.000 A 
ATOM      4  C   UNL     1       7.024   5.663  16.427  0.00  0.00    +0.000 A 
ATOM      5  C   UNL     1       6.452   6.790  17.015  0.00  0.00    +0.000 A 
ATOM      6  C   UNL     1       5.123   6.732  17.458  0.00  0.00    +0.000 A 
ENDROOT
BRANCH   5   7
ATOM      7  N   UNL     1       7.156   8.000  17.200  0.00  0.00    +0.000 N 
ATOM      8  C   UNL     1       8.087   8.244  18.183  0.00  0.00    +0.000 C 
ATOM      9  O   UNL     1       8.499   7.416  18.992  0.00  0.00    +0.000 OA
ATOM     10  N   UNL     1       8.579   9.525  18.196  0.00  0.00    +0.000 N 
ATOM     11  C   UNL     1       9.646   9.879  19.135  0.00  0.00    +0.000 C 
ATOM     12  C   UNL     1       9.851  11.348  18.900  0.00  0.00    +0.000 A 
ATOM     13  N   UNL     1      10.803  12.122  19.451  0.00  0.00    +0.000 NA
ATOM     14  C   UNL     1      10.747  13.416  19.050  0.00  0.00    +0.000 A 
ATOM     15  C   UNL     1       9.788  13.895  18.157  0.00  0.00    +0.000 A 
ATOM     16  N   UNL     1       8.829  13.107  17.607  0.00  0.00    +0.000 NA
ATOM     17  C   UNL     1       8.897  11.826  18.006  0.00  0.00    +0.000 A 
ATOM     18  C   UNL     1       7.997  10.710  17.563  0.00  0.00    +0.000 C 
ATOM     19  H   UNL     1       7.189   8.611  16.398  0.00  0.00    +0.000 HD
ENDBRANCH   5   7
BRANCH   1  21
ATOM     20  C   UNL     1       2.637   6.106  19.149  0.00  0.00    +0.000 C 
ATOM     21  C   UNL     1       2.918   5.460  17.791  0.00  0.00    +0.000 C 
BRANCH  21  22
ATOM     22  S   UNL     1       2.327   3.724  17.732  0.00  0.00    +0.000 S 
BRANCH  22  23
ATOM     23  C   UNL     1       2.121   3.336  19.400  0.00  0.00    +0.000 A 
ATOM     24  N   UNL     1       1.008   3.417  20.098  0.00  0.00    +0.000 NA
ATOM     25  N   UNL     1       1.273   2.948  21.364  0.00  0.00    +0.000 NA
ATOM     26  C   UNL     1       2.536   2.578  21.393  0.00  0.00    +0.000 A 
ATOM     27  N   UNL     1       3.114   2.833  20.187  0.00  0.00    +0.000 N 
ATOM     28  C   UNL     1       4.495   2.629  19.848  0.00  0.00    +0.000 C 
ENDBRANCH  22  23
ENDBRANCH  21  22
ENDBRANCH   1  21
TORSDOF 4
ENDMDL
MODEL 2
REMARK VINA RESULT:      -8.2      0.850      1.234
REMARK  Name = 
REMARK  6 active torsions:
REMARK  status: ('A' for Active; 'I' for Inactive)
REMARK    1  A    between atoms: C_1  and  C_2
REMARK    2  A    between atoms: C_2  and  S_3
REMARK    3  A    between atoms: C_2  and  C_10
REMARK    4  A    between atoms: S_3  and  C_4
REMARK    5  A    between atoms: N_8  and  C_9
REMARK    6  A    between atoms: C_14  and  N_15
REMARK                            x       y       z     vdW  Elec       q    Type
REMARK                         _______ _______ _______ _____ _____    ______ ____
ROOT
ATOM      1  C   UNL     1       4.891   4.992  17.351  0.00  0.00    +0.000 A 
ATOM      2  C   UNL     1       5.402   4.112  16.380  0.00  0.00    +0.000 A 
ATOM      3  C   UNL     1       6.564   4.421  15.678  0.00  0.00    +0.000 A 
ATOM      4  C   UNL     1       7.223   5.626  15.914  0.00  0.00    +0.000 A 
ATOM      5  C   UNL     1       6.710   6.543  16.831  0.00  0.00    +0.000 A 
ATOM      6  C   UNL     1       5.562   6.210  17.563  0.00  0.00    +0.000 A 
ENDROOT
BRANCH   5   7
ATOM      7  N   UNL     1       7.303   7.801  17.071  0.00  0.00    +0.000 N 
ATOM      8  C   UNL     1       8.120   8.114  18.133  0.00  0.00    +0.000 C 
ATOM      9  O   UNL     1       8.515   7.319  18.982  0.00  0.00    +0.000 OA
ATOM     10  N   UNL     1       8.512   9.428  18.182  0.00  0.00    +0.000 N 
ATOM     11  C   UNL     1       9.460   9.860  19.212  0.00  0.00    +0.000 C 
ATOM     12  C   UNL     1       9.576  11.340  18.986  0.00  0.00    +0.000 A 
ATOM     13  N   UNL     1      10.415  12.183  19.617  0.00  0.00    +0.000 NA
ATOM     14  C   UNL     1      10.300  13.469  19.203  0.00  0.00    +0.000 A 
ATOM     15  C   UNL     1       9.394  13.875  18.222  0.00  0.00    +0.000 A 
ATOM     16  N   UNL     1       8.551  13.019  17.593  0.00  0.00    +0.000 NA
ATOM     17  C   UNL     1       8.676  11.746  18.006  0.00  0.00    +0.000 A 
ATOM     18  C   UNL     1       7.905  10.566  17.490  0.00  0.00    +0.000 C 
ATOM     19  H   UNL     1       7.365   8.413  16.271  0.00  0.00    +0.000 HD
ENDBRANCH   5   7
BRANCH   1  21
ATOM     20  C   UNL     1       3.404   5.384  19.438  0.00  0.00    +0.000 C 
ATOM     21  C   UNL     1       3.676   4.576  18.167  0.00  0.00    +0.000 C 
BRANCH  21  22
ATOM     22  S   UNL     1       3.685   2.772  18.502  0.00  0.00    +0.000 S 
BRANCH  22  23
ATOM     23  C   UNL     1       2.879   2.664  20.023  0.00  0.00    +0.000 A 
ATOM     24  N   UNL     1       3.441   2.596  21.212  0.00  0.00    +0.000 NA
ATOM     25  N   UNL     1       2.435   2.593  22.151  0.00  0.00    +0.000 NA
ATOM     26  C   UNL     1       1.291   2.679  21.505  0.00  0.00    +0.000 A 
ATOM     27  N   UNL     1       1.524   2.694  20.164  0.00  0.00    +0.000 N 
ATOM     28  C   UNL     1       0.527   2.713  19.130  0.00  0.00    +0.000 C 
ENDBRANCH  22  23
ENDBRANCH  21  22
ENDBRANCH   1  21
TORSDOF 4
ENDMDL
MODEL 3
REMARK VINA RESULT:      -8.2      4.256      7.257
REMARK  Name = 
REMARK  6 active torsions:
REMARK  status: ('A' for Active; 'I' for Inactive)
REMARK    1  A    between atoms: C_1  and  C_2
REMARK    2  A    between atoms: C_2  and  S_3
REMARK    3  A    between atoms: C_2  and  C_10
REMARK    4  A    between atoms: S_3  and  C_4
REMARK    5  A    between atoms: N_8  and  C_9
REMARK    6  A    between atoms: C_14  and  N_15
REMARK                            x       y       z     vdW  Elec       q    Type
REMARK                         _______ _______ _______ _____ _____    ______ ____
ROOT
ATOM      1  C   UNL     1       4.404   4.761  16.856  0.00  0.00    +0.000 A 
ATOM      2  C   UNL     1       3.690   3.560  17.018  0.00  0.00    +0.000 A 
ATOM      3  C   UNL     1       2.469   3.541  17.686  0.00  0.00    +0.000 A 
ATOM      4  C   UNL     1       1.951   4.716  18.228  0.00  0.00    +0.000 A 
ATOM      5  C   UNL     1       2.662   5.911  18.131  0.00  0.00    +0.000 A 
ATOM      6  C   UNL     1       3.872   5.932  17.424  0.00  0.00    +0.000 A 
ENDROOT
BRANCH   5   7
ATOM      7  N   UNL     1       2.215   7.119  18.707  0.00  0.00    +0.000 N 
ATOM      8  C   UNL     1       1.747   7.271  19.993  0.00  0.00    +0.000 C 
ATOM      9  O   UNL     1       1.728   6.391  20.849  0.00  0.00    +0.000 OA
ATOM     10  N   UNL     1       1.303   8.535  20.291  0.00  0.00    +0.000 N 
ATOM     11  C   UNL     1       0.871   8.844  21.656  0.00  0.00    +0.000 C 
ATOM     12  C   UNL     1       0.398  10.266  21.564  0.00  0.00    +0.000 A 
ATOM     13  N   UNL     1      -0.001  11.045  22.585  0.00  0.00    +0.000 NA
ATOM     14  C   UNL     1      -0.372  12.292  22.201  0.00  0.00    +0.000 A 
ATOM     15  C   UNL     1      -0.347  12.718  20.872  0.00  0.00    +0.000 A 
ATOM     16  N   UNL     1       0.055  11.925  19.848  0.00  0.00    +0.000 NA
ATOM     17  C   UNL     1       0.427  10.694  20.240  0.00  0.00    +0.000 A 
ATOM     18  C   UNL     1       0.939   9.597  19.352  0.00  0.00    +0.000 C 
ATOM     19  H   UNL     1       2.526   7.962  18.248  0.00  0.00    +0.000 HD
ENDBRANCH   5   7
BRANCH   1  21
ATOM     20  C   UNL     1       5.709   3.836  14.816  0.00  0.00    +0.000 C 
ATOM     21  C   UNL     1       5.685   4.760  16.035  0.00  0.00    +0.000 C 
BRANCH  21  22
ATOM     22  S   UNL     1       7.159   4.513  17.100  0.00  0.00    +0.000 S 
BRANCH  22  23
ATOM     23  C   UNL     1       7.625   6.129  17.483  0.00  0.00    +0.000 A 
ATOM     24  N   UNL     1       7.632   7.164  16.669  0.00  0.00    +0.000 NA
ATOM     25  N   UNL     1       8.005   8.269  17.398  0.00  0.00    +0.000 NA
ATOM     26  C   UNL     1       8.196   7.876  18.640  0.00  0.00    +0.000 A 
ATOM     27  N   UNL     1       7.998   6.533  18.731  0.00  0.00    +0.000 N 
ATOM     28  C   UNL     1       8.176   5.726  19.906  0.00  0.00    +0.000 C 
ENDBRANCH  22  23
ENDBRANCH  21  22
ENDBRANCH   1  21
TORSDOF 4
ENDMDL
MODEL 4
REMARK VINA RESULT:      -8.0      4.755      7.611
REMARK  Name = 
REMARK  6 active torsions:
REMARK  status: ('A' for Active; 'I' for Inactive)
REMARK    1  A    between atoms: C_1  and  C_2
REMARK    2  A    between atoms: C_2  and  S_3
REMARK    3  A    between atoms: C_2  and  C_10
REMARK    4  A    between atoms: S_3  and  C_4
REMARK    5  A    between atoms: N_8  and  C_9
REMARK    6  A    between atoms: C_14  and  N_15
REMARK                            x       y       z     vdW  Elec       q    Type
REMARK                         _______ _______ _______ _____ _____    ______ ____
ROOT
ATOM      1  C   UNL     1       5.325   4.827  19.051  0.00  0.00    +0.000 A 
ATOM      2  C   UNL     1       4.945   3.481  19.198  0.00  0.00    +0.000 A 
ATOM      3  C   UNL     1       3.693   3.145  19.706  0.00  0.00    +0.000 A 
ATOM      4  C   UNL     1       2.807   4.146  20.100  0.00  0.00    +0.000 A 
ATOM      5  C   UNL     1       3.177   5.488  20.019  0.00  0.00    +0.000 A 
ATOM      6  C   UNL     1       4.423   5.822  19.470  0.00  0.00    +0.000 A 
ENDROOT
BRANCH   5   7
ATOM      7  N   UNL     1       2.345   6.541  20.454  0.00  0.00    +0.000 N 
ATOM      8  C   UNL     1       1.980   7.637  19.707  0.00  0.00    +0.000 C 
ATOM      9  O   UNL     1       2.262   7.815  18.524  0.00  0.00    +0.000 OA
ATOM     10  N   UNL     1       1.220   8.559  20.381  0.00  0.00    +0.000 N 
ATOM     11  C   UNL     1       0.690   9.722  19.665  0.00  0.00    +0.000 C 
ATOM     12  C   UNL     1      -0.004  10.511  20.736  0.00  0.00    +0.000 A 
ATOM     13  N   UNL     1      -0.744  11.622  20.561  0.00  0.00    +0.000 NA
ATOM     14  C   UNL     1      -1.253  12.119  21.714  0.00  0.00    +0.000 A 
ATOM     15  C   UNL     1      -1.024  11.536  22.962  0.00  0.00    +0.000 A 
ATOM     16  N   UNL     1      -0.275  10.418  23.130  0.00  0.00    +0.000 NA
ATOM     17  C   UNL     1       0.221   9.929  21.980  0.00  0.00    +0.000 A 
ATOM     18  C   UNL     1       1.065   8.697  21.831  0.00  0.00    +0.000 C 
ATOM     19  H   UNL     1       1.758   6.332  21.248  0.00  0.00    +0.000 HD
ENDBRANCH   5   7
BRANCH   1  21
ATOM     20  C   UNL     1       7.807   5.514  19.349  0.00  0.00    +0.000 C 
ATOM     21  C   UNL     1       6.661   5.157  18.401  0.00  0.00    +0.000 C 
BRANCH  21  22
ATOM     22  S   UNL     1       6.463   6.412  17.075  0.00  0.00    +0.000 S 
BRANCH  22  23
ATOM     23  C   UNL     1       6.573   5.465  15.638  0.00  0.00    +0.000 A 
ATOM     24  N   UNL     1       7.562   5.461  14.768  0.00  0.00    +0.000 NA
ATOM     25  N   UNL     1       7.275   4.513  13.812  0.00  0.00    +0.000 NA
ATOM     26  C   UNL     1       6.128   3.956  14.140  0.00  0.00    +0.000 A 
ATOM     27  N   UNL     1       5.638   4.546  15.264  0.00  0.00    +0.000 N 
ATOM     28  C   UNL     1       4.379   4.259  15.894  0.00  0.00    +0.000 C 
ENDBRANCH  22  23
ENDBRANCH  21  22
ENDBRANCH   1  21
TORSDOF 4
ENDMDL
MODEL 5
REMARK VINA RESULT:      -7.8      5.051      7.843
REMARK  Name = 
REMARK  6 active torsions:
REMARK  status: ('A' for Active; 'I' for Inactive)
REMARK    1  A    between atoms: C_1  and  C_2
REMARK    2  A    between atoms: C_2  and  S_3
REMARK    3  A    between atoms: C_2  and  C_10
REMARK    4  A    between atoms: S_3  and  C_4
REMARK    5  A    between atoms: N_8  and  C_9
REMARK    6  A    between atoms: C_14  and  N_15
REMARK                            x       y       z     vdW  Elec       q    Type
REMARK                         _______ _______ _______ _____ _____    ______ ____
ROOT
ATOM      1  C   UNL     1       4.391   5.416  17.739  0.00  0.00    +0.000 A 
ATOM      2  C   UNL     1       4.196   4.098  18.189  0.00  0.00    +0.000 A 
ATOM      3  C   UNL     1       3.215   3.803  19.132  0.00  0.00    +0.000 A 
ATOM      4  C   UNL     1       2.428   4.823  19.663  0.00  0.00    +0.000 A 
ATOM      5  C   UNL     1       2.635   6.148  19.278  0.00  0.00    +0.000 A 
ATOM      6  C   UNL     1       3.597   6.433  18.299  0.00  0.00    +0.000 A 
ENDROOT
BRANCH   5   7
ATOM      7  N   UNL     1       1.908   7.228  19.822  0.00  0.00    +0.000 N 
ATOM      8  C   UNL     1       1.716   8.451  19.221  0.00  0.00    +0.000 C 
ATOM      9  O   UNL     1       2.085   8.749  18.087  0.00  0.00    +0.000 OA
ATOM     10  N   UNL     1       1.031   9.361  19.986  0.00  0.00    +0.000 N 
ATOM     11  C   UNL     1       0.683  10.665  19.417  0.00  0.00    +0.000 C 
ATOM     12  C   UNL     1       0.024  11.384  20.559  0.00  0.00    +0.000 A 
ATOM     13  N   UNL     1      -0.570  12.590  20.510  0.00  0.00    +0.000 NA
ATOM     14  C   UNL     1      -1.084  12.988  21.700  0.00  0.00    +0.000 A 
ATOM     15  C   UNL     1      -0.997  12.219  22.862  0.00  0.00    +0.000 A 
ATOM     16  N   UNL     1      -0.394  11.004  22.903  0.00  0.00    +0.000 NA
ATOM     17  C   UNL     1       0.107  10.617  21.717  0.00  0.00    +0.000 A 
ATOM     18  C   UNL     1       0.809   9.321  21.432  0.00  0.00    +0.000 C 
ATOM     19  H   UNL     1       1.255   6.989  20.553  0.00  0.00    +0.000 HD
ENDBRANCH   5   7
BRANCH   1  21
ATOM     20  C   UNL     1       5.022   6.755  15.611  0.00  0.00    +0.000 C 
ATOM     21  C   UNL     1       5.404   5.684  16.636  0.00  0.00    +0.000 C 
BRANCH  21  22
ATOM     22  S   UNL     1       5.931   4.126  15.823  0.00  0.00    +0.000 S 
BRANCH  22  23
ATOM     23  C   UNL     1       6.840   4.692  14.471  0.00  0.00    +0.000 A 
ATOM     24  N   UNL     1       7.855   5.531  14.497  0.00  0.00    +0.000 NA
ATOM     25  N   UNL     1       8.328   5.656  13.211  0.00  0.00    +0.000 NA
ATOM     26  C   UNL     1       7.599   4.873  12.444  0.00  0.00    +0.000 A 
ATOM     27  N   UNL     1       6.633   4.273  13.191  0.00  0.00    +0.000 N 
ATOM     28  C   UNL     1       5.602   3.400  12.702  0.00  0.00    +0.000 C 
ENDBRANCH  22  23
ENDBRANCH  21  22
ENDBRANCH   1  21
TORSDOF 4
ENDMDL
MODEL 6
REMARK VINA RESULT:      -7.7      6.501      8.542
REMARK  Name = 
REMARK  6 active torsions:
REMARK  status: ('A' for Active; 'I' for Inactive)
REMARK    1  A    between atoms: C_1  and  C_2
REMARK    2  A    between atoms: C_2  and  S_3
REMARK    3  A    between atoms: C_2  and  C_10
REMARK    4  A    between atoms: S_3  and  C_4
REMARK    5  A    between atoms: N_8  and  C_9
REMARK    6  A    between atoms: C_14  and  N_15
REMARK                            x       y       z     vdW  Elec       q    Type
REMARK                         _______ _______ _______ _____ _____    ______ ____
ROOT
ATOM      1  C   UNL     1       2.295   7.421  19.471  0.00  0.00    +0.000 A 
ATOM      2  C   UNL     1       2.614   7.804  18.156  0.00  0.00    +0.000 A 
ATOM      3  C   UNL     1       2.145   9.004  17.629  0.00  0.00    +0.000 A 
ATOM      4  C   UNL     1       1.326   9.831  18.395  0.00  0.00    +0.000 A 
ATOM      5  C   UNL     1       0.947   9.452  19.682  0.00  0.00    +0.000 A 
ATOM      6  C   UNL     1       1.454   8.262  20.223  0.00  0.00    +0.000 A 
ENDROOT
BRANCH   5   7
ATOM      7  N   UNL     1       0.077  10.221  20.484  0.00  0.00    +0.000 N 
ATOM      8  C   UNL     1       0.389  11.417  21.089  0.00  0.00    +0.000 C 
ATOM      9  O   UNL     1       1.447  12.026  20.952  0.00  0.00    +0.000 OA
ATOM     10  N   UNL     1      -0.608  11.935  21.877  0.00  0.00    +0.000 N 
ATOM     11  C   UNL     1      -0.429  13.250  22.497  0.00  0.00    +0.000 C 
ATOM     12  C   UNL     1      -1.673  13.425  23.319  0.00  0.00    +0.000 A 
ATOM     13  N   UNL     1      -2.034  14.527  24.001  0.00  0.00    +0.000 NA
ATOM     14  C   UNL     1      -3.216  14.397  24.652  0.00  0.00    +0.000 A 
ATOM     15  C   UNL     1      -3.978  13.228  24.621  0.00  0.00    +0.000 A 
ATOM     16  N   UNL     1      -3.605  12.120  23.932  0.00  0.00    +0.000 NA
ATOM     17  C   UNL     1      -2.436  12.261  23.285  0.00  0.00    +0.000 A 
ATOM     18  C   UNL     1      -1.769  11.229  22.423  0.00  0.00    +0.000 C 
ATOM     19  H   UNL     1      -0.907  10.030  20.366  0.00  0.00    +0.000 HD
ENDBRANCH   5   7
BRANCH   1  21
ATOM     20  C   UNL     1       4.126   5.594  19.312  0.00  0.00    +0.000 C 
ATOM     21  C   UNL     1       2.906   6.152  20.047  0.00  0.00    +0.000 C 
BRANCH  21  22
ATOM     22  S   UNL     1       1.630   4.862  20.317  0.00  0.00    +0.000 S 
BRANCH  22  23
ATOM     23  C   UNL     1       2.014   3.690  19.111  0.00  0.00    +0.000 A 
ATOM     24  N   UNL     1       1.563   3.651  17.874  0.00  0.00    +0.000 NA
ATOM     25  N   UNL     1       2.175   2.596  17.238  0.00  0.00    +0.000 NA
ATOM     26  C   UNL     1       2.995   2.035  18.102  0.00  0.00    +0.000 A 
ATOM     27  N   UNL     1       2.901   2.672  19.301  0.00  0.00    +0.000 N 
ATOM     28  C   UNL     1       3.589   2.312  20.510  0.00  0.00    +0.000 C 
ENDBRANCH  22  23
ENDBRANCH  21  22
ENDBRANCH   1  21
TORSDOF 4
ENDMDL
MODEL 7
REMARK VINA RESULT:      -7.7      4.393      7.060
REMARK  Name = 
REMARK  6 active torsions:
REMARK  status: ('A' for Active; 'I' for Inactive)
REMARK    1  A    between atoms: C_1  and  C_2
REMARK    2  A    between atoms: C_2  and  S_3
REMARK    3  A    between atoms: C_2  and  C_10
REMARK    4  A    between atoms: S_3  and  C_4
REMARK    5  A    between atoms: N_8  and  C_9
REMARK    6  A    between atoms: C_14  and  N_15
REMARK                            x       y       z     vdW  Elec       q    Type
REMARK                         _______ _______ _______ _____ _____    ______ ____
ROOT
ATOM      1  C   UNL     1       4.597   5.200  16.606  0.00  0.00    +0.000 A 
ATOM      2  C   UNL     1       4.118   3.915  16.917  0.00  0.00    +0.000 A 
ATOM      3  C   UNL     1       3.047   3.744  17.790  0.00  0.00    +0.000 A 
ATOM      4  C   UNL     1       2.451   4.853  18.389  0.00  0.00    +0.000 A 
ATOM      5  C   UNL     1       2.940   6.135  18.143  0.00  0.00    +0.000 A 
ATOM      6  C   UNL     1       3.993   6.304  17.233  0.00  0.00    +0.000 A 
ENDROOT
BRANCH   5   7
ATOM      7  N   UNL     1       2.413   7.289  18.762  0.00  0.00    +0.000 N 
ATOM      8  C   UNL     1       1.863   7.344  20.023  0.00  0.00    +0.000 C 
ATOM      9  O   UNL     1       1.825   6.411  20.821  0.00  0.00    +0.000 OA
ATOM     10  N   UNL     1       1.354   8.570  20.370  0.00  0.00    +0.000 N 
ATOM     11  C   UNL     1       0.830   8.778  21.721  0.00  0.00    +0.000 C 
ATOM     12  C   UNL     1       0.310  10.186  21.686  0.00  0.00    +0.000 A 
ATOM     13  N   UNL     1      -0.180  10.885  22.726  0.00  0.00    +0.000 NA
ATOM     14  C   UNL     1      -0.573  12.140  22.397  0.00  0.00    +0.000 A 
ATOM     15  C   UNL     1      -0.484  12.650  21.100  0.00  0.00    +0.000 A 
ATOM     16  N   UNL     1       0.009  11.937  20.056  0.00  0.00    +0.000 NA
ATOM     17  C   UNL     1       0.402  10.697  20.395  0.00  0.00    +0.000 A 
ATOM     18  C   UNL     1       1.008   9.676  19.476  0.00  0.00    +0.000 C 
ATOM     19  H   UNL     1       2.720   8.169  18.376  0.00  0.00    +0.000 HD
ENDBRANCH   5   7
BRANCH   1  21
ATOM     20  C   UNL     1       5.366   4.910  14.148  0.00  0.00    +0.000 C 
ATOM     21  C   UNL     1       5.703   5.352  15.573  0.00  0.00    +0.000 C 
BRANCH  21  22
ATOM     22  S   UNL     1       7.272   4.601  16.161  0.00  0.00    +0.000 S 
BRANCH  22  23
ATOM     23  C   UNL     1       7.375   5.164  17.788  0.00  0.00    +0.000 A 
ATOM     24  N   UNL     1       7.281   4.438  18.883  0.00  0.00    +0.000 NA
ATOM     25  N   UNL     1       7.489   5.272  19.957  0.00  0.00    +0.000 NA
ATOM     26  C   UNL     1       7.722   6.478  19.483  0.00  0.00    +0.000 A 
ATOM     27  N   UNL     1       7.630   6.460  18.125  0.00  0.00    +0.000 N 
ATOM     28  C   UNL     1       7.754   7.593  17.251  0.00  0.00    +0.000 C 
ENDBRANCH  22  23
ENDBRANCH  21  22
ENDBRANCH   1  21
TORSDOF 4
ENDMDL
MODEL 8
REMARK VINA RESULT:      -7.6      5.935      8.787
REMARK  Name = 
REMARK  6 active torsions:
REMARK  status: ('A' for Active; 'I' for Inactive)
REMARK    1  A    between atoms: C_1  and  C_2
REMARK    2  A    between atoms: C_2  and  S_3
REMARK    3  A    between atoms: C_2  and  C_10
REMARK    4  A    between atoms: S_3  and  C_4
REMARK    5  A    between atoms: N_8  and  C_9
REMARK    6  A    between atoms: C_14  and  N_15
REMARK                            x       y       z     vdW  Elec       q    Type
REMARK                         _______ _______ _______ _____ _____    ______ ____
ROOT
ATOM      1  C   UNL     1      -0.108  10.784  19.976  0.00  0.00    +0.000 A 
ATOM      2  C   UNL     1      -0.325  10.390  21.309  0.00  0.00    +0.000 A 
ATOM      3  C   UNL     1       0.327   9.280  21.839  0.00  0.00    +0.000 A 
ATOM      4  C   UNL     1       1.188   8.528  21.042  0.00  0.00    +0.000 A 
ATOM      5  C   UNL     1       1.380   8.862  19.702  0.00  0.00    +0.000 A 
ATOM      6  C   UNL     1       0.751  10.003  19.183  0.00  0.00    +0.000 A 
ENDROOT
BRANCH   5   7
ATOM      7  N   UNL     1       2.195   8.106  18.832  0.00  0.00    +0.000 N 
ATOM      8  C   UNL     1       2.485   6.768  18.964  0.00  0.00    +0.000 C 
ATOM      9  O   UNL     1       2.010   6.019  19.815  0.00  0.00    +0.000 OA
ATOM     10  N   UNL     1       3.362   6.280  18.028  0.00  0.00    +0.000 N 
ATOM     11  C   UNL     1       3.673   4.848  18.007  0.00  0.00    +0.000 C 
ATOM     12  C   UNL     1       4.699   4.726  16.918  0.00  0.00    +0.000 A 
ATOM     13  N   UNL     1       5.227   3.584  16.440  0.00  0.00    +0.000 NA
ATOM     14  C   UNL     1       6.133   3.780  15.451  0.00  0.00    +0.000 A 
ATOM     15  C   UNL     1       6.486   5.047  14.981  0.00  0.00    +0.000 A 
ATOM     16  N   UNL     1       5.950   6.193  15.471  0.00  0.00    +0.000 NA
ATOM     17  C   UNL     1       5.049   5.988  16.447  0.00  0.00    +0.000 A 
ATOM     18  C   UNL     1       4.268   7.046  17.171  0.00  0.00    +0.000 C 
ATOM     19  H   UNL     1       2.332   8.499  17.913  0.00  0.00    +0.000 HD
ENDBRANCH   5   7
BRANCH   1  21
ATOM     20  C   UNL     1      -0.328  13.362  20.135  0.00  0.00    +0.000 C 
ATOM     21  C   UNL     1      -0.761  12.058  19.461  0.00  0.00    +0.000 C 
BRANCH  21  22
ATOM     22  S   UNL     1      -2.589  11.896  19.411  0.00  0.00    +0.000 S 
BRANCH  22  23
ATOM     23  C   UNL     1      -2.888  11.484  17.763  0.00  0.00    +0.000 A 
ATOM     24  N   UNL     1      -1.999  11.102  16.870  0.00  0.00    +0.000 NA
ATOM     25  N   UNL     1      -2.673  10.808  15.707  0.00  0.00    +0.000 NA
ATOM     26  C   UNL     1      -3.955  11.001  15.933  0.00  0.00    +0.000 A 
ATOM     27  N   UNL     1      -4.131  11.457  17.204  0.00  0.00    +0.000 N 
ATOM     28  C   UNL     1      -5.378  11.845  17.801  0.00  0.00    +0.000 C 
ENDBRANCH  22  23
ENDBRANCH  21  22
ENDBRANCH   1  21
TORSDOF 4
ENDMDL
MODEL 9
REMARK VINA RESULT:      -7.6      6.608      9.295
REMARK  Name = 
REMARK  6 active torsions:
REMARK  status: ('A' for Active; 'I' for Inactive)
REMARK    1  A    between atoms: C_1  and  C_2
REMARK    2  A    between atoms: C_2  and  S_3
REMARK    3  A    between atoms: C_2  and  C_10
REMARK    4  A    between atoms: S_3  and  C_4
REMARK    5  A    between atoms: N_8  and  C_9
REMARK    6  A    between atoms: C_14  and  N_15
REMARK                            x       y       z     vdW  Elec       q    Type
REMARK                         _______ _______ _______ _____ _____    ______ ____
ROOT
ATOM      1  C   UNL     1      -0.551  10.565  20.844  0.00  0.00    +0.000 A 
ATOM      2  C   UNL     1      -0.428  10.290  22.218  0.00  0.00    +0.000 A 
ATOM      3  C   UNL     1       0.507   9.367  22.680  0.00  0.00    +0.000 A 
ATOM      4  C   UNL     1       1.319   8.684  21.777  0.00  0.00    +0.000 A 
ATOM      5  C   UNL     1       1.182   8.895  20.405  0.00  0.00    +0.000 A 
ATOM      6  C   UNL     1       0.266   9.853  19.948  0.00  0.00    +0.000 A 
ENDROOT
BRANCH   5   7
ATOM      7  N   UNL     1       1.937   8.193  19.441  0.00  0.00    +0.000 N 
ATOM      8  C   UNL     1       2.259   6.856  19.492  0.00  0.00    +0.000 C 
ATOM      9  O   UNL     1       1.866   6.064  20.344  0.00  0.00    +0.000 OA
ATOM     10  N   UNL     1       3.065   6.426  18.468  0.00  0.00    +0.000 N 
ATOM     11  C   UNL     1       3.397   5.003  18.360  0.00  0.00    +0.000 C 
ATOM     12  C   UNL     1       4.335   4.947  17.189  0.00  0.00    +0.000 A 
ATOM     13  N   UNL     1       4.841   3.837  16.622  0.00  0.00    +0.000 NA
ATOM     14  C   UNL     1       5.661   4.092  15.573  0.00  0.00    +0.000 A 
ATOM     15  C   UNL     1       5.954   5.384  15.133  0.00  0.00    +0.000 A 
ATOM     16  N   UNL     1       5.441   6.498  15.712  0.00  0.00    +0.000 NA
ATOM     17  C   UNL     1       4.624   6.234  16.747  0.00  0.00    +0.000 A 
ATOM     18  C   UNL     1       3.888   7.245  17.576  0.00  0.00    +0.000 C 
ATOM     19  H   UNL     1       1.994   8.627  18.532  0.00  0.00    +0.000 HD
ENDBRANCH   5   7
BRANCH   1  21
ATOM     20  C   UNL     1      -1.350  12.137  18.944  0.00  0.00    +0.000 C 
ATOM     21  C   UNL     1      -1.515  11.650  20.385  0.00  0.00    +0.000 C 
BRANCH  21  22
ATOM     22  S   UNL     1      -1.555  13.049  21.572  0.00  0.00    +0.000 S 
BRANCH  22  23
ATOM     23  C   UNL     1      -3.098  12.866  22.322  0.00  0.00    +0.000 A 
ATOM     24  N   UNL     1      -3.375  12.153  23.394  0.00  0.00    +0.000 NA
ATOM     25  N   UNL     1      -4.706  12.340  23.688  0.00  0.00    +0.000 NA
ATOM     26  C   UNL     1      -5.194  13.177  22.797  0.00  0.00    +0.000 A 
ATOM     27  N   UNL     1      -4.224  13.509  21.902  0.00  0.00    +0.000 N 
ATOM     28  C   UNL     1      -4.385  14.347  20.747  0.00  0.00    +0.000 C 
ENDBRANCH  22  23
ENDBRANCH  21  22
ENDBRANCH   1  21
TORSDOF 4
ENDMDL
