MODEL 1
REMARK VINA RESULT:      -9.6      0.000      0.000
REMARK  Name = 
REMARK  9 active torsions:
REMARK  status: ('A' for Active; 'I' for Inactive)
REMARK    1  A    between atoms: C_1  and  C_2
REMARK    2  A    between atoms: C_2  and  O_3
REMARK    3  A    between atoms: C_2  and  C_4
REMARK    4  A    between atoms: C_8  and  C_9
REMARK    5  A    between atoms: N_15  and  C_16
REMARK    6  A    between atoms: C_20  and  C_21
REMARK    7  A    between atoms: C_21  and  C_22
REMARK    8  A    between atoms: C_22  and  C_23
REMARK    9  A    between atoms: N_27  and  C_28
REMARK                            x       y       z     vdW  Elec       q    Type
REMARK                         _______ _______ _______ _____ _____    ______ ____
ROOT
ATOM      1  C   UNL     1      -0.066  11.515  19.264  0.00  0.00    +0.000 A 
ATOM      2  C   UNL     1       0.690  10.649  18.467  0.00  0.00    +0.000 A 
ATOM      3  C   UNL     1       1.124   9.469  19.029  0.00  0.00    +0.000 A 
ATOM      4  C   UNL     1       0.845   9.093  20.338  0.00  0.00    +0.000 A 
ATOM      5  C   UNL     1       0.097   9.928  21.161  0.00  0.00    +0.000 A 
ATOM      6  C   UNL     1      -0.360  11.142  20.601  0.00  0.00    +0.000 A 
ATOM      7  C   UNL     1       1.464   7.761  20.608  0.00  0.00    +0.000 C 
ATOM      8  N   UNL     1       2.145   7.447  19.357  0.00  0.00    +0.000 N 
ATOM      9  C   UNL     1       1.953   8.442  18.401  0.00  0.00    +0.000 C 
ATOM     10  O   UNL     1       2.332   8.541  17.251  0.00  0.00    +0.000 OA
ENDROOT
BRANCH   8  11
ATOM     11  C   UNL     1       2.912   6.272  19.185  0.00  0.00    +0.000 A 
ATOM     12  C   UNL     1       2.942   5.266  20.152  0.00  0.00    +0.000 A 
ATOM     13  C   UNL     1       3.688   4.107  19.952  0.00  0.00    +0.000 A 
ATOM     14  C   UNL     1       4.454   3.965  18.800  0.00  0.00    +0.000 A 
ATOM     15  C   UNL     1       4.505   4.972  17.818  0.00  0.00    +0.000 A 
ATOM     16  C   UNL     1       3.679   6.096  18.025  0.00  0.00    +0.000 A 
BRANCH  15  17
ATOM     17  C   UNL     1       5.492   4.886  16.564  0.00  0.00    +0.000 C 
ATOM     18  C   UNL     1       5.163   3.890  15.412  0.00  0.00    +0.000 C 
ATOM     19  O   UNL     1       5.397   4.929  14.420  0.00  0.00    +0.000 OA
ATOM     20  C   UNL     1       5.209   5.932  15.445  0.00  0.00    +0.000 C 
BRANCH  17  21
ATOM     21  C   UNL     1       6.968   4.849  16.998  0.00  0.00    +0.000 C 
BRANCH  21  22
ATOM     22  C   UNL     1       7.489   6.183  17.420  0.00  0.00    +0.000 A 
ATOM     23  N   UNL     1       7.617   7.247  16.649  0.00  0.00    +0.000 NA
ATOM     24  N   UNL     1       8.096   8.283  17.412  0.00  0.00    +0.000 NA
ATOM     25  C   UNL     1       8.255   7.836  18.634  0.00  0.00    +0.000 A 
ATOM     26  N   UNL     1       7.907   6.520  18.684  0.00  0.00    +0.000 N 
ATOM     27  C   UNL     1       7.974   5.684  19.852  0.00  0.00    +0.000 C 
ENDBRANCH  21  22
ENDBRANCH  17  21
ENDBRANCH  15  17
ENDBRANCH   8  11
BRANCH   5  28
ATOM     28  C   UNL     1      -0.205   9.590  22.599  0.00  0.00    +0.000 C 
ATOM     29  F   UNL     1       0.905   9.340  23.345  0.00  0.00    +0.000 F 
ATOM     30  F   UNL     1      -0.863  10.597  23.236  0.00  0.00    +0.000 F 
ATOM     31  F   UNL     1      -0.994   8.488  22.721  0.00  0.00    +0.000 F 
ENDBRANCH   5  28
BRANCH   1  33
ATOM     32  C   UNL     1       0.597  13.882  18.738  0.00  0.00    +0.000 C 
ATOM     33  C   UNL     1      -0.526  12.851  18.719  0.00  0.00    +0.000 C 
BRANCH  33  34
ATOM     34  O   UNL     1      -1.009  12.707  17.386  0.00  0.00    +0.000 OA
ATOM     35  H   UNL     1      -1.429  13.543  17.120  0.00  0.00    +0.000 HD
ENDBRANCH  33  34
ENDBRANCH   1  33
TORSDOF 7
ENDMDL
MODEL 2
REMARK VINA RESULT:      -9.5      1.602      2.493
REMARK  Name = 
REMARK  9 active torsions:
REMARK  status: ('A' for Active; 'I' for Inactive)
REMARK    1  A    between atoms: C_1  and  C_2
REMARK    2  A    between atoms: C_2  and  O_3
REMARK    3  A    between atoms: C_2  and  C_4
REMARK    4  A    between atoms: C_8  and  C_9
REMARK    5  A    between atoms: N_15  and  C_16
REMARK    6  A    between atoms: C_20  and  C_21
REMARK    7  A    between atoms: C_21  and  C_22
REMARK    8  A    between atoms: C_22  and  C_23
REMARK    9  A    between atoms: N_27  and  C_28
REMARK                            x       y       z     vdW  Elec       q    Type
REMARK                         _______ _______ _______ _____ _____    ______ ____
ROOT
ATOM      1  C   UNL     1      -0.313  11.375  19.349  0.00  0.00    +0.000 A 
ATOM      2  C   UNL     1       0.490  10.523  18.584  0.00  0.00    +0.000 A 
ATOM      3  C   UNL     1       1.011   9.404  19.196  0.00  0.00    +0.000 A 
ATOM      4  C   UNL     1       0.774   9.077  20.526  0.00  0.00    +0.000 A 
ATOM      5  C   UNL     1      -0.019   9.899  21.319  0.00  0.00    +0.000 A 
ATOM      6  C   UNL     1      -0.565  11.050  20.707  0.00  0.00    +0.000 A 
ATOM      7  C   UNL     1       1.486   7.804  20.851  0.00  0.00    +0.000 C 
ATOM      8  N   UNL     1       2.172   7.475  19.607  0.00  0.00    +0.000 N 
ATOM      9  C   UNL     1       1.901   8.406  18.606  0.00  0.00    +0.000 C 
ATOM     10  O   UNL     1       2.257   8.473  17.447  0.00  0.00    +0.000 OA
ENDROOT
BRANCH   8  11
ATOM     11  C   UNL     1       3.014   6.347  19.480  0.00  0.00    +0.000 A 
ATOM     12  C   UNL     1       2.620   5.082  19.916  0.00  0.00    +0.000 A 
ATOM     13  C   UNL     1       3.458   3.981  19.763  0.00  0.00    +0.000 A 
ATOM     14  C   UNL     1       4.726   4.145  19.215  0.00  0.00    +0.000 A 
ATOM     15  C   UNL     1       5.197   5.408  18.810  0.00  0.00    +0.000 A 
ATOM     16  C   UNL     1       4.290   6.483  18.915  0.00  0.00    +0.000 A 
BRANCH  15  17
ATOM     17  C   UNL     1       6.700   5.634  18.315  0.00  0.00    +0.000 C 
ATOM     18  C   UNL     1       7.109   7.031  17.759  0.00  0.00    +0.000 C 
ATOM     19  O   UNL     1       8.305   7.034  18.589  0.00  0.00    +0.000 OA
ATOM     20  C   UNL     1       7.699   6.034  19.442  0.00  0.00    +0.000 C 
BRANCH  17  21
ATOM     21  C   UNL     1       7.201   4.464  17.451  0.00  0.00    +0.000 C 
BRANCH  21  22
ATOM     22  C   UNL     1       6.895   4.633  15.999  0.00  0.00    +0.000 A 
ATOM     23  N   UNL     1       7.656   5.245  15.111  0.00  0.00    +0.000 NA
ATOM     24  N   UNL     1       7.049   5.159  13.883  0.00  0.00    +0.000 NA
ATOM     25  C   UNL     1       5.927   4.497  14.040  0.00  0.00    +0.000 A 
ATOM     26  N   UNL     1       5.778   4.164  15.352  0.00  0.00    +0.000 N 
ATOM     27  C   UNL     1       4.658   3.456  15.910  0.00  0.00    +0.000 C 
ENDBRANCH  21  22
ENDBRANCH  17  21
ENDBRANCH  15  17
ENDBRANCH   8  11
BRANCH   5  28
ATOM     28  C   UNL     1      -0.280   9.613  22.776  0.00  0.00    +0.000 C 
ATOM     29  F   UNL     1       0.851   9.389  23.499  0.00  0.00    +0.000 F 
ATOM     30  F   UNL     1      -0.919  10.643  23.395  0.00  0.00    +0.000 F 
ATOM     31  F   UNL     1      -1.064   8.517  22.961  0.00  0.00    +0.000 F 
ENDBRANCH   5  28
BRANCH   1  33
ATOM     32  C   UNL     1      -0.997  13.754  19.789  0.00  0.00    +0.000 C 
ATOM     33  C   UNL     1      -0.871  12.647  18.747  0.00  0.00    +0.000 C 
BRANCH  33  34
ATOM     34  O   UNL     1      -0.042  13.100  17.681  0.00  0.00    +0.000 OA
ATOM     35  H   UNL     1       0.862  12.774  17.836  0.00  0.00    +0.000 HD
ENDBRANCH  33  34
ENDBRANCH   1  33
TORSDOF 7
ENDMDL
MODEL 3
REMARK VINA RESULT:      -9.1      3.438      8.395
REMARK  Name = 
REMARK  9 active torsions:
REMARK  status: ('A' for Active; 'I' for Inactive)
REMARK    1  A    between atoms: C_1  and  C_2
REMARK    2  A    between atoms: C_2  and  O_3
REMARK    3  A    between atoms: C_2  and  C_4
REMARK    4  A    between atoms: C_8  and  C_9
REMARK    5  A    between atoms: N_15  and  C_16
REMARK    6  A    between atoms: C_20  and  C_21
REMARK    7  A    between atoms: C_21  and  C_22
REMARK    8  A    between atoms: C_22  and  C_23
REMARK    9  A    between atoms: N_27  and  C_28
REMARK                            x       y       z     vdW  Elec       q    Type
REMARK                         _______ _______ _______ _____ _____    ______ ____
ROOT
ATOM      1  C   UNL     1       5.262   4.627  16.319  0.00  0.00    +0.000 A 
ATOM      2  C   UNL     1       4.873   5.932  16.643  0.00  0.00    +0.000 A 
ATOM      3  C   UNL     1       3.937   6.097  17.641  0.00  0.00    +0.000 A 
ATOM      4  C   UNL     1       3.369   5.041  18.343  0.00  0.00    +0.000 A 
ATOM      5  C   UNL     1       3.730   3.731  18.049  0.00  0.00    +0.000 A 
ATOM      6  C   UNL     1       4.691   3.541  17.031  0.00  0.00    +0.000 A 
ATOM      7  C   UNL     1       2.405   5.583  19.347  0.00  0.00    +0.000 C 
ATOM      8  N   UNL     1       2.453   7.022  19.116  0.00  0.00    +0.000 N 
ATOM      9  C   UNL     1       3.360   7.355  18.113  0.00  0.00    +0.000 C 
ATOM     10  O   UNL     1       3.697   8.426  17.651  0.00  0.00    +0.000 OA
ENDROOT
BRANCH   8  11
ATOM     11  C   UNL     1       1.645   7.933  19.836  0.00  0.00    +0.000 A 
ATOM     12  C   UNL     1       1.243   7.681  21.148  0.00  0.00    +0.000 A 
ATOM     13  C   UNL     1       0.464   8.602  21.844  0.00  0.00    +0.000 A 
ATOM     14  C   UNL     1       0.037   9.767  21.214  0.00  0.00    +0.000 A 
ATOM     15  C   UNL     1       0.367  10.045  19.875  0.00  0.00    +0.000 A 
ATOM     16  C   UNL     1       1.216   9.122  19.230  0.00  0.00    +0.000 A 
BRANCH  15  17
ATOM     17  C   UNL     1      -0.236  11.304  19.096  0.00  0.00    +0.000 C 
ATOM     18  C   UNL     1      -1.218  11.059  17.911  0.00  0.00    +0.000 C 
ATOM     19  O   UNL     1      -2.142  12.049  18.446  0.00  0.00    +0.000 OA
ATOM     20  C   UNL     1      -1.516  11.913  19.743  0.00  0.00    +0.000 C 
BRANCH  17  21
ATOM     21  C   UNL     1       0.843  12.356  18.786  0.00  0.00    +0.000 C 
BRANCH  21  22
ATOM     22  C   UNL     1       1.119  13.271  19.934  0.00  0.00    +0.000 A 
ATOM     23  N   UNL     1       1.808  12.970  21.019  0.00  0.00    +0.000 NA
ATOM     24  N   UNL     1       1.868  14.083  21.820  0.00  0.00    +0.000 NA
ATOM     25  C   UNL     1       1.215  15.045  21.213  0.00  0.00    +0.000 A 
ATOM     26  N   UNL     1       0.710  14.578  20.038  0.00  0.00    +0.000 N 
ATOM     27  C   UNL     1      -0.085  15.338  19.112  0.00  0.00    +0.000 C 
ENDBRANCH  21  22
ENDBRANCH  17  21
ENDBRANCH  15  17
ENDBRANCH   8  11
BRANCH   5  28
ATOM     28  C   UNL     1       3.119   2.544  18.752  0.00  0.00    +0.000 C 
ATOM     29  F   UNL     1       3.378   2.509  20.087  0.00  0.00    +0.000 F 
ATOM     30  F   UNL     1       1.763   2.520  18.634  0.00  0.00    +0.000 F 
ATOM     31  F   UNL     1       3.561   1.358  18.253  0.00  0.00    +0.000 F 
ENDBRANCH   5  28
BRANCH   1  33
ATOM     32  C   UNL     1       5.543   4.268  13.847  0.00  0.00    +0.000 C 
ATOM     33  C   UNL     1       6.246   4.379  15.196  0.00  0.00    +0.000 C 
BRANCH  33  34
ATOM     34  O   UNL     1       7.211   5.426  15.137  0.00  0.00    +0.000 OA
ATOM     35  H   UNL     1       8.077   5.060  15.390  0.00  0.00    +0.000 HD
ENDBRANCH  33  34
ENDBRANCH   1  33
TORSDOF 7
ENDMDL
MODEL 4
REMARK VINA RESULT:      -9.1      3.290      8.173
REMARK  Name = 
REMARK  9 active torsions:
REMARK  status: ('A' for Active; 'I' for Inactive)
REMARK    1  A    between atoms: C_1  and  C_2
REMARK    2  A    between atoms: C_2  and  O_3
REMARK    3  A    between atoms: C_2  and  C_4
REMARK    4  A    between atoms: C_8  and  C_9
REMARK    5  A    between atoms: N_15  and  C_16
REMARK    6  A    between atoms: C_20  and  C_21
REMARK    7  A    between atoms: C_21  and  C_22
REMARK    8  A    between atoms: C_22  and  C_23
REMARK    9  A    between atoms: N_27  and  C_28
REMARK                            x       y       z     vdW  Elec       q    Type
REMARK                         _______ _______ _______ _____ _____    ______ ____
ROOT
ATOM      1  C   UNL     1       4.135   4.857  17.291  0.00  0.00    +0.000 A 
ATOM      2  C   UNL     1       3.796   6.211  17.387  0.00  0.00    +0.000 A 
ATOM      3  C   UNL     1       2.975   6.599  18.423  0.00  0.00    +0.000 A 
ATOM      4  C   UNL     1       2.475   5.721  19.377  0.00  0.00    +0.000 A 
ATOM      5  C   UNL     1       2.790   4.367  19.315  0.00  0.00    +0.000 A 
ATOM      6  C   UNL     1       3.633   3.951  18.260  0.00  0.00    +0.000 A 
ATOM      7  C   UNL     1       1.631   6.480  20.347  0.00  0.00    +0.000 C 
ATOM      8  N   UNL     1       1.668   7.843  19.830  0.00  0.00    +0.000 N 
ATOM      9  C   UNL     1       2.465   7.942  18.692  0.00  0.00    +0.000 C 
ATOM     10  O   UNL     1       2.761   8.890  17.993  0.00  0.00    +0.000 OA
ENDROOT
BRANCH   8  11
ATOM     11  C   UNL     1       0.952   8.902  20.433  0.00  0.00    +0.000 A 
ATOM     12  C   UNL     1       0.917   9.072  21.818  0.00  0.00    +0.000 A 
ATOM     13  C   UNL     1       0.222  10.134  22.389  0.00  0.00    +0.000 A 
ATOM     14  C   UNL     1      -0.489  11.014  21.578  0.00  0.00    +0.000 A 
ATOM     15  C   UNL     1      -0.534  10.858  20.181  0.00  0.00    +0.000 A 
ATOM     16  C   UNL     1       0.242   9.813  19.638  0.00  0.00    +0.000 A 
BRANCH  15  17
ATOM     17  C   UNL     1      -1.463  11.771  19.254  0.00  0.00    +0.000 C 
ATOM     18  C   UNL     1      -2.602  11.099  18.431  0.00  0.00    +0.000 C 
ATOM     19  O   UNL     1      -3.549  12.109  18.879  0.00  0.00    +0.000 OA
ATOM     20  C   UNL     1      -2.674  12.418  19.989  0.00  0.00    +0.000 C 
BRANCH  17  21
ATOM     21  C   UNL     1      -0.639  12.784  18.439  0.00  0.00    +0.000 C 
BRANCH  21  22
ATOM     22  C   UNL     1       0.395  13.490  19.254  0.00  0.00    +0.000 A 
ATOM     23  N   UNL     1       0.164  14.359  20.220  0.00  0.00    +0.000 NA
ATOM     24  N   UNL     1       1.367  14.757  20.747  0.00  0.00    +0.000 NA
ATOM     25  C   UNL     1       2.314  14.126  20.095  0.00  0.00    +0.000 A 
ATOM     26  N   UNL     1       1.755  13.336  19.136  0.00  0.00    +0.000 N 
ATOM     27  C   UNL     1       2.481  12.513  18.207  0.00  0.00    +0.000 C 
ENDBRANCH  21  22
ENDBRANCH  17  21
ENDBRANCH  15  17
ENDBRANCH   8  11
BRANCH   5  28
ATOM     28  C   UNL     1       2.246   3.363  20.299  0.00  0.00    +0.000 C 
ATOM     29  F   UNL     1       0.889   3.277  20.298  0.00  0.00    +0.000 F 
ATOM     30  F   UNL     1       2.699   2.104  20.051  0.00  0.00    +0.000 F 
ATOM     31  F   UNL     1       2.602   3.645  21.582  0.00  0.00    +0.000 F 
ENDBRANCH   5  28
BRANCH   1  33
ATOM     32  C   UNL     1       5.416   5.503  15.227  0.00  0.00    +0.000 C 
ATOM     33  C   UNL     1       4.990   4.361  16.144  0.00  0.00    +0.000 C 
BRANCH  33  34
ATOM     34  O   UNL     1       6.150   3.697  16.636  0.00  0.00    +0.000 OA
ATOM     35  H   UNL     1       6.752   3.536  15.889  0.00  0.00    +0.000 HD
ENDBRANCH  33  34
ENDBRANCH   1  33
TORSDOF 7
ENDMDL
MODEL 5
REMARK VINA RESULT:      -8.8      3.395      8.527
REMARK  Name = 
REMARK  9 active torsions:
REMARK  status: ('A' for Active; 'I' for Inactive)
REMARK    1  A    between atoms: C_1  and  C_2
REMARK    2  A    between atoms: C_2  and  O_3
REMARK    3  A    between atoms: C_2  and  C_4
REMARK    4  A    between atoms: C_8  and  C_9
REMARK    5  A    between atoms: N_15  and  C_16
REMARK    6  A    between atoms: C_20  and  C_21
REMARK    7  A    between atoms: C_21  and  C_22
REMARK    8  A    between atoms: C_22  and  C_23
REMARK    9  A    between atoms: N_27  and  C_28
REMARK                            x       y       z     vdW  Elec       q    Type
REMARK                         _______ _______ _______ _____ _____    ______ ____
ROOT
ATOM      1  C   UNL     1       3.689   4.941  17.655  0.00  0.00    +0.000 A 
ATOM      2  C   UNL     1       3.369   6.300  17.750  0.00  0.00    +0.000 A 
ATOM      3  C   UNL     1       2.646   6.718  18.845  0.00  0.00    +0.000 A 
ATOM      4  C   UNL     1       2.226   5.864  19.859  0.00  0.00    +0.000 A 
ATOM      5  C   UNL     1       2.525   4.508  19.800  0.00  0.00    +0.000 A 
ATOM      6  C   UNL     1       3.269   4.061  18.684  0.00  0.00    +0.000 A 
ATOM      7  C   UNL     1       1.476   6.652  20.883  0.00  0.00    +0.000 C 
ATOM      8  N   UNL     1       1.476   8.003  20.334  0.00  0.00    +0.000 N 
ATOM      9  C   UNL     1       2.170   8.071  19.128  0.00  0.00    +0.000 C 
ATOM     10  O   UNL     1       2.409   9.001  18.385  0.00  0.00    +0.000 OA
ENDROOT
BRANCH   8  11
ATOM     11  C   UNL     1       0.823   9.081  20.974  0.00  0.00    +0.000 A 
ATOM     12  C   UNL     1      -0.088   8.878  22.011  0.00  0.00    +0.000 A 
ATOM     13  C   UNL     1      -0.704   9.957  22.641  0.00  0.00    +0.000 A 
ATOM     14  C   UNL     1      -0.451  11.253  22.203  0.00  0.00    +0.000 A 
ATOM     15  C   UNL     1       0.415  11.512  21.125  0.00  0.00    +0.000 A 
ATOM     16  C   UNL     1       1.074  10.398  20.564  0.00  0.00    +0.000 A 
BRANCH  15  17
ATOM     17  C   UNL     1       0.602  12.980  20.519  0.00  0.00    +0.000 C 
ATOM     18  C   UNL     1       1.584  13.966  21.219  0.00  0.00    +0.000 C 
ATOM     19  O   UNL     1       2.187  14.306  19.939  0.00  0.00    +0.000 OA
ATOM     20  C   UNL     1       1.659  13.080  19.380  0.00  0.00    +0.000 C 
BRANCH  17  21
ATOM     21  C   UNL     1      -0.747  13.622  20.151  0.00  0.00    +0.000 C 
BRANCH  21  22
ATOM     22  C   UNL     1      -1.575  12.770  19.246  0.00  0.00    +0.000 A 
ATOM     23  N   UNL     1      -1.214  12.316  18.060  0.00  0.00    +0.000 NA
ATOM     24  N   UNL     1      -2.233  11.545  17.559  0.00  0.00    +0.000 NA
ATOM     25  C   UNL     1      -3.200  11.541  18.445  0.00  0.00    +0.000 A 
ATOM     26  N   UNL     1      -2.842  12.312  19.510  0.00  0.00    +0.000 N 
ATOM     27  C   UNL     1      -3.658  12.566  20.666  0.00  0.00    +0.000 C 
ENDBRANCH  21  22
ENDBRANCH  17  21
ENDBRANCH  15  17
ENDBRANCH   8  11
BRANCH   5  28
ATOM     28  C   UNL     1       2.064   3.529  20.851  0.00  0.00    +0.000 C 
ATOM     29  F   UNL     1       2.459   3.856  22.111  0.00  0.00    +0.000 F 
ATOM     30  F   UNL     1       0.708   3.428  20.899  0.00  0.00    +0.000 F 
ATOM     31  F   UNL     1       2.528   2.269  20.629  0.00  0.00    +0.000 F 
ENDBRANCH   5  28
BRANCH   1  33
ATOM     32  C   UNL     1       5.291   5.498  15.799  0.00  0.00    +0.000 C 
ATOM     33  C   UNL     1       4.436   4.414  16.448  0.00  0.00    +0.000 C 
BRANCH  33  34
ATOM     34  O   UNL     1       5.268   3.318  16.816  0.00  0.00    +0.000 OA
ATOM     35  H   UNL     1       4.866   2.499  16.476  0.00  0.00    +0.000 HD
ENDBRANCH  33  34
ENDBRANCH   1  33
TORSDOF 7
ENDMDL
MODEL 6
REMARK VINA RESULT:      -8.8      3.396      8.374
REMARK  Name = 
REMARK  9 active torsions:
REMARK  status: ('A' for Active; 'I' for Inactive)
REMARK    1  A    between atoms: C_1  and  C_2
REMARK    2  A    between atoms: C_2  and  O_3
REMARK    3  A    between atoms: C_2  and  C_4
REMARK    4  A    between atoms: C_8  and  C_9
REMARK    5  A    between atoms: N_15  and  C_16
REMARK    6  A    between atoms: C_20  and  C_21
REMARK    7  A    between atoms: C_21  and  C_22
REMARK    8  A    between atoms: C_22  and  C_23
REMARK    9  A    between atoms: N_27  and  C_28
REMARK                            x       y       z     vdW  Elec       q    Type
REMARK                         _______ _______ _______ _____ _____    ______ ____
ROOT
ATOM      1  C   UNL     1       4.227   4.796  17.198  0.00  0.00    +0.000 A 
ATOM      2  C   UNL     1       3.892   6.146  17.343  0.00  0.00    +0.000 A 
ATOM      3  C   UNL     1       3.081   6.500  18.399  0.00  0.00    +0.000 A 
ATOM      4  C   UNL     1       2.588   5.591  19.326  0.00  0.00    +0.000 A 
ATOM      5  C   UNL     1       2.898   4.240  19.216  0.00  0.00    +0.000 A 
ATOM      6  C   UNL     1       3.732   3.858  18.140  0.00  0.00    +0.000 A 
ATOM      7  C   UNL     1       1.753   6.318  20.329  0.00  0.00    +0.000 C 
ATOM      8  N   UNL     1       1.788   7.698  19.859  0.00  0.00    +0.000 N 
ATOM      9  C   UNL     1       2.576   7.835  18.718  0.00  0.00    +0.000 C 
ATOM     10  O   UNL     1       2.867   8.805  18.049  0.00  0.00    +0.000 OA
ENDROOT
BRANCH   8  11
ATOM     11  C   UNL     1       1.080   8.737  20.504  0.00  0.00    +0.000 A 
ATOM     12  C   UNL     1       0.973   8.802  21.893  0.00  0.00    +0.000 A 
ATOM     13  C   UNL     1       0.287   9.847  22.508  0.00  0.00    +0.000 A 
ATOM     14  C   UNL     1      -0.344  10.814  21.732  0.00  0.00    +0.000 A 
ATOM     15  C   UNL     1      -0.316  10.767  20.326  0.00  0.00    +0.000 A 
ATOM     16  C   UNL     1       0.450   9.734  19.746  0.00  0.00    +0.000 A 
BRANCH  15  17
ATOM     17  C   UNL     1      -1.156  11.786  19.425  0.00  0.00    +0.000 C 
ATOM     18  C   UNL     1      -2.431  11.271  18.693  0.00  0.00    +0.000 C 
ATOM     19  O   UNL     1      -3.189  12.421  19.162  0.00  0.00    +0.000 OA
ATOM     20  C   UNL     1      -2.210  12.623  20.208  0.00  0.00    +0.000 C 
BRANCH  17  21
ATOM     21  C   UNL     1      -0.245  12.644  18.531  0.00  0.00    +0.000 C 
BRANCH  21  22
ATOM     22  C   UNL     1       0.133  13.947  19.157  0.00  0.00    +0.000 A 
ATOM     23  N   UNL     1      -0.516  15.089  19.027  0.00  0.00    +0.000 NA
ATOM     24  N   UNL     1       0.123  16.043  19.780  0.00  0.00    +0.000 NA
ATOM     25  C   UNL     1       1.151  15.469  20.357  0.00  0.00    +0.000 A 
ATOM     26  N   UNL     1       1.211  14.161  19.981  0.00  0.00    +0.000 N 
ATOM     27  C   UNL     1       2.218  13.221  20.393  0.00  0.00    +0.000 C 
ENDBRANCH  21  22
ENDBRANCH  17  21
ENDBRANCH  15  17
ENDBRANCH   8  11
BRANCH   5  28
ATOM     28  C   UNL     1       2.362   3.203  20.170  0.00  0.00    +0.000 C 
ATOM     29  F   UNL     1       2.838   3.331  21.438  0.00  0.00    +0.000 F 
ATOM     30  F   UNL     1       1.006   3.254  20.274  0.00  0.00    +0.000 F 
ATOM     31  F   UNL     1       2.663   1.934  19.785  0.00  0.00    +0.000 F 
ENDBRANCH   5  28
BRANCH   1  33
ATOM     32  C   UNL     1       5.518   5.513  15.164  0.00  0.00    +0.000 C 
ATOM     33  C   UNL     1       5.071   4.338  16.027  0.00  0.00    +0.000 C 
BRANCH  33  34
ATOM     34  O   UNL     1       6.219   3.630  16.486  0.00  0.00    +0.000 OA
ATOM     35  H   UNL     1       6.042   3.311  17.388  0.00  0.00    +0.000 HD
ENDBRANCH  33  34
ENDBRANCH   1  33
TORSDOF 7
ENDMDL
MODEL 7
REMARK VINA RESULT:      -8.8      3.346      8.338
REMARK  Name = 
REMARK  9 active torsions:
REMARK  status: ('A' for Active; 'I' for Inactive)
REMARK    1  A    between atoms: C_1  and  C_2
REMARK    2  A    between atoms: C_2  and  O_3
REMARK    3  A    between atoms: C_2  and  C_4
REMARK    4  A    between atoms: C_8  and  C_9
REMARK    5  A    between atoms: N_15  and  C_16
REMARK    6  A    between atoms: C_20  and  C_21
REMARK    7  A    between atoms: C_21  and  C_22
REMARK    8  A    between atoms: C_22  and  C_23
REMARK    9  A    between atoms: N_27  and  C_28
REMARK                            x       y       z     vdW  Elec       q    Type
REMARK                         _______ _______ _______ _____ _____    ______ ____
ROOT
ATOM      1  C   UNL     1       3.871   4.930  17.626  0.00  0.00    +0.000 A 
ATOM      2  C   UNL     1       3.531   6.280  17.762  0.00  0.00    +0.000 A 
ATOM      3  C   UNL     1       2.740   6.642  18.830  0.00  0.00    +0.000 A 
ATOM      4  C   UNL     1       2.271   5.740  19.778  0.00  0.00    +0.000 A 
ATOM      5  C   UNL     1       2.588   4.390  19.676  0.00  0.00    +0.000 A 
ATOM      6  C   UNL     1       3.401   4.001  18.588  0.00  0.00    +0.000 A 
ATOM      7  C   UNL     1       1.454   6.475  20.790  0.00  0.00    +0.000 C 
ATOM      8  N   UNL     1       1.471   7.849  20.303  0.00  0.00    +0.000 N 
ATOM      9  C   UNL     1       2.234   7.977  19.145  0.00  0.00    +0.000 C 
ATOM     10  O   UNL     1       2.506   8.942  18.459  0.00  0.00    +0.000 OA
ENDROOT
BRANCH   8  11
ATOM     11  C   UNL     1       0.770   8.892  20.951  0.00  0.00    +0.000 A 
ATOM     12  C   UNL     1       0.545   8.882  22.327  0.00  0.00    +0.000 A 
ATOM     13  C   UNL     1      -0.131   9.930  22.947  0.00  0.00    +0.000 A 
ATOM     14  C   UNL     1      -0.634  10.979  22.184  0.00  0.00    +0.000 A 
ATOM     15  C   UNL     1      -0.485  11.012  20.785  0.00  0.00    +0.000 A 
ATOM     16  C   UNL     1       0.268   9.969  20.207  0.00  0.00    +0.000 A 
BRANCH  15  17
ATOM     17  C   UNL     1      -1.181  12.133  19.883  0.00  0.00    +0.000 C 
ATOM     18  C   UNL     1      -2.626  11.886  19.354  0.00  0.00    +0.000 C 
ATOM     19  O   UNL     1      -3.032  13.216  19.784  0.00  0.00    +0.000 OA
ATOM     20  C   UNL     1      -1.903  13.254  20.688  0.00  0.00    +0.000 C 
BRANCH  17  21
ATOM     21  C   UNL     1      -0.225  12.680  18.810  0.00  0.00    +0.000 C 
BRANCH  21  22
ATOM     22  C   UNL     1       0.816  13.599  19.363  0.00  0.00    +0.000 A 
ATOM     23  N   UNL     1       1.915  13.235  19.997  0.00  0.00    +0.000 NA
ATOM     24  N   UNL     1       2.628  14.364  20.317  0.00  0.00    +0.000 NA
ATOM     25  C   UNL     1       1.953  15.398  19.874  0.00  0.00    +0.000 A 
ATOM     26  N   UNL     1       0.801  14.970  19.288  0.00  0.00    +0.000 N 
ATOM     27  C   UNL     1      -0.206  15.818  18.710  0.00  0.00    +0.000 C 
ENDBRANCH  21  22
ENDBRANCH  17  21
ENDBRANCH  15  17
ENDBRANCH   8  11
BRANCH   5  28
ATOM     28  C   UNL     1       2.077   3.361  20.654  0.00  0.00    +0.000 C 
ATOM     29  F   UNL     1       2.498   2.096  20.383  0.00  0.00    +0.000 F 
ATOM     30  F   UNL     1       2.474   3.623  21.929  0.00  0.00    +0.000 F 
ATOM     31  F   UNL     1       0.718   3.303  20.687  0.00  0.00    +0.000 F 
ENDBRANCH   5  28
BRANCH   1  33
ATOM     32  C   UNL     1       5.305   5.639  15.686  0.00  0.00    +0.000 C 
ATOM     33  C   UNL     1       4.694   4.464  16.443  0.00  0.00    +0.000 C 
BRANCH  33  34
ATOM     34  O   UNL     1       5.735   3.590  16.872  0.00  0.00    +0.000 OA
ATOM     35  H   UNL     1       5.358   2.950  17.500  0.00  0.00    +0.000 HD
ENDBRANCH  33  34
ENDBRANCH   1  33
TORSDOF 7
ENDMDL
MODEL 8
REMARK VINA RESULT:      -8.8      3.388      8.727
REMARK  Name = 
REMARK  9 active torsions:
REMARK  status: ('A' for Active; 'I' for Inactive)
REMARK    1  A    between atoms: C_1  and  C_2
REMARK    2  A    between atoms: C_2  and  O_3
REMARK    3  A    between atoms: C_2  and  C_4
REMARK    4  A    between atoms: C_8  and  C_9
REMARK    5  A    between atoms: N_15  and  C_16
REMARK    6  A    between atoms: C_20  and  C_21
REMARK    7  A    between atoms: C_21  and  C_22
REMARK    8  A    between atoms: C_22  and  C_23
REMARK    9  A    between atoms: N_27  and  C_28
REMARK                            x       y       z     vdW  Elec       q    Type
REMARK                         _______ _______ _______ _____ _____    ______ ____
ROOT
ATOM      1  C   UNL     1       4.411   4.600  16.833  0.00  0.00    +0.000 A 
ATOM      2  C   UNL     1       4.084   5.944  17.043  0.00  0.00    +0.000 A 
ATOM      3  C   UNL     1       3.286   6.253  18.122  0.00  0.00    +0.000 A 
ATOM      4  C   UNL     1       2.798   5.304  19.012  0.00  0.00    +0.000 A 
ATOM      5  C   UNL     1       3.101   3.959  18.837  0.00  0.00    +0.000 A 
ATOM      6  C   UNL     1       3.921   3.622  17.736  0.00  0.00    +0.000 A 
ATOM      7  C   UNL     1       1.978   5.989  20.056  0.00  0.00    +0.000 C 
ATOM      8  N   UNL     1       2.015   7.389  19.649  0.00  0.00    +0.000 N 
ATOM      9  C   UNL     1       2.791   7.574  18.507  0.00  0.00    +0.000 C 
ATOM     10  O   UNL     1       3.080   8.573  17.880  0.00  0.00    +0.000 OA
ENDROOT
BRANCH   8  11
ATOM     11  C   UNL     1       1.318   8.401  20.348  0.00  0.00    +0.000 A 
ATOM     12  C   UNL     1       1.360   8.495  21.739  0.00  0.00    +0.000 A 
ATOM     13  C   UNL     1       0.682   9.513  22.406  0.00  0.00    +0.000 A 
ATOM     14  C   UNL     1      -0.088  10.421  21.686  0.00  0.00    +0.000 A 
ATOM     15  C   UNL     1      -0.211  10.338  20.287  0.00  0.00    +0.000 A 
ATOM     16  C   UNL     1       0.549   9.338  19.645  0.00  0.00    +0.000 A 
BRANCH  15  17
ATOM     17  C   UNL     1      -1.206  11.282  19.465  0.00  0.00    +0.000 C 
ATOM     18  C   UNL     1      -1.461  12.733  19.972  0.00  0.00    +0.000 C 
ATOM     19  O   UNL     1      -1.247  13.260  18.632  0.00  0.00    +0.000 OA
ATOM     20  C   UNL     1      -0.542  12.046  18.281  0.00  0.00    +0.000 C 
BRANCH  17  21
ATOM     21  C   UNL     1      -2.493  10.543  19.061  0.00  0.00    +0.000 C 
BRANCH  21  22
ATOM     22  C   UNL     1      -2.725  10.531  17.585  0.00  0.00    +0.000 A 
ATOM     23  N   UNL     1      -1.992   9.896  16.688  0.00  0.00    +0.000 NA
ATOM     24  N   UNL     1      -2.546  10.100  15.449  0.00  0.00    +0.000 NA
ATOM     25  C   UNL     1      -3.606  10.856  15.607  0.00  0.00    +0.000 A 
ATOM     26  N   UNL     1      -3.747  11.168  16.926  0.00  0.00    +0.000 N 
ATOM     27  C   UNL     1      -4.781  12.000  17.479  0.00  0.00    +0.000 C 
ENDBRANCH  21  22
ENDBRANCH  17  21
ENDBRANCH  15  17
ENDBRANCH   8  11
BRANCH   5  28
ATOM     28  C   UNL     1       2.569   2.882  19.749  0.00  0.00    +0.000 C 
ATOM     29  F   UNL     1       2.911   1.623  19.363  0.00  0.00    +0.000 F 
ATOM     30  F   UNL     1       3.025   3.017  21.024  0.00  0.00    +0.000 F 
ATOM     31  F   UNL     1       1.211   2.892  19.831  0.00  0.00    +0.000 F 
ENDBRANCH   5  28
BRANCH   1  33
ATOM     32  C   UNL     1       6.198   5.302  15.210  0.00  0.00    +0.000 C 
ATOM     33  C   UNL     1       5.241   4.193  15.633  0.00  0.00    +0.000 C 
BRANCH  33  34
ATOM     34  O   UNL     1       5.988   3.014  15.920  0.00  0.00    +0.000 OA
ATOM     35  H   UNL     1       5.976   2.869  16.882  0.00  0.00    +0.000 HD
ENDBRANCH  33  34
ENDBRANCH   1  33
TORSDOF 7
ENDMDL
MODEL 9
REMARK VINA RESULT:      -8.7      3.309      8.144
REMARK  Name = 
REMARK  9 active torsions:
REMARK  status: ('A' for Active; 'I' for Inactive)
REMARK    1  A    between atoms: C_1  and  C_2
REMARK    2  A    between atoms: C_2  and  O_3
REMARK    3  A    between atoms: C_2  and  C_4
REMARK    4  A    between atoms: C_8  and  C_9
REMARK    5  A    between atoms: N_15  and  C_16
REMARK    6  A    between atoms: C_20  and  C_21
REMARK    7  A    between atoms: C_21  and  C_22
REMARK    8  A    between atoms: C_22  and  C_23
REMARK    9  A    between atoms: N_27  and  C_28
REMARK                            x       y       z     vdW  Elec       q    Type
REMARK                         _______ _______ _______ _____ _____    ______ ____
ROOT
ATOM      1  C   UNL     1       4.866   5.430  16.339  0.00  0.00    +0.000 A 
ATOM      2  C   UNL     1       4.367   6.703  16.636  0.00  0.00    +0.000 A 
ATOM      3  C   UNL     1       3.532   6.831  17.724  0.00  0.00    +0.000 A 
ATOM      4  C   UNL     1       3.168   5.768  18.542  0.00  0.00    +0.000 A 
ATOM      5  C   UNL     1       3.644   4.488  18.279  0.00  0.00    +0.000 A 
ATOM      6  C   UNL     1       4.504   4.338  17.169  0.00  0.00    +0.000 A 
ATOM      7  C   UNL     1       2.263   6.268  19.620  0.00  0.00    +0.000 C 
ATOM      8  N   UNL     1       2.119   7.685  19.310  0.00  0.00    +0.000 N 
ATOM      9  C   UNL     1       2.868   8.047  18.192  0.00  0.00    +0.000 C 
ATOM     10  O   UNL     1       3.027   9.116  17.638  0.00  0.00    +0.000 OA
ENDROOT
BRANCH   8  11
ATOM     11  C   UNL     1       1.294   8.548  20.067  0.00  0.00    +0.000 A 
ATOM     12  C   UNL     1       1.118   8.378  21.441  0.00  0.00    +0.000 A 
ATOM     13  C   UNL     1       0.317   9.252  22.171  0.00  0.00    +0.000 A 
ATOM     14  C   UNL     1      -0.358  10.281  21.521  0.00  0.00    +0.000 A 
ATOM     15  C   UNL     1      -0.261  10.464  20.130  0.00  0.00    +0.000 A 
ATOM     16  C   UNL     1       0.616   9.602  19.440  0.00  0.00    +0.000 A 
BRANCH  15  17
ATOM     17  C   UNL     1      -1.144  11.548  19.353  0.00  0.00    +0.000 C 
ATOM     18  C   UNL     1      -2.283  11.057  18.410  0.00  0.00    +0.000 C 
ATOM     19  O   UNL     1      -3.211  12.008  19.005  0.00  0.00    +0.000 OA
ATOM     20  C   UNL     1      -2.352  12.100  20.165  0.00  0.00    +0.000 C 
BRANCH  17  21
ATOM     21  C   UNL     1      -0.274  12.655  18.733  0.00  0.00    +0.000 C 
BRANCH  21  22
ATOM     22  C   UNL     1       0.801  13.140  19.650  0.00  0.00    +0.000 A 
ATOM     23  N   UNL     1       0.625  13.633  20.862  0.00  0.00    +0.000 NA
ATOM     24  N   UNL     1       1.854  13.932  21.394  0.00  0.00    +0.000 NA
ATOM     25  C   UNL     1       2.761  13.618  20.500  0.00  0.00    +0.000 A 
ATOM     26  N   UNL     1       2.148  13.137  19.382  0.00  0.00    +0.000 N 
ATOM     27  C   UNL     1       2.816  12.716  18.181  0.00  0.00    +0.000 C 
ENDBRANCH  21  22
ENDBRANCH  17  21
ENDBRANCH  15  17
ENDBRANCH   8  11
BRANCH   5  28
ATOM     28  C   UNL     1       3.253   3.291  19.110  0.00  0.00    +0.000 C 
ATOM     29  F   UNL     1       1.908   3.107  19.201  0.00  0.00    +0.000 F 
ATOM     30  F   UNL     1       3.756   2.131  18.606  0.00  0.00    +0.000 F 
ATOM     31  F   UNL     1       3.706   3.375  20.390  0.00  0.00    +0.000 F 
ENDBRANCH   5  28
BRANCH   1  33
ATOM     32  C   UNL     1       7.153   4.783  15.521  0.00  0.00    +0.000 C 
ATOM     33  C   UNL     1       5.745   5.217  15.125  0.00  0.00    +0.000 C 
BRANCH  33  34
ATOM     34  O   UNL     1       5.177   4.236  14.263  0.00  0.00    +0.000 OA
ATOM     35  H   UNL     1       5.069   3.410  14.767  0.00  0.00    +0.000 HD
ENDBRANCH  33  34
ENDBRANCH   1  33
TORSDOF 7
ENDMDL
