MODEL 1
REMARK VINA RESULT:      -7.9      0.000      0.000
REMARK  Name = 
REMARK  8 active torsions:
REMARK  status: ('A' for Active; 'I' for Inactive)
REMARK    1  A    between atoms: C_1  and  C_2
REMARK    2  A    between atoms: C_2  and  S_3
REMARK    3  A    between atoms: C_2  and  C_10
REMARK    4  A    between atoms: S_3  and  C_4
REMARK    5  A    between atoms: N_8  and  C_9
REMARK    6  A    between atoms: C_14  and  N_15
REMARK    7  A    between atoms: C_16  and  C_18
REMARK    8  A    between atoms: C_22  and  C_23
REMARK                            x       y       z     vdW  Elec       q    Type
REMARK                         _______ _______ _______ _____ _____    ______ ____
ROOT
ATOM      1  C   UNL     1       1.928   7.222  20.170  0.00  0.00    +0.000 A 
ATOM      2  C   UNL     1       1.501   6.082  20.877  0.00  0.00    +0.000 A 
ATOM      3  C   UNL     1       2.003   4.816  20.558  0.00  0.00    +0.000 A 
ATOM      4  C   UNL     1       2.913   4.661  19.525  0.00  0.00    +0.000 A 
ATOM      5  C   UNL     1       3.370   5.765  18.803  0.00  0.00    +0.000 A 
ATOM      6  C   UNL     1       2.890   7.036  19.159  0.00  0.00    +0.000 A 
ENDROOT
BRANCH   5   7
ATOM      7  N   UNL     1       4.284   5.649  17.736  0.00  0.00    +0.000 N 
ATOM      8  C   UNL     1       4.374   4.579  16.859  0.00  0.00    +0.000 C 
ATOM      9  O   UNL     1       3.671   3.570  16.860  0.00  0.00    +0.000 OA
ATOM     10  H   UNL     1       4.870   6.456  17.516  0.00  0.00    +0.000 HD
BRANCH   8  11
ATOM     11  C   UNL     1       5.388   4.715  15.782  0.00  0.00    +0.000 A 
ATOM     12  C   UNL     1       6.584   5.366  16.055  0.00  0.00    +0.000 A 
ATOM     13  N   UNL     1       7.588   5.445  15.148  0.00  0.00    +0.000 NA
ATOM     14  C   UNL     1       7.354   4.829  13.965  0.00  0.00    +0.000 A 
ATOM     15  C   UNL     1       6.157   4.179  13.671  0.00  0.00    +0.000 A 
ATOM     16  N   UNL     1       5.133   4.122  14.582  0.00  0.00    +0.000 NA
BRANCH  15  17
ATOM     17  C   UNL     1       6.017   3.475  12.341  0.00  0.00    +0.000 C 
ATOM     18  F   UNL     1       4.869   3.792  11.675  0.00  0.00    +0.000 F 
ATOM     19  F   UNL     1       7.033   3.777  11.483  0.00  0.00    +0.000 F 
ATOM     20  F   UNL     1       6.012   2.118  12.457  0.00  0.00    +0.000 F 
ENDBRANCH  15  17
ENDBRANCH   8  11
ENDBRANCH   5   7
BRANCH   1  22
ATOM     21  C   UNL     1       0.067   8.502  21.343  0.00  0.00    +0.000 C 
ATOM     22  C   UNL     1       1.354   8.613  20.511  0.00  0.00    +0.000 C 
BRANCH  22  23
ATOM     23  S   UNL     1       1.069   9.550  18.953  0.00  0.00    +0.000 S 
BRANCH  23  24
ATOM     24  C   UNL     1       0.335  11.032  19.473  0.00  0.00    +0.000 A 
ATOM     25  N   UNL     1       0.869  11.991  20.190  0.00  0.00    +0.000 NA
ATOM     26  N   UNL     1      -0.109  12.945  20.413  0.00  0.00    +0.000 NA
ATOM     27  C   UNL     1      -1.205  12.541  19.809  0.00  0.00    +0.000 A 
ATOM     28  N   UNL     1      -0.959  11.362  19.167  0.00  0.00    +0.000 N 
ATOM     29  C   UNL     1      -1.888  10.639  18.347  0.00  0.00    +0.000 C 
ENDBRANCH  23  24
ENDBRANCH  22  23
ENDBRANCH   1  22
TORSDOF 6
ENDMDL
MODEL 2
REMARK VINA RESULT:      -7.9      3.765      5.023
REMARK  Name = 
REMARK  8 active torsions:
REMARK  status: ('A' for Active; 'I' for Inactive)
REMARK    1  A    between atoms: C_1  and  C_2
REMARK    2  A    between atoms: C_2  and  S_3
REMARK    3  A    between atoms: C_2  and  C_10
REMARK    4  A    between atoms: S_3  and  C_4
REMARK    5  A    between atoms: N_8  and  C_9
REMARK    6  A    between atoms: C_14  and  N_15
REMARK    7  A    between atoms: C_16  and  C_18
REMARK    8  A    between atoms: C_22  and  C_23
REMARK                            x       y       z     vdW  Elec       q    Type
REMARK                         _______ _______ _______ _____ _____    ______ ____
ROOT
ATOM      1  C   UNL     1       0.220  10.336  19.894  0.00  0.00    +0.000 A 
ATOM      2  C   UNL     1      -0.376  10.313  21.169  0.00  0.00    +0.000 A 
ATOM      3  C   UNL     1      -0.052   9.310  22.090  0.00  0.00    +0.000 A 
ATOM      4  C   UNL     1       0.847   8.311  21.751  0.00  0.00    +0.000 A 
ATOM      5  C   UNL     1       1.468   8.300  20.501  0.00  0.00    +0.000 A 
ATOM      6  C   UNL     1       1.165   9.335  19.601  0.00  0.00    +0.000 A 
ENDROOT
BRANCH   5   7
ATOM      7  N   UNL     1       2.376   7.294  20.113  0.00  0.00    +0.000 N 
ATOM      8  C   UNL     1       2.148   5.928  20.179  0.00  0.00    +0.000 C 
ATOM      9  O   UNL     1       1.124   5.374  20.572  0.00  0.00    +0.000 OA
ATOM     10  H   UNL     1       3.240   7.580  19.650  0.00  0.00    +0.000 HD
BRANCH   8  11
ATOM     11  C   UNL     1       3.244   5.069  19.660  0.00  0.00    +0.000 A 
ATOM     12  C   UNL     1       2.947   3.788  19.212  0.00  0.00    +0.000 A 
ATOM     13  N   UNL     1       3.879   2.986  18.643  0.00  0.00    +0.000 NA
ATOM     14  C   UNL     1       5.116   3.527  18.521  0.00  0.00    +0.000 A 
ATOM     15  C   UNL     1       5.432   4.806  18.972  0.00  0.00    +0.000 A 
ATOM     16  N   UNL     1       4.492   5.606  19.571  0.00  0.00    +0.000 NA
BRANCH  15  17
ATOM     17  C   UNL     1       6.828   5.337  18.738  0.00  0.00    +0.000 C 
ATOM     18  F   UNL     1       7.522   5.571  19.890  0.00  0.00    +0.000 F 
ATOM     19  F   UNL     1       7.598   4.475  18.015  0.00  0.00    +0.000 F 
ATOM     20  F   UNL     1       6.841   6.516  18.056  0.00  0.00    +0.000 F 
ENDBRANCH  15  17
ENDBRANCH   8  11
ENDBRANCH   5   7
BRANCH   1  22
ATOM     21  C   UNL     1       0.890  12.553  18.838  0.00  0.00    +0.000 C 
ATOM     22  C   UNL     1      -0.159  11.431  18.875  0.00  0.00    +0.000 C 
BRANCH  22  23
ATOM     23  S   UNL     1      -1.830  12.087  19.283  0.00  0.00    +0.000 S 
BRANCH  23  24
ATOM     24  C   UNL     1      -2.814  11.617  17.936  0.00  0.00    +0.000 A 
ATOM     25  N   UNL     1      -2.424  11.188  16.760  0.00  0.00    +0.000 NA
ATOM     26  N   UNL     1      -3.555  10.995  15.986  0.00  0.00    +0.000 NA
ATOM     27  C   UNL     1      -4.600  11.301  16.723  0.00  0.00    +0.000 A 
ATOM     28  N   UNL     1      -4.184  11.654  17.973  0.00  0.00    +0.000 N 
ATOM     29  C   UNL     1      -5.031  11.994  19.080  0.00  0.00    +0.000 C 
ENDBRANCH  23  24
ENDBRANCH  22  23
ENDBRANCH   1  22
TORSDOF 6
ENDMDL
MODEL 3
REMARK VINA RESULT:      -7.9      6.287      8.476
REMARK  Name = 
REMARK  8 active torsions:
REMARK  status: ('A' for Active; 'I' for Inactive)
REMARK    1  A    between atoms: C_1  and  C_2
REMARK    2  A    between atoms: C_2  and  S_3
REMARK    3  A    between atoms: C_2  and  C_10
REMARK    4  A    between atoms: S_3  and  C_4
REMARK    5  A    between atoms: N_8  and  C_9
REMARK    6  A    between atoms: C_14  and  N_15
REMARK    7  A    between atoms: C_16  and  C_18
REMARK    8  A    between atoms: C_22  and  C_23
REMARK                            x       y       z     vdW  Elec       q    Type
REMARK                         _______ _______ _______ _____ _____    ______ ____
ROOT
ATOM      1  C   UNL     1       4.569   5.464  17.186  0.00  0.00    +0.000 A 
ATOM      2  C   UNL     1       5.311   4.448  16.556  0.00  0.00    +0.000 A 
ATOM      3  C   UNL     1       6.645   4.660  16.192  0.00  0.00    +0.000 A 
ATOM      4  C   UNL     1       7.250   5.884  16.428  0.00  0.00    +0.000 A 
ATOM      5  C   UNL     1       6.554   6.917  17.058  0.00  0.00    +0.000 A 
ATOM      6  C   UNL     1       5.229   6.678  17.456  0.00  0.00    +0.000 A 
ENDROOT
BRANCH   5   7
ATOM      7  N   UNL     1       7.128   8.181  17.303  0.00  0.00    +0.000 N 
ATOM      8  C   UNL     1       8.120   8.454  18.233  0.00  0.00    +0.000 C 
ATOM      9  O   UNL     1       8.666   7.645  18.980  0.00  0.00    +0.000 OA
ATOM     10  H   UNL     1       6.873   8.952  16.684  0.00  0.00    +0.000 HD
BRANCH   8  11
ATOM     11  C   UNL     1       8.599   9.860  18.267  0.00  0.00    +0.000 A 
ATOM     12  C   UNL     1       8.014  10.796  17.424  0.00  0.00    +0.000 A 
ATOM     13  N   UNL     1       8.337  12.111  17.467  0.00  0.00    +0.000 NA
ATOM     14  C   UNL     1       9.254  12.454  18.403  0.00  0.00    +0.000 A 
ATOM     15  C   UNL     1       9.856  11.528  19.252  0.00  0.00    +0.000 A 
ATOM     16  N   UNL     1       9.546  10.193  19.188  0.00  0.00    +0.000 NA
BRANCH  15  17
ATOM     17  C   UNL     1      10.827  12.022  20.300  0.00  0.00    +0.000 C 
ATOM     18  F   UNL     1      11.026  13.372  20.265  0.00  0.00    +0.000 F 
ATOM     19  F   UNL     1      10.409  11.747  21.567  0.00  0.00    +0.000 F 
ATOM     20  F   UNL     1      12.065  11.466  20.181  0.00  0.00    +0.000 F 
ENDBRANCH  15  17
ENDBRANCH   8  11
ENDBRANCH   5   7
BRANCH   1  22
ATOM     21  C   UNL     1       2.736   5.913  18.894  0.00  0.00    +0.000 C 
ATOM     22  C   UNL     1       3.090   5.231  17.564  0.00  0.00    +0.000 C 
BRANCH  22  23
ATOM     23  S   UNL     1       2.759   3.422  17.626  0.00  0.00    +0.000 S 
BRANCH  23  24
ATOM     24  C   UNL     1       3.179   2.966  19.245  0.00  0.00    +0.000 A 
ATOM     25  N   UNL     1       4.368   2.703  19.729  0.00  0.00    +0.000 NA
ATOM     26  N   UNL     1       4.211   2.323  21.051  0.00  0.00    +0.000 NA
ATOM     27  C   UNL     1       2.928   2.382  21.333  0.00  0.00    +0.000 A 
ATOM     28  N   UNL     1       2.245   2.825  20.238  0.00  0.00    +0.000 N 
ATOM     29  C   UNL     1       0.835   3.081  20.171  0.00  0.00    +0.000 C 
ENDBRANCH  23  24
ENDBRANCH  22  23
ENDBRANCH   1  22
TORSDOF 6
ENDMDL
MODEL 4
REMARK VINA RESULT:      -7.8      5.287      9.827
REMARK  Name = 
REMARK  8 active torsions:
REMARK  status: ('A' for Active; 'I' for Inactive)
REMARK    1  A    between atoms: C_1  and  C_2
REMARK    2  A    between atoms: C_2  and  S_3
REMARK    3  A    between atoms: C_2  and  C_10
REMARK    4  A    between atoms: S_3  and  C_4
REMARK    5  A    between atoms: N_8  and  C_9
REMARK    6  A    between atoms: C_14  and  N_15
REMARK    7  A    between atoms: C_16  and  C_18
REMARK    8  A    between atoms: C_22  and  C_23
REMARK                            x       y       z     vdW  Elec       q    Type
REMARK                         _______ _______ _______ _____ _____    ______ ____
ROOT
ATOM      1  C   UNL     1       4.483   5.296  17.421  0.00  0.00    +0.000 A 
ATOM      2  C   UNL     1       4.108   3.991  17.791  0.00  0.00    +0.000 A 
ATOM      3  C   UNL     1       3.083   3.781  18.721  0.00  0.00    +0.000 A 
ATOM      4  C   UNL     1       2.437   4.857  19.307  0.00  0.00    +0.000 A 
ATOM      5  C   UNL     1       2.772   6.167  18.963  0.00  0.00    +0.000 A 
ATOM      6  C   UNL     1       3.773   6.365  17.999  0.00  0.00    +0.000 A 
ENDROOT
BRANCH   5   7
ATOM      7  N   UNL     1       2.149   7.289  19.547  0.00  0.00    +0.000 N 
ATOM      8  C   UNL     1       1.796   8.456  18.886  0.00  0.00    +0.000 C 
ATOM      9  O   UNL     1       1.956   8.698  17.692  0.00  0.00    +0.000 OA
ATOM     10  H   UNL     1       1.835   7.213  20.516  0.00  0.00    +0.000 HD
BRANCH   8  11
ATOM     11  C   UNL     1       1.101   9.476  19.713  0.00  0.00    +0.000 A 
ATOM     12  C   UNL     1       0.749  10.690  19.137  0.00  0.00    +0.000 A 
ATOM     13  N   UNL     1       0.034  11.628  19.804  0.00  0.00    +0.000 NA
ATOM     14  C   UNL     1      -0.332  11.292  21.065  0.00  0.00    +0.000 A 
ATOM     15  C   UNL     1       0.019  10.083  21.661  0.00  0.00    +0.000 A 
ATOM     16  N   UNL     1       0.765   9.146  20.991  0.00  0.00    +0.000 NA
BRANCH  15  17
ATOM     17  C   UNL     1      -0.487   9.783  23.053  0.00  0.00    +0.000 C 
ATOM     18  F   UNL     1       0.509   9.582  23.963  0.00  0.00    +0.000 F 
ATOM     19  F   UNL     1      -1.248  10.794  23.560  0.00  0.00    +0.000 F 
ATOM     20  F   UNL     1      -1.263   8.664  23.106  0.00  0.00    +0.000 F 
ENDBRANCH  15  17
ENDBRANCH   8  11
ENDBRANCH   5   7
BRANCH   1  22
ATOM     21  C   UNL     1       5.377   6.761  15.540  0.00  0.00    +0.000 C 
ATOM     22  C   UNL     1       5.630   5.521  16.412  0.00  0.00    +0.000 C 
BRANCH  22  23
ATOM     23  S   UNL     1       5.839   4.008  15.385  0.00  0.00    +0.000 S 
BRANCH  23  24
ATOM     24  C   UNL     1       6.788   4.538  14.033  0.00  0.00    +0.000 A 
ATOM     25  N   UNL     1       7.778   5.396  14.027  0.00  0.00    +0.000 NA
ATOM     26  N   UNL     1       8.189   5.555  12.715  0.00  0.00    +0.000 NA
ATOM     27  C   UNL     1       7.442   4.774  11.965  0.00  0.00    +0.000 A 
ATOM     28  N   UNL     1       6.576   4.081  12.758  0.00  0.00    +0.000 N 
ATOM     29  C   UNL     1       5.643   3.084  12.318  0.00  0.00    +0.000 C 
ENDBRANCH  23  24
ENDBRANCH  22  23
ENDBRANCH   1  22
TORSDOF 6
ENDMDL
MODEL 5
REMARK VINA RESULT:      -7.8      6.328      7.275
REMARK  Name = 
REMARK  8 active torsions:
REMARK  status: ('A' for Active; 'I' for Inactive)
REMARK    1  A    between atoms: C_1  and  C_2
REMARK    2  A    between atoms: C_2  and  S_3
REMARK    3  A    between atoms: C_2  and  C_10
REMARK    4  A    between atoms: S_3  and  C_4
REMARK    5  A    between atoms: N_8  and  C_9
REMARK    6  A    between atoms: C_14  and  N_15
REMARK    7  A    between atoms: C_16  and  C_18
REMARK    8  A    between atoms: C_22  and  C_23
REMARK                            x       y       z     vdW  Elec       q    Type
REMARK                         _______ _______ _______ _____ _____    ______ ____
ROOT
ATOM      1  C   UNL     1       9.652  12.091  20.815  0.00  0.00    +0.000 A 
ATOM      2  C   UNL     1      10.320  12.862  19.845  0.00  0.00    +0.000 A 
ATOM      3  C   UNL     1      10.540  12.354  18.560  0.00  0.00    +0.000 A 
ATOM      4  C   UNL     1      10.122  11.075  18.229  0.00  0.00    +0.000 A 
ATOM      5  C   UNL     1       9.449  10.280  19.158  0.00  0.00    +0.000 A 
ATOM      6  C   UNL     1       9.198  10.815  20.432  0.00  0.00    +0.000 A 
ENDROOT
BRANCH   5   7
ATOM      7  N   UNL     1       9.022   8.969  18.866  0.00  0.00    +0.000 N 
ATOM      8  C   UNL     1       8.019   8.624  17.972  0.00  0.00    +0.000 C 
ATOM      9  O   UNL     1       7.353   9.395  17.285  0.00  0.00    +0.000 OA
ATOM     10  H   UNL     1       9.551   8.191  19.264  0.00  0.00    +0.000 HD
BRANCH   8  11
ATOM     11  C   UNL     1       7.787   7.166  17.799  0.00  0.00    +0.000 A 
ATOM     12  C   UNL     1       7.888   6.328  18.902  0.00  0.00    +0.000 A 
ATOM     13  N   UNL     1       7.600   5.006  18.835  0.00  0.00    +0.000 NA
ATOM     14  C   UNL     1       7.186   4.561  17.624  0.00  0.00    +0.000 A 
ATOM     15  C   UNL     1       7.087   5.385  16.506  0.00  0.00    +0.000 A 
ATOM     16  N   UNL     1       7.404   6.719  16.571  0.00  0.00    +0.000 NA
BRANCH  15  17
ATOM     17  C   UNL     1       6.562   4.802  15.214  0.00  0.00    +0.000 C 
ATOM     18  F   UNL     1       7.432   4.920  14.170  0.00  0.00    +0.000 F 
ATOM     19  F   UNL     1       6.291   3.470  15.317  0.00  0.00    +0.000 F 
ATOM     20  F   UNL     1       5.406   5.391  14.797  0.00  0.00    +0.000 F 
ENDBRANCH  15  17
ENDBRANCH   8  11
ENDBRANCH   5   7
BRANCH   1  22
ATOM     21  C   UNL     1       8.174  12.051  22.888  0.00  0.00    +0.000 C 
ATOM     22  C   UNL     1       9.433  12.647  22.238  0.00  0.00    +0.000 C 
BRANCH  22  23
ATOM     23  S   UNL     1       9.345  14.484  22.164  0.00  0.00    +0.000 S 
BRANCH  23  24
ATOM     24  C   UNL     1       7.655  14.838  22.324  0.00  0.00    +0.000 A 
ATOM     25  N   UNL     1       6.975  15.060  23.422  0.00  0.00    +0.000 NA
ATOM     26  N   UNL     1       5.649  15.234  23.069  0.00  0.00    +0.000 NA
ATOM     27  C   UNL     1       5.567  15.126  21.760  0.00  0.00    +0.000 A 
ATOM     28  N   UNL     1       6.813  14.921  21.245  0.00  0.00    +0.000 N 
ATOM     29  C   UNL     1       7.143  14.817  19.853  0.00  0.00    +0.000 C 
ENDBRANCH  23  24
ENDBRANCH  22  23
ENDBRANCH   1  22
TORSDOF 6
ENDMDL
MODEL 6
REMARK VINA RESULT:      -7.8      3.135      4.480
REMARK  Name = 
REMARK  8 active torsions:
REMARK  status: ('A' for Active; 'I' for Inactive)
REMARK    1  A    between atoms: C_1  and  C_2
REMARK    2  A    between atoms: C_2  and  S_3
REMARK    3  A    between atoms: C_2  and  C_10
REMARK    4  A    between atoms: S_3  and  C_4
REMARK    5  A    between atoms: N_8  and  C_9
REMARK    6  A    between atoms: C_14  and  N_15
REMARK    7  A    between atoms: C_16  and  C_18
REMARK    8  A    between atoms: C_22  and  C_23
REMARK                            x       y       z     vdW  Elec       q    Type
REMARK                         _______ _______ _______ _____ _____    ______ ____
ROOT
ATOM      1  C   UNL     1       0.285  10.381  19.567  0.00  0.00    +0.000 A 
ATOM      2  C   UNL     1      -0.066  10.202  20.918  0.00  0.00    +0.000 A 
ATOM      3  C   UNL     1       0.454   9.131  21.654  0.00  0.00    +0.000 A 
ATOM      4  C   UNL     1       1.307   8.217  21.056  0.00  0.00    +0.000 A 
ATOM      5  C   UNL     1       1.688   8.362  19.721  0.00  0.00    +0.000 A 
ATOM      6  C   UNL     1       1.193   9.463  19.005  0.00  0.00    +0.000 A 
ENDROOT
BRANCH   5   7
ATOM      7  N   UNL     1       2.542   7.447  19.072  0.00  0.00    +0.000 N 
ATOM      8  C   UNL     1       2.680   6.103  19.387  0.00  0.00    +0.000 C 
ATOM      9  O   UNL     1       2.078   5.492  20.267  0.00  0.00    +0.000 OA
ATOM     10  H   UNL     1       3.033   7.761  18.234  0.00  0.00    +0.000 HD
BRANCH   8  11
ATOM     11  C   UNL     1       3.608   5.333  18.520  0.00  0.00    +0.000 A 
ATOM     12  C   UNL     1       3.098   4.339  17.695  0.00  0.00    +0.000 A 
ATOM     13  N   UNL     1       3.872   3.661  16.814  0.00  0.00    +0.000 NA
ATOM     14  C   UNL     1       5.174   4.034  16.776  0.00  0.00    +0.000 A 
ATOM     15  C   UNL     1       5.704   5.023  17.601  0.00  0.00    +0.000 A 
ATOM     16  N   UNL     1       4.922   5.690  18.511  0.00  0.00    +0.000 NA
BRANCH  15  17
ATOM     17  C   UNL     1       7.158   5.403  17.442  0.00  0.00    +0.000 C 
ATOM     18  F   UNL     1       7.616   6.232  18.425  0.00  0.00    +0.000 F 
ATOM     19  F   UNL     1       7.985   4.320  17.463  0.00  0.00    +0.000 F 
ATOM     20  F   UNL     1       7.413   6.049  16.269  0.00  0.00    +0.000 F 
ENDBRANCH  15  17
ENDBRANCH   8  11
ENDBRANCH   5   7
BRANCH   1  22
ATOM     21  C   UNL     1       0.594  12.792  18.811  0.00  0.00    +0.000 C 
ATOM     22  C   UNL     1      -0.310  11.551  18.755  0.00  0.00    +0.000 C 
BRANCH  22  23
ATOM     23  S   UNL     1      -2.002  11.921  19.377  0.00  0.00    +0.000 S 
BRANCH  23  24
ATOM     24  C   UNL     1      -3.035  11.597  18.023  0.00  0.00    +0.000 A 
ATOM     25  N   UNL     1      -2.693  11.196  16.822  0.00  0.00    +0.000 NA
ATOM     26  N   UNL     1      -3.844  11.132  16.056  0.00  0.00    +0.000 NA
ATOM     27  C   UNL     1      -4.854  11.484  16.822  0.00  0.00    +0.000 A 
ATOM     28  N   UNL     1      -4.397  11.742  18.081  0.00  0.00    +0.000 N 
ATOM     29  C   UNL     1      -5.202  12.094  19.215  0.00  0.00    +0.000 C 
ENDBRANCH  23  24
ENDBRANCH  22  23
ENDBRANCH   1  22
TORSDOF 6
ENDMDL
MODEL 7
REMARK VINA RESULT:      -7.8      2.937      4.545
REMARK  Name = 
REMARK  8 active torsions:
REMARK  status: ('A' for Active; 'I' for Inactive)
REMARK    1  A    between atoms: C_1  and  C_2
REMARK    2  A    between atoms: C_2  and  S_3
REMARK    3  A    between atoms: C_2  and  C_10
REMARK    4  A    between atoms: S_3  and  C_4
REMARK    5  A    between atoms: N_8  and  C_9
REMARK    6  A    between atoms: C_14  and  N_15
REMARK    7  A    between atoms: C_16  and  C_18
REMARK    8  A    between atoms: C_22  and  C_23
REMARK                            x       y       z     vdW  Elec       q    Type
REMARK                         _______ _______ _______ _____ _____    ______ ____
ROOT
ATOM      1  C   UNL     1      -0.096  10.608  20.151  0.00  0.00    +0.000 A 
ATOM      2  C   UNL     1      -0.564  10.413  21.464  0.00  0.00    +0.000 A 
ATOM      3  C   UNL     1      -0.112   9.331  22.228  0.00  0.00    +0.000 A 
ATOM      4  C   UNL     1       0.788   8.423  21.695  0.00  0.00    +0.000 A 
ATOM      5  C   UNL     1       1.284   8.583  20.400  0.00  0.00    +0.000 A 
ATOM      6  C   UNL     1       0.855   9.695  19.658  0.00  0.00    +0.000 A 
ENDROOT
BRANCH   5   7
ATOM      7  N   UNL     1       2.190   7.674  19.816  0.00  0.00    +0.000 N 
ATOM      8  C   UNL     1       2.214   6.304  20.031  0.00  0.00    +0.000 C 
ATOM      9  O   UNL     1       1.452   5.662  20.749  0.00  0.00    +0.000 OA
ATOM     10  H   UNL     1       2.824   8.024  19.097  0.00  0.00    +0.000 HD
BRANCH   8  11
ATOM     11  C   UNL     1       3.235   5.552  19.257  0.00  0.00    +0.000 A 
ATOM     12  C   UNL     1       3.533   4.244  19.619  0.00  0.00    +0.000 A 
ATOM     13  N   UNL     1       4.384   3.471  18.902  0.00  0.00    +0.000 NA
ATOM     14  C   UNL     1       4.908   4.052  17.797  0.00  0.00    +0.000 A 
ATOM     15  C   UNL     1       4.627   5.364  17.423  0.00  0.00    +0.000 A 
ATOM     16  N   UNL     1       3.784   6.153  18.165  0.00  0.00    +0.000 NA
BRANCH  15  17
ATOM     17  C   UNL     1       5.220   5.900  16.141  0.00  0.00    +0.000 C 
ATOM     18  F   UNL     1       5.012   5.090  15.063  0.00  0.00    +0.000 F 
ATOM     19  F   UNL     1       4.701   7.112  15.794  0.00  0.00    +0.000 F 
ATOM     20  F   UNL     1       6.570   6.075  16.213  0.00  0.00    +0.000 F 
ENDBRANCH  15  17
ENDBRANCH   8  11
ENDBRANCH   5   7
BRANCH   1  22
ATOM     21  C   UNL     1      -0.163  13.139  19.884  0.00  0.00    +0.000 C 
ATOM     22  C   UNL     1      -0.616  11.790  19.305  0.00  0.00    +0.000 C 
BRANCH  22  23
ATOM     23  S   UNL     1      -2.450  11.690  19.187  0.00  0.00    +0.000 S 
BRANCH  23  24
ATOM     24  C   UNL     1      -2.744  11.110  17.580  0.00  0.00    +0.000 A 
ATOM     25  N   UNL     1      -1.922  10.463  16.790  0.00  0.00    +0.000 NA
ATOM     26  N   UNL     1      -2.568  10.261  15.583  0.00  0.00    +0.000 NA
ATOM     27  C   UNL     1      -3.772  10.780  15.684  0.00  0.00    +0.000 A 
ATOM     28  N   UNL     1      -3.943  11.286  16.939  0.00  0.00    +0.000 N 
ATOM     29  C   UNL     1      -5.144  11.878  17.454  0.00  0.00    +0.000 C 
ENDBRANCH  23  24
ENDBRANCH  22  23
ENDBRANCH   1  22
TORSDOF 6
ENDMDL
MODEL 8
REMARK VINA RESULT:      -7.7      4.655      6.160
REMARK  Name = 
REMARK  8 active torsions:
REMARK  status: ('A' for Active; 'I' for Inactive)
REMARK    1  A    between atoms: C_1  and  C_2
REMARK    2  A    between atoms: C_2  and  S_3
REMARK    3  A    between atoms: C_2  and  C_10
REMARK    4  A    between atoms: S_3  and  C_4
REMARK    5  A    between atoms: N_8  and  C_9
REMARK    6  A    between atoms: C_14  and  N_15
REMARK    7  A    between atoms: C_16  and  C_18
REMARK    8  A    between atoms: C_22  and  C_23
REMARK                            x       y       z     vdW  Elec       q    Type
REMARK                         _______ _______ _______ _____ _____    ______ ____
ROOT
ATOM      1  C   UNL     1      -0.516  11.121  20.789  0.00  0.00    +0.000 A 
ATOM      2  C   UNL     1      -0.889  11.292  22.135  0.00  0.00    +0.000 A 
ATOM      3  C   UNL     1      -0.578  10.319  23.091  0.00  0.00    +0.000 A 
ATOM      4  C   UNL     1       0.085   9.159  22.721  0.00  0.00    +0.000 A 
ATOM      5  C   UNL     1       0.480   8.952  21.398  0.00  0.00    +0.000 A 
ATOM      6  C   UNL     1       0.199   9.955  20.456  0.00  0.00    +0.000 A 
ENDROOT
BRANCH   5   7
ATOM      7  N   UNL     1       1.143   7.780  20.978  0.00  0.00    +0.000 N 
ATOM      8  C   UNL     1       1.893   7.645  19.820  0.00  0.00    +0.000 C 
ATOM      9  O   UNL     1       2.111   8.517  18.982  0.00  0.00    +0.000 OA
ATOM     10  H   UNL     1       1.163   6.985  21.619  0.00  0.00    +0.000 HD
BRANCH   8  11
ATOM     11  C   UNL     1       2.537   6.320  19.624  0.00  0.00    +0.000 A 
ATOM     12  C   UNL     1       3.595   6.206  18.731  0.00  0.00    +0.000 A 
ATOM     13  N   UNL     1       4.286   5.052  18.572  0.00  0.00    +0.000 NA
ATOM     14  C   UNL     1       3.889   4.023  19.359  0.00  0.00    +0.000 A 
ATOM     15  C   UNL     1       2.826   4.117  20.253  0.00  0.00    +0.000 A 
ATOM     16  N   UNL     1       2.111   5.280  20.394  0.00  0.00    +0.000 NA
BRANCH  15  17
ATOM     17  C   UNL     1       2.499   2.927  21.125  0.00  0.00    +0.000 C 
ATOM     18  F   UNL     1       1.961   3.267  22.332  0.00  0.00    +0.000 F 
ATOM     19  F   UNL     1       1.594   2.089  20.544  0.00  0.00    +0.000 F 
ATOM     20  F   UNL     1       3.590   2.163  21.413  0.00  0.00    +0.000 F 
ENDBRANCH  15  17
ENDBRANCH   8  11
ENDBRANCH   5   7
BRANCH   1  22
ATOM     21  C   UNL     1      -0.337  13.570  20.121  0.00  0.00    +0.000 C 
ATOM     22  C   UNL     1      -0.883  12.188  19.735  0.00  0.00    +0.000 C 
BRANCH  22  23
ATOM     23  S   UNL     1      -2.711  12.223  19.520  0.00  0.00    +0.000 S 
BRANCH  23  24
ATOM     24  C   UNL     1      -2.964  11.619  17.915  0.00  0.00    +0.000 A 
ATOM     25  N   UNL     1      -2.063  11.342  17.003  0.00  0.00    +0.000 NA
ATOM     26  N   UNL     1      -2.731  10.949  15.857  0.00  0.00    +0.000 NA
ATOM     27  C   UNL     1      -4.020  10.986  16.114  0.00  0.00    +0.000 A 
ATOM     28  N   UNL     1      -4.212  11.359  17.412  0.00  0.00    +0.000 N 
ATOM     29  C   UNL     1      -5.475  11.453  18.085  0.00  0.00    +0.000 C 
ENDBRANCH  23  24
ENDBRANCH  22  23
ENDBRANCH   1  22
TORSDOF 6
ENDMDL
MODEL 9
REMARK VINA RESULT:      -7.6      3.430      4.740
REMARK  Name = 
REMARK  8 active torsions:
REMARK  status: ('A' for Active; 'I' for Inactive)
REMARK    1  A    between atoms: C_1  and  C_2
REMARK    2  A    between atoms: C_2  and  S_3
REMARK    3  A    between atoms: C_2  and  C_10
REMARK    4  A    between atoms: S_3  and  C_4
REMARK    5  A    between atoms: N_8  and  C_9
REMARK    6  A    between atoms: C_14  and  N_15
REMARK    7  A    between atoms: C_16  and  C_18
REMARK    8  A    between atoms: C_22  and  C_23
REMARK                            x       y       z     vdW  Elec       q    Type
REMARK                         _______ _______ _______ _____ _____    ______ ____
ROOT
ATOM      1  C   UNL     1       0.015  10.317  20.245  0.00  0.00    +0.000 A 
ATOM      2  C   UNL     1      -0.364  10.236  21.598  0.00  0.00    +0.000 A 
ATOM      3  C   UNL     1       0.165   9.241  22.428  0.00  0.00    +0.000 A 
ATOM      4  C   UNL     1       1.056   8.308  21.924  0.00  0.00    +0.000 A 
ATOM      5  C   UNL     1       1.466   8.356  20.590  0.00  0.00    +0.000 A 
ATOM      6  C   UNL     1       0.959   9.384  19.778  0.00  0.00    +0.000 A 
ENDROOT
BRANCH   5   7
ATOM      7  N   UNL     1       2.359   7.417  20.035  0.00  0.00    +0.000 N 
ATOM      8  C   UNL     1       2.221   6.038  20.090  0.00  0.00    +0.000 C 
ATOM      9  O   UNL     1       1.302   5.414  20.614  0.00  0.00    +0.000 OA
ATOM     10  H   UNL     1       3.124   7.766  19.457  0.00  0.00    +0.000 HD
BRANCH   8  11
ATOM     11  C   UNL     1       3.270   5.260  19.382  0.00  0.00    +0.000 A 
ATOM     12  C   UNL     1       2.895   4.200  18.568  0.00  0.00    +0.000 A 
ATOM     13  N   UNL     1       3.791   3.507  17.823  0.00  0.00    +0.000 NA
ATOM     14  C   UNL     1       5.073   3.933  17.909  0.00  0.00    +0.000 A 
ATOM     15  C   UNL     1       5.469   4.990  18.726  0.00  0.00    +0.000 A 
ATOM     16  N   UNL     1       4.563   5.673  19.499  0.00  0.00    +0.000 NA
BRANCH  15  17
ATOM     17  C   UNL     1       6.917   5.423  18.709  0.00  0.00    +0.000 C 
ATOM     18  F   UNL     1       7.740   4.547  18.064  0.00  0.00    +0.000 F 
ATOM     19  F   UNL     1       7.094   6.621  18.083  0.00  0.00    +0.000 F 
ATOM     20  F   UNL     1       7.442   5.569  19.958  0.00  0.00    +0.000 F 
ENDBRANCH  15  17
ENDBRANCH   8  11
ENDBRANCH   5   7
BRANCH   1  22
ATOM     21  C   UNL     1      -1.342  10.781  18.142  0.00  0.00    +0.000 C 
ATOM     22  C   UNL     1      -0.590  11.402  19.329  0.00  0.00    +0.000 C 
BRANCH  22  23
ATOM     23  S   UNL     1       0.748  12.531  18.761  0.00  0.00    +0.000 S 
BRANCH  23  24
ATOM     24  C   UNL     1       1.088  13.519  20.144  0.00  0.00    +0.000 A 
ATOM     25  N   UNL     1       1.924  13.278  21.125  0.00  0.00    +0.000 NA
ATOM     26  N   UNL     1       1.815  14.314  22.036  0.00  0.00    +0.000 NA
ATOM     27  C   UNL     1       0.923  15.163  21.570  0.00  0.00    +0.000 A 
ATOM     28  N   UNL     1       0.472  14.725  20.360  0.00  0.00    +0.000 N 
ATOM     29  C   UNL     1      -0.459  15.408  19.509  0.00  0.00    +0.000 C 
ENDBRANCH  23  24
ENDBRANCH  22  23
ENDBRANCH   1  22
TORSDOF 6
ENDMDL
