MODEL 1
REMARK VINA RESULT:      -8.4      0.000      0.000
REMARK  Name = 
REMARK  7 active torsions:
REMARK  status: ('A' for Active; 'I' for Inactive)
REMARK    1  A    between atoms: C_1  and  C_2
REMARK    2  A    between atoms: N_10  and  C_11
REMARK    3  A    between atoms: C_15  and  C_16
REMARK    4  A    between atoms: C_16  and  C_17
REMARK    5  A    between atoms: C_16  and  S_18
REMARK    6  A    between atoms: S_18  and  C_19
REMARK    7  A    between atoms: N_23  and  C_24
REMARK                            x       y       z     vdW  Elec       q    Type
REMARK                         _______ _______ _______ _____ _____    ______ ____
ROOT
ATOM      1  C   UNL     1       2.222   6.716  18.732  0.00  0.00    +0.000 A 
ATOM      2  C   UNL     1       2.278   6.706  20.122  0.00  0.00    +0.000 A 
ATOM      3  C   UNL     1       2.006   5.528  20.811  0.00  0.00    +0.000 A 
ATOM      4  C   UNL     1       1.780   4.343  20.108  0.00  0.00    +0.000 A 
ATOM      5  C   UNL     1       1.810   4.321  18.700  0.00  0.00    +0.000 A 
ATOM      6  C   UNL     1       1.981   5.537  18.021  0.00  0.00    +0.000 A 
ENDROOT
BRANCH   1  16
ATOM      7  C   UNL     1      -1.316  11.679  22.826  0.00  0.00    +0.000 C 
ATOM      8  C   UNL     1      -0.573  11.659  21.530  0.00  0.00    +0.000 A 
ATOM      9  C   UNL     1      -0.402  12.807  20.776  0.00  0.00    +0.000 A 
ATOM     10  N   UNL     1       0.252  12.809  19.600  0.00  0.00    +0.000 NA
ATOM     11  N   UNL     1       0.772  11.639  19.119  0.00  0.00    +0.000 NA
ATOM     12  C   UNL     1       0.646  10.494  19.816  0.00  0.00    +0.000 A 
ATOM     13  N   UNL     1       1.182   9.286  19.356  0.00  0.00    +0.000 N 
ATOM     14  C   UNL     1       1.949   9.145  18.233  0.00  0.00    +0.000 C 
ATOM     15  O   UNL     1       2.265  10.032  17.442  0.00  0.00    +0.000 OA
ATOM     16  N   UNL     1       2.515   7.906  18.061  0.00  0.00    +0.000 N 
ATOM     17  C   UNL     1      -0.022  10.475  21.035  0.00  0.00    +0.000 A 
ATOM     18  H   UNL     1       1.118   8.492  19.974  0.00  0.00    +0.000 HD
ATOM     19  H   UNL     1       3.351   7.947  17.492  0.00  0.00    +0.000 HD
ENDBRANCH   1  16
BRANCH   5  20
ATOM     20  C   UNL     1       1.913   2.976  17.988  0.00  0.00    +0.000 C 
ATOM     21  C   UNL     1       0.865   2.056  18.644  0.00  0.00    +0.000 C 
BRANCH  20  22
ATOM     22  S   UNL     1       3.516   2.105  18.095  0.00  0.00    +0.000 S 
BRANCH  22  23
ATOM     23  C   UNL     1       4.656   3.360  18.403  0.00  0.00    +0.000 A 
ATOM     24  N   UNL     1       5.189   3.699  19.553  0.00  0.00    +0.000 NA
ATOM     25  N   UNL     1       6.071   4.735  19.322  0.00  0.00    +0.000 NA
ATOM     26  C   UNL     1       6.042   4.999  18.030  0.00  0.00    +0.000 A 
ATOM     27  N   UNL     1       5.169   4.154  17.413  0.00  0.00    +0.000 N 
ATOM     28  C   UNL     1       4.889   4.135  16.001  0.00  0.00    +0.000 C 
ENDBRANCH  22  23
ENDBRANCH  20  22
ENDBRANCH   5  20
TORSDOF 4
ENDMDL
MODEL 2
REMARK VINA RESULT:      -8.3      2.754      3.714
REMARK  Name = 
REMARK  7 active torsions:
REMARK  status: ('A' for Active; 'I' for Inactive)
REMARK    1  A    between atoms: C_1  and  C_2
REMARK    2  A    between atoms: N_10  and  C_11
REMARK    3  A    between atoms: C_15  and  C_16
REMARK    4  A    between atoms: C_16  and  C_17
REMARK    5  A    between atoms: C_16  and  S_18
REMARK    6  A    between atoms: S_18  and  C_19
REMARK    7  A    between atoms: N_23  and  C_24
REMARK                            x       y       z     vdW  Elec       q    Type
REMARK                         _______ _______ _______ _____ _____    ______ ____
ROOT
ATOM      1  C   UNL     1       2.420   6.182  19.572  0.00  0.00    +0.000 A 
ATOM      2  C   UNL     1       1.636   5.041  19.432  0.00  0.00    +0.000 A 
ATOM      3  C   UNL     1       1.835   4.201  18.341  0.00  0.00    +0.000 A 
ATOM      4  C   UNL     1       2.882   4.449  17.451  0.00  0.00    +0.000 A 
ATOM      5  C   UNL     1       3.742   5.549  17.632  0.00  0.00    +0.000 A 
ATOM      6  C   UNL     1       3.461   6.444  18.677  0.00  0.00    +0.000 A 
ENDROOT
BRANCH   1  16
ATOM      7  C   UNL     1      -2.219  11.213  16.912  0.00  0.00    +0.000 C 
ATOM      8  C   UNL     1      -1.448  10.994  18.173  0.00  0.00    +0.000 A 
ATOM      9  C   UNL     1      -1.526  11.880  19.233  0.00  0.00    +0.000 A 
ATOM     10  N   UNL     1      -0.829  11.709  20.371  0.00  0.00    +0.000 NA
ATOM     11  N   UNL     1      -0.009  10.623  20.500  0.00  0.00    +0.000 NA
ATOM     12  C   UNL     1       0.098   9.722  19.505  0.00  0.00    +0.000 A 
ATOM     13  N   UNL     1       0.919   8.594  19.615  0.00  0.00    +0.000 N 
ATOM     14  C   UNL     1       1.612   8.234  20.737  0.00  0.00    +0.000 C 
ATOM     15  O   UNL     1       1.651   8.844  21.804  0.00  0.00    +0.000 OA
ATOM     16  N   UNL     1       2.213   7.001  20.685  0.00  0.00    +0.000 N 
ATOM     17  C   UNL     1      -0.618   9.881  18.324  0.00  0.00    +0.000 A 
ATOM     18  H   UNL     1       0.880   7.925  18.862  0.00  0.00    +0.000 HD
ATOM     19  H   UNL     1       2.356   6.609  21.607  0.00  0.00    +0.000 HD
ENDBRANCH   1  16
BRANCH   5  20
ATOM     20  C   UNL     1       5.060   5.586  16.869  0.00  0.00    +0.000 C 
ATOM     21  C   UNL     1       4.958   6.766  15.882  0.00  0.00    +0.000 C 
BRANCH  20  22
ATOM     22  S   UNL     1       5.484   4.110  15.878  0.00  0.00    +0.000 S 
BRANCH  22  23
ATOM     23  C   UNL     1       6.647   4.685  14.745  0.00  0.00    +0.000 A 
ATOM     24  N   UNL     1       7.667   5.480  14.970  0.00  0.00    +0.000 NA
ATOM     25  N   UNL     1       8.344   5.648  13.781  0.00  0.00    +0.000 NA
ATOM     26  C   UNL     1       7.708   4.949  12.860  0.00  0.00    +0.000 A 
ATOM     27  N   UNL     1       6.636   4.324  13.424  0.00  0.00    +0.000 N 
ATOM     28  C   UNL     1       5.720   3.459  12.730  0.00  0.00    +0.000 C 
ENDBRANCH  22  23
ENDBRANCH  20  22
ENDBRANCH   5  20
TORSDOF 4
ENDMDL
MODEL 3
REMARK VINA RESULT:      -8.2      2.982      3.905
REMARK  Name = 
REMARK  7 active torsions:
REMARK  status: ('A' for Active; 'I' for Inactive)
REMARK    1  A    between atoms: C_1  and  C_2
REMARK    2  A    between atoms: N_10  and  C_11
REMARK    3  A    between atoms: C_15  and  C_16
REMARK    4  A    between atoms: C_16  and  C_17
REMARK    5  A    between atoms: C_16  and  S_18
REMARK    6  A    between atoms: S_18  and  C_19
REMARK    7  A    between atoms: N_23  and  C_24
REMARK                            x       y       z     vdW  Elec       q    Type
REMARK                         _______ _______ _______ _____ _____    ______ ____
ROOT
ATOM      1  C   UNL     1       1.589   8.673  19.485  0.00  0.00    +0.000 A 
ATOM      2  C   UNL     1       1.995   9.168  18.251  0.00  0.00    +0.000 A 
ATOM      3  C   UNL     1       2.877   8.427  17.470  0.00  0.00    +0.000 A 
ATOM      4  C   UNL     1       3.269   7.151  17.879  0.00  0.00    +0.000 A 
ATOM      5  C   UNL     1       2.793   6.599  19.084  0.00  0.00    +0.000 A 
ATOM      6  C   UNL     1       1.989   7.402  19.909  0.00  0.00    +0.000 A 
ENDROOT
BRANCH   1  16
ATOM      7  C   UNL     1      -3.698  10.103  14.596  0.00  0.00    +0.000 C 
ATOM      8  C   UNL     1      -3.360  10.511  15.992  0.00  0.00    +0.000 A 
ATOM      9  C   UNL     1      -4.165  11.379  16.708  0.00  0.00    +0.000 A 
ATOM     10  N   UNL     1      -3.873  11.771  17.961  0.00  0.00    +0.000 NA
ATOM     11  N   UNL     1      -2.739  11.300  18.564  0.00  0.00    +0.000 NA
ATOM     12  C   UNL     1      -1.924  10.443  17.920  0.00  0.00    +0.000 A 
ATOM     13  N   UNL     1      -0.766   9.934  18.517  0.00  0.00    +0.000 N 
ATOM     14  C   UNL     1      -0.385  10.162  19.811  0.00  0.00    +0.000 C 
ATOM     15  O   UNL     1      -0.970  10.860  20.637  0.00  0.00    +0.000 OA
ATOM     16  N   UNL     1       0.690   9.427  20.244  0.00  0.00    +0.000 N 
ATOM     17  C   UNL     1      -2.214  10.026  16.627  0.00  0.00    +0.000 A 
ATOM     18  H   UNL     1      -0.254   9.235  18.002  0.00  0.00    +0.000 HD
ATOM     19  H   UNL     1       0.691   9.311  21.249  0.00  0.00    +0.000 HD
ENDBRANCH   1  16
BRANCH   5  20
ATOM     20  C   UNL     1       2.951   5.102  19.320  0.00  0.00    +0.000 C 
ATOM     21  C   UNL     1       2.153   4.776  20.597  0.00  0.00    +0.000 C 
BRANCH  20  22
ATOM     22  S   UNL     1       4.649   4.482  19.591  0.00  0.00    +0.000 S 
BRANCH  22  23
ATOM     23  C   UNL     1       5.284   4.290  18.001  0.00  0.00    +0.000 A 
ATOM     24  N   UNL     1       4.692   3.759  16.956  0.00  0.00    +0.000 NA
ATOM     25  N   UNL     1       5.560   3.844  15.888  0.00  0.00    +0.000 NA
ATOM     26  C   UNL     1       6.664   4.423  16.320  0.00  0.00    +0.000 A 
ATOM     27  N   UNL     1       6.531   4.724  17.643  0.00  0.00    +0.000 N 
ATOM     28  C   UNL     1       7.527   5.379  18.449  0.00  0.00    +0.000 C 
ENDBRANCH  22  23
ENDBRANCH  20  22
ENDBRANCH   5  20
TORSDOF 4
ENDMDL
MODEL 4
REMARK VINA RESULT:      -8.1      2.704      3.408
REMARK  Name = 
REMARK  7 active torsions:
REMARK  status: ('A' for Active; 'I' for Inactive)
REMARK    1  A    between atoms: C_1  and  C_2
REMARK    2  A    between atoms: N_10  and  C_11
REMARK    3  A    between atoms: C_15  and  C_16
REMARK    4  A    between atoms: C_16  and  C_17
REMARK    5  A    between atoms: C_16  and  S_18
REMARK    6  A    between atoms: S_18  and  C_19
REMARK    7  A    between atoms: N_23  and  C_24
REMARK                            x       y       z     vdW  Elec       q    Type
REMARK                         _______ _______ _______ _____ _____    ______ ____
ROOT
ATOM      1  C   UNL     1       1.953   8.176  19.416  0.00  0.00    +0.000 A 
ATOM      2  C   UNL     1       2.438   8.710  18.226  0.00  0.00    +0.000 A 
ATOM      3  C   UNL     1       3.204   7.915  17.379  0.00  0.00    +0.000 A 
ATOM      4  C   UNL     1       3.396   6.563  17.673  0.00  0.00    +0.000 A 
ATOM      5  C   UNL     1       2.833   5.987  18.829  0.00  0.00    +0.000 A 
ATOM      6  C   UNL     1       2.154   6.828  19.725  0.00  0.00    +0.000 A 
ENDROOT
BRANCH   1  16
ATOM      7  C   UNL     1      -3.499  10.140  14.907  0.00  0.00    +0.000 C 
ATOM      8  C   UNL     1      -3.038  10.491  16.284  0.00  0.00    +0.000 A 
ATOM      9  C   UNL     1      -3.717  11.411  17.063  0.00  0.00    +0.000 A 
ATOM     10  N   UNL     1      -3.312  11.752  18.299  0.00  0.00    +0.000 NA
ATOM     11  N   UNL     1      -2.186  11.176  18.819  0.00  0.00    +0.000 NA
ATOM     12  C   UNL     1      -1.490  10.266  18.111  0.00  0.00    +0.000 A 
ATOM     13  N   UNL     1      -0.343   9.650  18.623  0.00  0.00    +0.000 N 
ATOM     14  C   UNL     1       0.139   9.820  19.892  0.00  0.00    +0.000 C 
ATOM     15  O   UNL     1      -0.330  10.550  20.764  0.00  0.00    +0.000 OA
ATOM     16  N   UNL     1       1.173   8.989  20.242  0.00  0.00    +0.000 N 
ATOM     17  C   UNL     1      -1.898   9.899  16.834  0.00  0.00    +0.000 A 
ATOM     18  H   UNL     1       0.072   8.920  18.066  0.00  0.00    +0.000 HD
ATOM     19  H   UNL     1       1.229   8.855  21.244  0.00  0.00    +0.000 HD
ENDBRANCH   1  16
BRANCH   5  20
ATOM     20  C   UNL     1       2.761   4.468  18.932  0.00  0.00    +0.000 C 
ATOM     21  C   UNL     1       2.766   4.135  20.437  0.00  0.00    +0.000 C 
BRANCH  20  22
ATOM     22  S   UNL     1       4.132   3.522  18.180  0.00  0.00    +0.000 S 
BRANCH  22  23
ATOM     23  C   UNL     1       5.545   4.395  18.640  0.00  0.00    +0.000 A 
ATOM     24  N   UNL     1       5.901   4.774  19.845  0.00  0.00    +0.000 NA
ATOM     25  N   UNL     1       7.118   5.415  19.746  0.00  0.00    +0.000 NA
ATOM     26  C   UNL     1       7.465   5.411  18.473  0.00  0.00    +0.000 A 
ATOM     27  N   UNL     1       6.506   4.776  17.742  0.00  0.00    +0.000 N 
ATOM     28  C   UNL     1       6.550   4.563  16.320  0.00  0.00    +0.000 C 
ENDBRANCH  22  23
ENDBRANCH  20  22
ENDBRANCH   5  20
TORSDOF 4
ENDMDL
MODEL 5
REMARK VINA RESULT:      -8.0      0.775      1.350
REMARK  Name = 
REMARK  7 active torsions:
REMARK  status: ('A' for Active; 'I' for Inactive)
REMARK    1  A    between atoms: C_1  and  C_2
REMARK    2  A    between atoms: N_10  and  C_11
REMARK    3  A    between atoms: C_15  and  C_16
REMARK    4  A    between atoms: C_16  and  C_17
REMARK    5  A    between atoms: C_16  and  S_18
REMARK    6  A    between atoms: S_18  and  C_19
REMARK    7  A    between atoms: N_23  and  C_24
REMARK                            x       y       z     vdW  Elec       q    Type
REMARK                         _______ _______ _______ _____ _____    ______ ____
ROOT
ATOM      1  C   UNL     1       2.228   7.021  18.687  0.00  0.00    +0.000 A 
ATOM      2  C   UNL     1       2.188   6.967  20.076  0.00  0.00    +0.000 A 
ATOM      3  C   UNL     1       1.943   5.753  20.710  0.00  0.00    +0.000 A 
ATOM      4  C   UNL     1       1.842   4.581  19.958  0.00  0.00    +0.000 A 
ATOM      5  C   UNL     1       1.971   4.607  18.556  0.00  0.00    +0.000 A 
ATOM      6  C   UNL     1       2.112   5.854  17.926  0.00  0.00    +0.000 A 
ENDROOT
BRANCH   1  16
ATOM      7  C   UNL     1      -1.572  11.674  22.908  0.00  0.00    +0.000 C 
ATOM      8  C   UNL     1      -0.802  11.736  21.630  0.00  0.00    +0.000 A 
ATOM      9  C   UNL     1      -0.657  12.921  20.928  0.00  0.00    +0.000 A 
ATOM     10  N   UNL     1       0.020  12.997  19.769  0.00  0.00    +0.000 NA
ATOM     11  N   UNL     1       0.593  11.868  19.251  0.00  0.00    +0.000 NA
ATOM     12  C   UNL     1       0.494  10.690  19.895  0.00  0.00    +0.000 A 
ATOM     13  N   UNL     1       1.083   9.523  19.397  0.00  0.00    +0.000 N 
ATOM     14  C   UNL     1       1.878   9.458  18.286  0.00  0.00    +0.000 C 
ATOM     15  O   UNL     1       2.177  10.389  17.541  0.00  0.00    +0.000 OA
ATOM     16  N   UNL     1       2.492   8.249  18.074  0.00  0.00    +0.000 N 
ATOM     17  C   UNL     1      -0.198  10.595  21.097  0.00  0.00    +0.000 A 
ATOM     18  H   UNL     1       1.034   8.701  19.978  0.00  0.00    +0.000 HD
ATOM     19  H   UNL     1       3.338   8.343  17.527  0.00  0.00    +0.000 HD
ENDBRANCH   1  16
BRANCH   5  20
ATOM     20  C   UNL     1       2.208   3.297  17.814  0.00  0.00    +0.000 C 
ATOM     21  C   UNL     1       1.345   2.235  18.522  0.00  0.00    +0.000 C 
BRANCH  20  22
ATOM     22  S   UNL     1       3.919   2.654  17.796  0.00  0.00    +0.000 S 
BRANCH  22  23
ATOM     23  C   UNL     1       4.832   3.914  17.056  0.00  0.00    +0.000 A 
ATOM     24  N   UNL     1       4.981   4.155  15.774  0.00  0.00    +0.000 NA
ATOM     25  N   UNL     1       5.766   5.280  15.642  0.00  0.00    +0.000 NA
ATOM     26  C   UNL     1       6.078   5.690  16.857  0.00  0.00    +0.000 A 
ATOM     27  N   UNL     1       5.507   4.862  17.776  0.00  0.00    +0.000 N 
ATOM     28  C   UNL     1       5.613   5.008  19.204  0.00  0.00    +0.000 C 
ENDBRANCH  22  23
ENDBRANCH  20  22
ENDBRANCH   5  20
TORSDOF 4
ENDMDL
MODEL 6
REMARK VINA RESULT:      -7.9      1.931      2.446
REMARK  Name = 
REMARK  7 active torsions:
REMARK  status: ('A' for Active; 'I' for Inactive)
REMARK    1  A    between atoms: C_1  and  C_2
REMARK    2  A    between atoms: N_10  and  C_11
REMARK    3  A    between atoms: C_15  and  C_16
REMARK    4  A    between atoms: C_16  and  C_17
REMARK    5  A    between atoms: C_16  and  S_18
REMARK    6  A    between atoms: S_18  and  C_19
REMARK    7  A    between atoms: N_23  and  C_24
REMARK                            x       y       z     vdW  Elec       q    Type
REMARK                         _______ _______ _______ _____ _____    ______ ____
ROOT
ATOM      1  C   UNL     1       2.066   7.265  20.201  0.00  0.00    +0.000 A 
ATOM      2  C   UNL     1       2.244   7.971  19.016  0.00  0.00    +0.000 A 
ATOM      3  C   UNL     1       2.507   7.280  17.838  0.00  0.00    +0.000 A 
ATOM      4  C   UNL     1       2.491   5.884  17.829  0.00  0.00    +0.000 A 
ATOM      5  C   UNL     1       2.222   5.155  19.003  0.00  0.00    +0.000 A 
ATOM      6  C   UNL     1       2.063   5.867  20.203  0.00  0.00    +0.000 A 
ENDROOT
BRANCH   1  16
ATOM      7  C   UNL     1      -3.187  11.869  17.939  0.00  0.00    +0.000 C 
ATOM      8  C   UNL     1      -2.370  11.662  19.173  0.00  0.00    +0.000 A 
ATOM      9  C   UNL     1      -2.531  12.462  20.291  0.00  0.00    +0.000 A 
ATOM     10  N   UNL     1      -1.797  12.302  21.407  0.00  0.00    +0.000 NA
ATOM     11  N   UNL     1      -0.852  11.315  21.452  0.00  0.00    +0.000 NA
ATOM     12  C   UNL     1      -0.659  10.500  20.399  0.00  0.00    +0.000 A 
ATOM     13  N   UNL     1       0.291   9.473  20.423  0.00  0.00    +0.000 N 
ATOM     14  C   UNL     1       1.044   9.126  21.510  0.00  0.00    +0.000 C 
ATOM     15  O   UNL     1       1.032   9.666  22.615  0.00  0.00    +0.000 OA
ATOM     16  N   UNL     1       1.786   7.980  21.369  0.00  0.00    +0.000 N 
ATOM     17  C   UNL     1      -1.412  10.649  19.240  0.00  0.00    +0.000 A 
ATOM     18  H   UNL     1       0.317   8.854  19.627  0.00  0.00    +0.000 HD
ATOM     19  H   UNL     1       1.992   7.548  22.261  0.00  0.00    +0.000 HD
ENDBRANCH   1  16
BRANCH   5  20
ATOM     20  C   UNL     1       1.865   3.678  18.887  0.00  0.00    +0.000 C 
ATOM     21  C   UNL     1       1.318   3.253  20.263  0.00  0.00    +0.000 C 
BRANCH  20  22
ATOM     22  S   UNL     1       3.228   2.528  18.486  0.00  0.00    +0.000 S 
BRANCH  22  23
ATOM     23  C   UNL     1       4.645   3.500  18.603  0.00  0.00    +0.000 A 
ATOM     24  N   UNL     1       5.308   3.831  19.687  0.00  0.00    +0.000 NA
ATOM     25  N   UNL     1       6.393   4.592  19.304  0.00  0.00    +0.000 NA
ATOM     26  C   UNL     1       6.354   4.707  17.991  0.00  0.00    +0.000 A 
ATOM     27  N   UNL     1       5.273   4.031  17.508  0.00  0.00    +0.000 N 
ATOM     28  C   UNL     1       4.916   3.919  16.119  0.00  0.00    +0.000 C 
ENDBRANCH  22  23
ENDBRANCH  20  22
ENDBRANCH   5  20
TORSDOF 4
ENDMDL
MODEL 7
REMARK VINA RESULT:      -7.9      2.384      3.158
REMARK  Name = 
REMARK  7 active torsions:
REMARK  status: ('A' for Active; 'I' for Inactive)
REMARK    1  A    between atoms: C_1  and  C_2
REMARK    2  A    between atoms: N_10  and  C_11
REMARK    3  A    between atoms: C_15  and  C_16
REMARK    4  A    between atoms: C_16  and  C_17
REMARK    5  A    between atoms: C_16  and  S_18
REMARK    6  A    between atoms: S_18  and  C_19
REMARK    7  A    between atoms: N_23  and  C_24
REMARK                            x       y       z     vdW  Elec       q    Type
REMARK                         _______ _______ _______ _____ _____    ______ ____
ROOT
ATOM      1  C   UNL     1       1.700   6.385  20.548  0.00  0.00    +0.000 A 
ATOM      2  C   UNL     1       1.063   5.213  20.943  0.00  0.00    +0.000 A 
ATOM      3  C   UNL     1       1.030   4.124  20.077  0.00  0.00    +0.000 A 
ATOM      4  C   UNL     1       1.720   4.175  18.864  0.00  0.00    +0.000 A 
ATOM      5  C   UNL     1       2.446   5.323  18.492  0.00  0.00    +0.000 A 
ATOM      6  C   UNL     1       2.381   6.448  19.328  0.00  0.00    +0.000 A 
ENDROOT
BRANCH   1  16
ATOM      7  C   UNL     1      -2.464  11.356  17.105  0.00  0.00    +0.000 C 
ATOM      8  C   UNL     1      -1.594  11.309  18.319  0.00  0.00    +0.000 A 
ATOM      9  C   UNL     1      -1.429  12.415  19.135  0.00  0.00    +0.000 A 
ATOM     10  N   UNL     1      -0.640  12.399  20.224  0.00  0.00    +0.000 NA
ATOM     11  N   UNL     1       0.031  11.253  20.550  0.00  0.00    +0.000 NA
ATOM     12  C   UNL     1      -0.101  10.143  19.799  0.00  0.00    +0.000 A 
ATOM     13  N   UNL     1       0.562   8.952  20.117  0.00  0.00    +0.000 N 
ATOM     14  C   UNL     1       1.320   8.751  21.237  0.00  0.00    +0.000 C 
ATOM     15  O   UNL     1       1.563   9.575  22.117  0.00  0.00    +0.000 OA
ATOM     16  N   UNL     1       1.735   7.459  21.441  0.00  0.00    +0.000 N 
ATOM     17  C   UNL     1      -0.915  10.141  18.673  0.00  0.00    +0.000 A 
ATOM     18  H   UNL     1       0.347   8.144  19.554  0.00  0.00    +0.000 HD
ATOM     19  H   UNL     1       1.924   7.270  22.417  0.00  0.00    +0.000 HD
ENDBRANCH   1  16
BRANCH   5  20
ATOM     20  C   UNL     1       3.457   5.217  17.356  0.00  0.00    +0.000 C 
ATOM     21  C   UNL     1       3.997   3.774  17.389  0.00  0.00    +0.000 C 
BRANCH  20  22
ATOM     22  S   UNL     1       4.909   6.324  17.437  0.00  0.00    +0.000 S 
BRANCH  22  23
ATOM     23  C   UNL     1       5.927   5.773  16.160  0.00  0.00    +0.000 A 
ATOM     24  N   UNL     1       5.789   5.986  14.872  0.00  0.00    +0.000 NA
ATOM     25  N   UNL     1       6.851   5.386  14.228  0.00  0.00    +0.000 NA
ATOM     26  C   UNL     1       7.604   4.818  15.149  0.00  0.00    +0.000 A 
ATOM     27  N   UNL     1       7.062   5.041  16.380  0.00  0.00    +0.000 N 
ATOM     28  C   UNL     1       7.619   4.587  17.627  0.00  0.00    +0.000 C 
ENDBRANCH  22  23
ENDBRANCH  20  22
ENDBRANCH   5  20
TORSDOF 4
ENDMDL
MODEL 8
REMARK VINA RESULT:      -7.9      2.355      3.323
REMARK  Name = 
REMARK  7 active torsions:
REMARK  status: ('A' for Active; 'I' for Inactive)
REMARK    1  A    between atoms: C_1  and  C_2
REMARK    2  A    between atoms: N_10  and  C_11
REMARK    3  A    between atoms: C_15  and  C_16
REMARK    4  A    between atoms: C_16  and  C_17
REMARK    5  A    between atoms: C_16  and  S_18
REMARK    6  A    between atoms: S_18  and  C_19
REMARK    7  A    between atoms: N_23  and  C_24
REMARK                            x       y       z     vdW  Elec       q    Type
REMARK                         _______ _______ _______ _____ _____    ______ ____
ROOT
ATOM      1  C   UNL     1       1.841   6.836  20.514  0.00  0.00    +0.000 A 
ATOM      2  C   UNL     1       1.122   5.692  20.844  0.00  0.00    +0.000 A 
ATOM      3  C   UNL     1       1.288   4.535  20.089  0.00  0.00    +0.000 A 
ATOM      4  C   UNL     1       2.244   4.496  19.072  0.00  0.00    +0.000 A 
ATOM      5  C   UNL     1       3.043   5.620  18.786  0.00  0.00    +0.000 A 
ATOM      6  C   UNL     1       2.789   6.809  19.487  0.00  0.00    +0.000 A 
ENDROOT
BRANCH   1  16
ATOM      7  C   UNL     1      -2.601  10.902  16.313  0.00  0.00    +0.000 C 
ATOM      8  C   UNL     1      -1.836  11.076  17.584  0.00  0.00    +0.000 A 
ATOM      9  C   UNL     1      -1.875  12.261  18.297  0.00  0.00    +0.000 A 
ATOM     10  N   UNL     1      -1.183  12.444  19.435  0.00  0.00    +0.000 NA
ATOM     11  N   UNL     1      -0.406  11.428  19.919  0.00  0.00    +0.000 NA
ATOM     12  C   UNL     1      -0.338  10.248  19.273  0.00  0.00    +0.000 A 
ATOM     13  N   UNL     1       0.437   9.187  19.753  0.00  0.00    +0.000 N 
ATOM     14  C   UNL     1       1.118   9.185  20.938  0.00  0.00    +0.000 C 
ATOM     15  O   UNL     1       1.185  10.108  21.749  0.00  0.00    +0.000 OA
ATOM     16  N   UNL     1       1.670   7.981  21.297  0.00  0.00    +0.000 N 
ATOM     17  C   UNL     1      -1.051  10.042  18.098  0.00  0.00    +0.000 A 
ATOM     18  H   UNL     1       0.369   8.311  19.259  0.00  0.00    +0.000 HD
ATOM     19  H   UNL     1       1.799   7.905  22.298  0.00  0.00    +0.000 HD
ENDBRANCH   1  16
BRANCH   5  20
ATOM     20  C   UNL     1       4.293   5.435  17.933  0.00  0.00    +0.000 C 
ATOM     21  C   UNL     1       4.310   6.605  16.929  0.00  0.00    +0.000 C 
BRANCH  20  22
ATOM     22  S   UNL     1       4.404   3.898  16.950  0.00  0.00    +0.000 S 
BRANCH  22  23
ATOM     23  C   UNL     1       5.578   4.257  15.742  0.00  0.00    +0.000 A 
ATOM     24  N   UNL     1       5.401   4.335  14.444  0.00  0.00    +0.000 NA
ATOM     25  N   UNL     1       6.608   4.678  13.871  0.00  0.00    +0.000 NA
ATOM     26  C   UNL     1       7.490   4.794  14.845  0.00  0.00    +0.000 A 
ATOM     27  N   UNL     1       6.884   4.542  16.040  0.00  0.00    +0.000 N 
ATOM     28  C   UNL     1       7.529   4.592  17.325  0.00  0.00    +0.000 C 
ENDBRANCH  22  23
ENDBRANCH  20  22
ENDBRANCH   5  20
TORSDOF 4
ENDMDL
MODEL 9
REMARK VINA RESULT:      -7.9      3.160      8.765
REMARK  Name = 
REMARK  7 active torsions:
REMARK  status: ('A' for Active; 'I' for Inactive)
REMARK    1  A    between atoms: C_1  and  C_2
REMARK    2  A    between atoms: N_10  and  C_11
REMARK    3  A    between atoms: C_15  and  C_16
REMARK    4  A    between atoms: C_16  and  C_17
REMARK    5  A    between atoms: C_16  and  S_18
REMARK    6  A    between atoms: S_18  and  C_19
REMARK    7  A    between atoms: N_23  and  C_24
REMARK                            x       y       z     vdW  Elec       q    Type
REMARK                         _______ _______ _______ _____ _____    ______ ____
ROOT
ATOM      1  C   UNL     1       1.007   9.431  18.613  0.00  0.00    +0.000 A 
ATOM      2  C   UNL     1      -0.028   9.942  17.837  0.00  0.00    +0.000 A 
ATOM      3  C   UNL     1      -1.140  10.503  18.458  0.00  0.00    +0.000 A 
ATOM      4  C   UNL     1      -1.166  10.645  19.847  0.00  0.00    +0.000 A 
ATOM      5  C   UNL     1      -0.084  10.215  20.639  0.00  0.00    +0.000 A 
ATOM      6  C   UNL     1       0.981   9.555  20.005  0.00  0.00    +0.000 A 
ENDROOT
BRANCH   1  16
ATOM      7  C   UNL     1       1.381   2.737  21.606  0.00  0.00    +0.000 C 
ATOM      8  C   UNL     1       2.211   3.572  20.687  0.00  0.00    +0.000 A 
ATOM      9  C   UNL     1       3.398   3.102  20.153  0.00  0.00    +0.000 A 
ATOM     10  N   UNL     1       4.168   3.842  19.336  0.00  0.00    +0.000 NA
ATOM     11  N   UNL     1       3.774   5.110  19.009  0.00  0.00    +0.000 NA
ATOM     12  C   UNL     1       2.623   5.617  19.489  0.00  0.00    +0.000 A 
ATOM     13  N   UNL     1       2.188   6.905  19.160  0.00  0.00    +0.000 N 
ATOM     14  C   UNL     1       2.808   7.740  18.272  0.00  0.00    +0.000 C 
ATOM     15  O   UNL     1       3.844   7.512  17.650  0.00  0.00    +0.000 OA
ATOM     16  N   UNL     1       2.120   8.887  17.966  0.00  0.00    +0.000 N 
ATOM     17  C   UNL     1       1.814   4.864  20.332  0.00  0.00    +0.000 A 
ATOM     18  H   UNL     1       1.277   7.180  19.492  0.00  0.00    +0.000 HD
ATOM     19  H   UNL     1       2.381   9.257  17.061  0.00  0.00    +0.000 HD
ENDBRANCH   1  16
BRANCH   5  20
ATOM     20  C   UNL     1       0.009  10.698  22.082  0.00  0.00    +0.000 C 
ATOM     21  C   UNL     1       0.128   9.434  22.956  0.00  0.00    +0.000 C 
BRANCH  20  22
ATOM     22  S   UNL     1      -1.411  11.651  22.728  0.00  0.00    +0.000 S 
BRANCH  22  23
ATOM     23  C   UNL     1      -0.807  13.258  22.868  0.00  0.00    +0.000 A 
ATOM     24  N   UNL     1       0.308  13.745  22.376  0.00  0.00    +0.000 NA
ATOM     25  N   UNL     1       0.368  15.083  22.706  0.00  0.00    +0.000 NA
ATOM     26  C   UNL     1      -0.718  15.370  23.398  0.00  0.00    +0.000 A 
ATOM     27  N   UNL     1      -1.488  14.252  23.519  0.00  0.00    +0.000 N 
ATOM     28  C   UNL     1      -2.756  14.186  24.194  0.00  0.00    +0.000 C 
ENDBRANCH  22  23
ENDBRANCH  20  22
ENDBRANCH   5  20
TORSDOF 4
ENDMDL
