MODEL 1
REMARK VINA RESULT:      -9.0      0.000      0.000
REMARK  Name = 
REMARK  11 active torsions:
REMARK  status: ('A' for Active; 'I' for Inactive)
REMARK    1  A    between atoms: C_1  and  N_2
REMARK    2  A    between atoms: N_2  and  S_3
REMARK    3  A    between atoms: S_3  and  C_6
REMARK    4  A    between atoms: C_8  and  N_9
REMARK    5  A    between atoms: N_12  and  C_13
REMARK    6  A    between atoms: C_17  and  C_18
REMARK    7  A    between atoms: C_18  and  C_19
REMARK    8  A    between atoms: C_18  and  S_20
REMARK    9  A    between atoms: S_20  and  C_21
REMARK   10  A    between atoms: N_25  and  C_26
REMARK   11  A    between atoms: C_30  and  C_31
REMARK                            x       y       z     vdW  Elec       q    Type
REMARK                         _______ _______ _______ _____ _____    ______ ____
ROOT
ATOM      1  N   UNL     1       2.924   6.031  19.976  0.00  0.00    +0.000 N 
ATOM      2  C   UNL     1       2.184   7.202  19.937  0.00  0.00    +0.000 C 
ATOM      3  O   UNL     1       1.965   7.845  18.910  0.00  0.00    +0.000 OA
ATOM      4  N   UNL     1       1.727   7.623  21.180  0.00  0.00    +0.000 N 
ATOM      5  H   UNL     1       2.905   5.503  20.838  0.00  0.00    +0.000 HD
ATOM      6  H   UNL     1       2.353   7.433  21.948  0.00  0.00    +0.000 HD
ENDROOT
BRANCH   1   9
ATOM      7  C   UNL     1       5.603   5.113  17.477  0.00  0.00    +0.000 A 
ATOM      8  C   UNL     1       4.943   5.709  18.569  0.00  0.00    +0.000 A 
ATOM      9  C   UNL     1       3.602   5.449  18.867  0.00  0.00    +0.000 A 
ATOM     10  C   UNL     1       2.922   4.553  18.042  0.00  0.00    +0.000 A 
ATOM     11  C   UNL     1       3.573   3.946  16.951  0.00  0.00    +0.000 A 
ATOM     12  C   UNL     1       4.919   4.213  16.646  0.00  0.00    +0.000 A 
ATOM     13  C   UNL     1       5.559   3.503  15.489  0.00  0.00    +0.000 C 
BRANCH   7  14
ATOM     14  S   UNL     1       7.332   5.532  17.295  0.00  0.00    +0.000 S 
ATOM     15  O   UNL     1       7.595   6.030  15.965  0.00  0.00    +0.000 OA
ATOM     16  O   UNL     1       8.089   4.434  17.852  0.00  0.00    +0.000 OA
BRANCH  14  18
ATOM     17  C   UNL     1       7.891   8.127  17.790  0.00  0.00    +0.000 C 
ATOM     18  N   UNL     1       7.506   6.839  18.354  0.00  0.00    +0.000 NA
ATOM     19  H   UNL     1       6.789   6.849  19.082  0.00  0.00    +0.000 HD
ENDBRANCH  14  18
ENDBRANCH   7  14
ENDBRANCH   1   9
BRANCH   4  20
ATOM     20  C   UNL     1       1.001   8.845  21.255  0.00  0.00    +0.000 A 
ATOM     21  C   UNL     1       0.542   9.336  22.487  0.00  0.00    +0.000 A 
ATOM     22  C   UNL     1      -0.248  10.479  22.543  0.00  0.00    +0.000 A 
ATOM     23  C   UNL     1      -0.591  11.147  21.370  0.00  0.00    +0.000 A 
ATOM     24  C   UNL     1      -0.138  10.684  20.126  0.00  0.00    +0.000 A 
ATOM     25  C   UNL     1       0.681   9.535  20.082  0.00  0.00    +0.000 A 
BRANCH  24  26
ATOM     26  C   UNL     1      -0.571  11.422  18.870  0.00  0.00    +0.000 C 
ATOM     27  C   UNL     1       0.135  12.778  18.766  0.00  0.00    +0.000 C 
BRANCH  26  28
ATOM     28  S   UNL     1      -2.380  11.682  18.808  0.00  0.00    +0.000 S 
BRANCH  28  29
ATOM     29  C   UNL     1      -2.788  10.987  17.279  0.00  0.00    +0.000 A 
ATOM     30  N   UNL     1      -2.039  10.213  16.527  0.00  0.00    +0.000 NA
ATOM     31  N   UNL     1      -2.752   9.921  15.383  0.00  0.00    +0.000 NA
ATOM     32  C   UNL     1      -3.909  10.537  15.470  0.00  0.00    +0.000 A 
ATOM     33  N   UNL     1      -3.981  11.208  16.653  0.00  0.00    +0.000 N 
ATOM     34  C   UNL     1      -5.108  11.972  17.115  0.00  0.00    +0.000 C 
ENDBRANCH  28  29
ENDBRANCH  26  28
ENDBRANCH  24  26
ENDBRANCH   4  20
TORSDOF 7
ENDMDL
MODEL 2
REMARK VINA RESULT:      -9.0      3.471      9.390
REMARK  Name = 
REMARK  11 active torsions:
REMARK  status: ('A' for Active; 'I' for Inactive)
REMARK    1  A    between atoms: C_1  and  N_2
REMARK    2  A    between atoms: N_2  and  S_3
REMARK    3  A    between atoms: S_3  and  C_6
REMARK    4  A    between atoms: C_8  and  N_9
REMARK    5  A    between atoms: N_12  and  C_13
REMARK    6  A    between atoms: C_17  and  C_18
REMARK    7  A    between atoms: C_18  and  C_19
REMARK    8  A    between atoms: C_18  and  S_20
REMARK    9  A    between atoms: S_20  and  C_21
REMARK   10  A    between atoms: N_25  and  C_26
REMARK   11  A    between atoms: C_30  and  C_31
REMARK                            x       y       z     vdW  Elec       q    Type
REMARK                         _______ _______ _______ _____ _____    ______ ____
ROOT
ATOM      1  N   UNL     1       1.480   8.366  21.657  0.00  0.00    +0.000 N 
ATOM      2  C   UNL     1       1.707   7.711  20.457  0.00  0.00    +0.000 C 
ATOM      3  O   UNL     1       1.298   8.111  19.366  0.00  0.00    +0.000 OA
ATOM      4  N   UNL     1       2.417   6.524  20.586  0.00  0.00    +0.000 N 
ATOM      5  H   UNL     1       1.994   8.039  22.464  0.00  0.00    +0.000 HD
ATOM      6  H   UNL     1       2.225   6.005  21.430  0.00  0.00    +0.000 HD
ENDROOT
BRANCH   1   9
ATOM      7  C   UNL     1      -0.145  11.723  21.060  0.00  0.00    +0.000 A 
ATOM      8  C   UNL     1       0.661  10.580  20.892  0.00  0.00    +0.000 A 
ATOM      9  C   UNL     1       0.682   9.534  21.819  0.00  0.00    +0.000 A 
ATOM     10  C   UNL     1      -0.145   9.649  22.936  0.00  0.00    +0.000 A 
ATOM     11  C   UNL     1      -0.961  10.784  23.112  0.00  0.00    +0.000 A 
ATOM     12  C   UNL     1      -0.976  11.840  22.184  0.00  0.00    +0.000 A 
ATOM     13  C   UNL     1      -1.895  13.002  22.417  0.00  0.00    +0.000 C 
BRANCH   7  14
ATOM     14  S   UNL     1      -0.070  12.924  19.737  0.00  0.00    +0.000 S 
ATOM     15  O   UNL     1       0.645  14.104  20.165  0.00  0.00    +0.000 OA
ATOM     16  O   UNL     1      -1.400  13.011  19.177  0.00  0.00    +0.000 OA
BRANCH  14  18
ATOM     17  C   UNL     1       2.239  12.675  18.359  0.00  0.00    +0.000 C 
ATOM     18  N   UNL     1       0.899  12.147  18.590  0.00  0.00    +0.000 NA
ATOM     19  H   UNL     1       0.803  11.130  18.623  0.00  0.00    +0.000 HD
ENDBRANCH  14  18
ENDBRANCH   7  14
ENDBRANCH   1   9
BRANCH   4  20
ATOM     20  C   UNL     1       2.657   5.749  19.416  0.00  0.00    +0.000 A 
ATOM     21  C   UNL     1       1.849   4.645  19.106  0.00  0.00    +0.000 A 
ATOM     22  C   UNL     1       2.146   3.835  18.015  0.00  0.00    +0.000 A 
ATOM     23  C   UNL     1       3.253   4.118  17.219  0.00  0.00    +0.000 A 
ATOM     24  C   UNL     1       4.073   5.221  17.501  0.00  0.00    +0.000 A 
ATOM     25  C   UNL     1       3.750   6.049  18.598  0.00  0.00    +0.000 A 
BRANCH  24  26
ATOM     26  C   UNL     1       5.294   5.467  16.630  0.00  0.00    +0.000 C 
ATOM     27  C   UNL     1       5.011   6.560  15.594  0.00  0.00    +0.000 C 
BRANCH  26  28
ATOM     28  S   UNL     1       5.844   3.951  15.766  0.00  0.00    +0.000 S 
BRANCH  28  29
ATOM     29  C   UNL     1       6.831   4.599  14.504  0.00  0.00    +0.000 A 
ATOM     30  N   UNL     1       7.808   5.470  14.620  0.00  0.00    +0.000 NA
ATOM     31  N   UNL     1       8.294   5.727  13.355  0.00  0.00    +0.000 NA
ATOM     32  C   UNL     1       7.589   5.013  12.507  0.00  0.00    +0.000 A 
ATOM     33  N   UNL     1       6.666   4.277  13.187  0.00  0.00    +0.000 N 
ATOM     34  C   UNL     1       5.735   3.352  12.600  0.00  0.00    +0.000 C 
ENDBRANCH  28  29
ENDBRANCH  26  28
ENDBRANCH  24  26
ENDBRANCH   4  20
TORSDOF 7
ENDMDL
MODEL 3
REMARK VINA RESULT:      -8.8      3.101      9.531
REMARK  Name = 
REMARK  11 active torsions:
REMARK  status: ('A' for Active; 'I' for Inactive)
REMARK    1  A    between atoms: C_1  and  N_2
REMARK    2  A    between atoms: N_2  and  S_3
REMARK    3  A    between atoms: S_3  and  C_6
REMARK    4  A    between atoms: C_8  and  N_9
REMARK    5  A    between atoms: N_12  and  C_13
REMARK    6  A    between atoms: C_17  and  C_18
REMARK    7  A    between atoms: C_18  and  C_19
REMARK    8  A    between atoms: C_18  and  S_20
REMARK    9  A    between atoms: S_20  and  C_21
REMARK   10  A    between atoms: N_25  and  C_26
REMARK   11  A    between atoms: C_30  and  C_31
REMARK                            x       y       z     vdW  Elec       q    Type
REMARK                         _______ _______ _______ _____ _____    ______ ____
ROOT
ATOM      1  N   UNL     1       1.603   8.383  21.707  0.00  0.00    +0.000 N 
ATOM      2  C   UNL     1       1.776   7.740  20.492  0.00  0.00    +0.000 C 
ATOM      3  O   UNL     1       1.294   8.134  19.430  0.00  0.00    +0.000 OA
ATOM      4  N   UNL     1       2.523   6.571  20.572  0.00  0.00    +0.000 N 
ATOM      5  H   UNL     1       2.172   8.066  22.481  0.00  0.00    +0.000 HD
ATOM      6  H   UNL     1       2.394   6.043  21.423  0.00  0.00    +0.000 HD
ENDROOT
BRANCH   1   9
ATOM      7  C   UNL     1       0.036  11.802  21.352  0.00  0.00    +0.000 A 
ATOM      8  C   UNL     1       0.862  10.681  21.134  0.00  0.00    +0.000 A 
ATOM      9  C   UNL     1       0.786   9.529  21.923  0.00  0.00    +0.000 A 
ATOM     10  C   UNL     1      -0.159   9.514  22.948  0.00  0.00    +0.000 A 
ATOM     11  C   UNL     1      -0.996  10.625  23.171  0.00  0.00    +0.000 A 
ATOM     12  C   UNL     1      -0.914  11.787  22.383  0.00  0.00    +0.000 A 
ATOM     13  C   UNL     1      -1.860  12.920  22.655  0.00  0.00    +0.000 C 
BRANCH   7  14
ATOM     14  S   UNL     1       0.250  13.155  20.202  0.00  0.00    +0.000 S 
ATOM     15  O   UNL     1       1.230  12.815  19.197  0.00  0.00    +0.000 OA
ATOM     16  O   UNL     1       0.368  14.359  20.992  0.00  0.00    +0.000 OA
BRANCH  14  18
ATOM     17  C   UNL     1      -1.704  12.027  18.717  0.00  0.00    +0.000 C 
ATOM     18  N   UNL     1      -1.252  13.218  19.426  0.00  0.00    +0.000 NA
ATOM     19  H   UNL     1      -1.952  13.724  19.973  0.00  0.00    +0.000 HD
ENDBRANCH  14  18
ENDBRANCH   7  14
ENDBRANCH   1   9
BRANCH   4  20
ATOM     20  C   UNL     1       2.714   5.808  19.386  0.00  0.00    +0.000 A 
ATOM     21  C   UNL     1       1.864   4.736  19.075  0.00  0.00    +0.000 A 
ATOM     22  C   UNL     1       2.113   3.935  17.965  0.00  0.00    +0.000 A 
ATOM     23  C   UNL     1       3.212   4.195  17.152  0.00  0.00    +0.000 A 
ATOM     24  C   UNL     1       4.073   5.266  17.434  0.00  0.00    +0.000 A 
ATOM     25  C   UNL     1       3.800   6.086  18.550  0.00  0.00    +0.000 A 
BRANCH  24  26
ATOM     26  C   UNL     1       5.283   5.487  16.541  0.00  0.00    +0.000 C 
ATOM     27  C   UNL     1       5.037   6.645  15.568  0.00  0.00    +0.000 C 
BRANCH  26  28
ATOM     28  S   UNL     1       5.724   3.988  15.590  0.00  0.00    +0.000 S 
BRANCH  28  29
ATOM     29  C   UNL     1       6.822   4.622  14.416  0.00  0.00    +0.000 A 
ATOM     30  N   UNL     1       7.781   5.499  14.609  0.00  0.00    +0.000 NA
ATOM     31  N   UNL     1       8.383   5.739  13.392  0.00  0.00    +0.000 NA
ATOM     32  C   UNL     1       7.764   5.008  12.493  0.00  0.00    +0.000 A 
ATOM     33  N   UNL     1       6.783   4.278  13.095  0.00  0.00    +0.000 N 
ATOM     34  C   UNL     1       5.916   3.338  12.438  0.00  0.00    +0.000 C 
ENDBRANCH  28  29
ENDBRANCH  26  28
ENDBRANCH  24  26
ENDBRANCH   4  20
TORSDOF 7
ENDMDL
MODEL 4
REMARK VINA RESULT:      -8.7      5.788      9.131
REMARK  Name = 
REMARK  11 active torsions:
REMARK  status: ('A' for Active; 'I' for Inactive)
REMARK    1  A    between atoms: C_1  and  N_2
REMARK    2  A    between atoms: N_2  and  S_3
REMARK    3  A    between atoms: S_3  and  C_6
REMARK    4  A    between atoms: C_8  and  N_9
REMARK    5  A    between atoms: N_12  and  C_13
REMARK    6  A    between atoms: C_17  and  C_18
REMARK    7  A    between atoms: C_18  and  C_19
REMARK    8  A    between atoms: C_18  and  S_20
REMARK    9  A    between atoms: S_20  and  C_21
REMARK   10  A    between atoms: N_25  and  C_26
REMARK   11  A    between atoms: C_30  and  C_31
REMARK                            x       y       z     vdW  Elec       q    Type
REMARK                         _______ _______ _______ _____ _____    ______ ____
ROOT
ATOM      1  N   UNL     1       8.969   8.751  19.016  0.00  0.00    +0.000 N 
ATOM      2  C   UNL     1       8.056   8.096  18.205  0.00  0.00    +0.000 C 
ATOM      3  O   UNL     1       7.396   8.650  17.325  0.00  0.00    +0.000 OA
ATOM      4  N   UNL     1       7.914   6.744  18.490  0.00  0.00    +0.000 N 
ATOM      5  H   UNL     1       9.570   8.175  19.591  0.00  0.00    +0.000 HD
ATOM      6  H   UNL     1       8.002   6.506  19.467  0.00  0.00    +0.000 HD
ENDROOT
BRANCH   1   9
ATOM      7  C   UNL     1       9.270  12.354  20.111  0.00  0.00    +0.000 A 
ATOM      8  C   UNL     1       9.007  10.970  20.127  0.00  0.00    +0.000 A 
ATOM      9  C   UNL     1       9.217  10.153  19.011  0.00  0.00    +0.000 A 
ATOM     10  C   UNL     1       9.717  10.758  17.858  0.00  0.00    +0.000 A 
ATOM     11  C   UNL     1       9.992  12.138  17.832  0.00  0.00    +0.000 A 
ATOM     12  C   UNL     1       9.773  12.961  18.951  0.00  0.00    +0.000 A 
ATOM     13  C   UNL     1      10.120  14.419  18.863  0.00  0.00    +0.000 C 
BRANCH   7  14
ATOM     14  S   UNL     1       8.987  13.213  21.653  0.00  0.00    +0.000 S 
ATOM     15  O   UNL     1       7.657  13.776  21.682  0.00  0.00    +0.000 OA
ATOM     16  O   UNL     1      10.155  14.028  21.898  0.00  0.00    +0.000 OA
BRANCH  14  18
ATOM     17  C   UNL     1       7.864  11.806  23.666  0.00  0.00    +0.000 C 
ATOM     18  N   UNL     1       9.016  11.957  22.785  0.00  0.00    +0.000 NA
ATOM     19  H   UNL     1       9.422  11.099  22.405  0.00  0.00    +0.000 HD
ENDBRANCH  14  18
ENDBRANCH   7  14
ENDBRANCH   1   9
BRANCH   4  20
ATOM     20  C   UNL     1       6.961   5.993  17.747  0.00  0.00    +0.000 A 
ATOM     21  C   UNL     1       7.345   5.269  16.608  0.00  0.00    +0.000 A 
ATOM     22  C   UNL     1       6.394   4.614  15.831  0.00  0.00    +0.000 A 
ATOM     23  C   UNL     1       5.048   4.674  16.183  0.00  0.00    +0.000 A 
ATOM     24  C   UNL     1       4.637   5.383  17.322  0.00  0.00    +0.000 A 
ATOM     25  C   UNL     1       5.612   6.025  18.114  0.00  0.00    +0.000 A 
BRANCH  24  26
ATOM     26  C   UNL     1       3.153   5.454  17.643  0.00  0.00    +0.000 C 
ATOM     27  C   UNL     1       2.920   6.178  18.974  0.00  0.00    +0.000 C 
BRANCH  26  28
ATOM     28  S   UNL     1       2.381   3.798  17.718  0.00  0.00    +0.000 S 
BRANCH  28  29
ATOM     29  C   UNL     1       3.161   3.104  19.095  0.00  0.00    +0.000 A 
ATOM     30  N   UNL     1       4.391   2.650  19.173  0.00  0.00    +0.000 NA
ATOM     31  N   UNL     1       4.577   2.157  20.448  0.00  0.00    +0.000 NA
ATOM     32  C   UNL     1       3.449   2.315  21.102  0.00  0.00    +0.000 A 
ATOM     33  N   UNL     1       2.534   2.920  20.294  0.00  0.00    +0.000 N 
ATOM     34  C   UNL     1       1.195   3.284  20.671  0.00  0.00    +0.000 C 
ENDBRANCH  28  29
ENDBRANCH  26  28
ENDBRANCH  24  26
ENDBRANCH   4  20
TORSDOF 7
ENDMDL
MODEL 5
REMARK VINA RESULT:      -8.6      2.709      3.612
REMARK  Name = 
REMARK  11 active torsions:
REMARK  status: ('A' for Active; 'I' for Inactive)
REMARK    1  A    between atoms: C_1  and  N_2
REMARK    2  A    between atoms: N_2  and  S_3
REMARK    3  A    between atoms: S_3  and  C_6
REMARK    4  A    between atoms: C_8  and  N_9
REMARK    5  A    between atoms: N_12  and  C_13
REMARK    6  A    between atoms: C_17  and  C_18
REMARK    7  A    between atoms: C_18  and  C_19
REMARK    8  A    between atoms: C_18  and  S_20
REMARK    9  A    between atoms: S_20  and  C_21
REMARK   10  A    between atoms: N_25  and  C_26
REMARK   11  A    between atoms: C_30  and  C_31
REMARK                            x       y       z     vdW  Elec       q    Type
REMARK                         _______ _______ _______ _____ _____    ______ ____
ROOT
ATOM      1  N   UNL     1       2.730   5.987  20.188  0.00  0.00    +0.000 N 
ATOM      2  C   UNL     1       2.058   7.198  20.214  0.00  0.00    +0.000 C 
ATOM      3  O   UNL     1       1.972   7.958  19.248  0.00  0.00    +0.000 OA
ATOM      4  N   UNL     1       1.506   7.512  21.449  0.00  0.00    +0.000 N 
ATOM      5  H   UNL     1       2.602   5.372  20.981  0.00  0.00    +0.000 HD
ATOM      6  H   UNL     1       2.045   7.203  22.245  0.00  0.00    +0.000 HD
ENDROOT
BRANCH   1   9
ATOM      7  C   UNL     1       5.592   5.151  17.868  0.00  0.00    +0.000 A 
ATOM      8  C   UNL     1       4.861   5.667  18.957  0.00  0.00    +0.000 A 
ATOM      9  C   UNL     1       3.481   5.485  19.087  0.00  0.00    +0.000 A 
ATOM     10  C   UNL     1       2.833   4.751  18.093  0.00  0.00    +0.000 A 
ATOM     11  C   UNL     1       3.554   4.224  17.004  0.00  0.00    +0.000 A 
ATOM     12  C   UNL     1       4.940   4.414  16.868  0.00  0.00    +0.000 A 
ATOM     13  C   UNL     1       5.650   3.795  15.700  0.00  0.00    +0.000 C 
BRANCH   7  14
ATOM     14  S   UNL     1       7.355   5.446  17.911  0.00  0.00    +0.000 S 
ATOM     15  O   UNL     1       8.063   4.378  17.244  0.00  0.00    +0.000 OA
ATOM     16  O   UNL     1       7.681   5.836  19.264  0.00  0.00    +0.000 OA
BRANCH  14  18
ATOM     17  C   UNL     1       7.889   8.075  17.602  0.00  0.00    +0.000 C 
ATOM     18  N   UNL     1       7.520   6.826  16.947  0.00  0.00    +0.000 NA
ATOM     19  H   UNL     1       7.970   6.624  16.051  0.00  0.00    +0.000 HD
ENDBRANCH  14  18
ENDBRANCH   7  14
ENDBRANCH   1   9
BRANCH   4  20
ATOM     20  C   UNL     1       0.839   8.761  21.593  0.00  0.00    +0.000 A 
ATOM     21  C   UNL     1       0.207   9.105  22.798  0.00  0.00    +0.000 A 
ATOM     22  C   UNL     1      -0.524  10.283  22.903  0.00  0.00    +0.000 A 
ATOM     23  C   UNL     1      -0.634  11.134  21.806  0.00  0.00    +0.000 A 
ATOM     24  C   UNL     1      -0.004  10.820  20.592  0.00  0.00    +0.000 A 
ATOM     25  C   UNL     1       0.753   9.632  20.503  0.00  0.00    +0.000 A 
BRANCH  24  26
ATOM     26  C   UNL     1      -0.186  11.758  19.410  0.00  0.00    +0.000 C 
ATOM     27  C   UNL     1      -0.831  11.026  18.229  0.00  0.00    +0.000 C 
BRANCH  26  28
ATOM     28  S   UNL     1       1.396  12.498  18.865  0.00  0.00    +0.000 S 
BRANCH  28  29
ATOM     29  C   UNL     1       1.754  13.573  20.170  0.00  0.00    +0.000 A 
ATOM     30  N   UNL     1       2.518  13.339  21.212  0.00  0.00    +0.000 NA
ATOM     31  N   UNL     1       2.493  14.462  22.013  0.00  0.00    +0.000 NA
ATOM     32  C   UNL     1       1.703  15.341  21.437  0.00  0.00    +0.000 A 
ATOM     33  N   UNL     1       1.227  14.829  20.267  0.00  0.00    +0.000 N 
ATOM     34  C   UNL     1       0.360  15.512  19.347  0.00  0.00    +0.000 C 
ENDBRANCH  28  29
ENDBRANCH  26  28
ENDBRANCH  24  26
ENDBRANCH   4  20
TORSDOF 7
ENDMDL
MODEL 6
REMARK VINA RESULT:      -8.4      5.808      9.194
REMARK  Name = 
REMARK  11 active torsions:
REMARK  status: ('A' for Active; 'I' for Inactive)
REMARK    1  A    between atoms: C_1  and  N_2
REMARK    2  A    between atoms: N_2  and  S_3
REMARK    3  A    between atoms: S_3  and  C_6
REMARK    4  A    between atoms: C_8  and  N_9
REMARK    5  A    between atoms: N_12  and  C_13
REMARK    6  A    between atoms: C_17  and  C_18
REMARK    7  A    between atoms: C_18  and  C_19
REMARK    8  A    between atoms: C_18  and  S_20
REMARK    9  A    between atoms: S_20  and  C_21
REMARK   10  A    between atoms: N_25  and  C_26
REMARK   11  A    between atoms: C_30  and  C_31
REMARK                            x       y       z     vdW  Elec       q    Type
REMARK                         _______ _______ _______ _____ _____    ______ ____
ROOT
ATOM      1  N   UNL     1       9.000   8.793  19.027  0.00  0.00    +0.000 N 
ATOM      2  C   UNL     1       8.087   8.154  18.203  0.00  0.00    +0.000 C 
ATOM      3  O   UNL     1       7.446   8.721  17.316  0.00  0.00    +0.000 OA
ATOM      4  N   UNL     1       7.921   6.804  18.482  0.00  0.00    +0.000 N 
ATOM      5  H   UNL     1       9.584   8.207  19.608  0.00  0.00    +0.000 HD
ATOM      6  H   UNL     1       7.992   6.562  19.459  0.00  0.00    +0.000 HD
ENDROOT
BRANCH   1   9
ATOM      7  C   UNL     1       9.368  12.383  20.144  0.00  0.00    +0.000 A 
ATOM      8  C   UNL     1       9.083  11.003  20.154  0.00  0.00    +0.000 A 
ATOM      9  C   UNL     1       9.268  10.191  19.030  0.00  0.00    +0.000 A 
ATOM     10  C   UNL     1       9.765  10.796  17.876  0.00  0.00    +0.000 A 
ATOM     11  C   UNL     1      10.061  12.173  17.856  0.00  0.00    +0.000 A 
ATOM     12  C   UNL     1       9.867  12.991  18.983  0.00  0.00    +0.000 A 
ATOM     13  C   UNL     1      10.235  14.443  18.902  0.00  0.00    +0.000 C 
BRANCH   7  14
ATOM     14  S   UNL     1       9.115  13.235  21.696  0.00  0.00    +0.000 S 
ATOM     15  O   UNL     1      10.171  14.194  21.924  0.00  0.00    +0.000 OA
ATOM     16  O   UNL     1       8.788  12.227  22.678  0.00  0.00    +0.000 OA
BRANCH  14  18
ATOM     17  C   UNL     1       7.656  15.501  21.862  0.00  0.00    +0.000 C 
ATOM     18  N   UNL     1       7.702  14.117  21.405  0.00  0.00    +0.000 NA
ATOM     19  H   UNL     1       7.303  13.921  20.485  0.00  0.00    +0.000 HD
ENDBRANCH  14  18
ENDBRANCH   7  14
ENDBRANCH   1   9
BRANCH   4  20
ATOM     20  C   UNL     1       6.966   6.069  17.725  0.00  0.00    +0.000 A 
ATOM     21  C   UNL     1       7.339   5.403  16.548  0.00  0.00    +0.000 A 
ATOM     22  C   UNL     1       6.385   4.767  15.761  0.00  0.00    +0.000 A 
ATOM     23  C   UNL     1       5.045   4.787  16.141  0.00  0.00    +0.000 A 
ATOM     24  C   UNL     1       4.645   5.437  17.318  0.00  0.00    +0.000 A 
ATOM     25  C   UNL     1       5.625   6.061  18.119  0.00  0.00    +0.000 A 
BRANCH  24  26
ATOM     26  C   UNL     1       3.167   5.468  17.670  0.00  0.00    +0.000 C 
ATOM     27  C   UNL     1       2.946   6.144  19.027  0.00  0.00    +0.000 C 
BRANCH  26  28
ATOM     28  S   UNL     1       2.429   3.795  17.707  0.00  0.00    +0.000 S 
BRANCH  28  29
ATOM     29  C   UNL     1       3.180   3.106  19.102  0.00  0.00    +0.000 A 
ATOM     30  N   UNL     1       4.413   2.667  19.213  0.00  0.00    +0.000 NA
ATOM     31  N   UNL     1       4.570   2.172  20.491  0.00  0.00    +0.000 NA
ATOM     32  C   UNL     1       3.423   2.315  21.115  0.00  0.00    +0.000 A 
ATOM     33  N   UNL     1       2.523   2.912  20.284  0.00  0.00    +0.000 N 
ATOM     34  C   UNL     1       1.171   3.260  20.626  0.00  0.00    +0.000 C 
ENDBRANCH  28  29
ENDBRANCH  26  28
ENDBRANCH  24  26
ENDBRANCH   4  20
TORSDOF 7
ENDMDL
MODEL 7
REMARK VINA RESULT:      -8.3      5.147      8.902
REMARK  Name = 
REMARK  11 active torsions:
REMARK  status: ('A' for Active; 'I' for Inactive)
REMARK    1  A    between atoms: C_1  and  N_2
REMARK    2  A    between atoms: N_2  and  S_3
REMARK    3  A    between atoms: S_3  and  C_6
REMARK    4  A    between atoms: C_8  and  N_9
REMARK    5  A    between atoms: N_12  and  C_13
REMARK    6  A    between atoms: C_17  and  C_18
REMARK    7  A    between atoms: C_18  and  C_19
REMARK    8  A    between atoms: C_18  and  S_20
REMARK    9  A    between atoms: S_20  and  C_21
REMARK   10  A    between atoms: N_25  and  C_26
REMARK   11  A    between atoms: C_30  and  C_31
REMARK                            x       y       z     vdW  Elec       q    Type
REMARK                         _______ _______ _______ _____ _____    ______ ____
ROOT
ATOM      1  N   UNL     1       9.169   9.003  18.946  0.00  0.00    +0.000 N 
ATOM      2  C   UNL     1       8.145   8.391  18.242  0.00  0.00    +0.000 C 
ATOM      3  O   UNL     1       7.344   8.995  17.526  0.00  0.00    +0.000 OA
ATOM      4  N   UNL     1       8.066   7.018  18.437  0.00  0.00    +0.000 N 
ATOM      5  H   UNL     1       9.861   8.399  19.370  0.00  0.00    +0.000 HD
ATOM      6  H   UNL     1       8.313   6.706  19.364  0.00  0.00    +0.000 HD
ENDROOT
BRANCH   1   9
ATOM      7  C   UNL     1       9.357  12.558  20.208  0.00  0.00    +0.000 A 
ATOM      8  C   UNL     1       9.113  11.172  20.151  0.00  0.00    +0.000 A 
ATOM      9  C   UNL     1       9.396  10.406  19.016  0.00  0.00    +0.000 A 
ATOM     10  C   UNL     1       9.951  11.066  17.919  0.00  0.00    +0.000 A 
ATOM     11  C   UNL     1      10.207  12.450  17.967  0.00  0.00    +0.000 A 
ATOM     12  C   UNL     1       9.915  13.221  19.105  0.00  0.00    +0.000 A 
ATOM     13  C   UNL     1      10.245  14.685  19.100  0.00  0.00    +0.000 C 
BRANCH   7  14
ATOM     14  S   UNL     1       8.977  13.347  21.768  0.00  0.00    +0.000 S 
ATOM     15  O   UNL     1       7.634  13.879  21.751  0.00  0.00    +0.000 OA
ATOM     16  O   UNL     1      10.112  14.176  22.105  0.00  0.00    +0.000 OA
BRANCH  14  18
ATOM     17  C   UNL     1       7.782  11.824  23.651  0.00  0.00    +0.000 C 
ATOM     18  N   UNL     1       8.979  12.046  22.848  0.00  0.00    +0.000 NA
ATOM     19  H   UNL     1       9.434  11.217  22.459  0.00  0.00    +0.000 HD
ENDBRANCH  14  18
ENDBRANCH   7  14
ENDBRANCH   1   9
BRANCH   4  20
ATOM     20  C   UNL     1       7.014   6.303  17.797  0.00  0.00    +0.000 A 
ATOM     21  C   UNL     1       7.282   5.422  16.739  0.00  0.00    +0.000 A 
ATOM     22  C   UNL     1       6.243   4.799  16.055  0.00  0.00    +0.000 A 
ATOM     23  C   UNL     1       4.922   5.048  16.421  0.00  0.00    +0.000 A 
ATOM     24  C   UNL     1       4.626   5.917  17.482  0.00  0.00    +0.000 A 
ATOM     25  C   UNL     1       5.689   6.526  18.182  0.00  0.00    +0.000 A 
BRANCH  24  26
ATOM     26  C   UNL     1       3.169   6.189  17.819  0.00  0.00    +0.000 C 
ATOM     27  C   UNL     1       2.883   7.695  17.813  0.00  0.00    +0.000 C 
BRANCH  26  28
ATOM     28  S   UNL     1       2.693   5.496  19.443  0.00  0.00    +0.000 S 
BRANCH  28  29
ATOM     29  C   UNL     1       2.121   3.925  19.005  0.00  0.00    +0.000 A 
ATOM     30  N   UNL     1       1.050   3.631  18.302  0.00  0.00    +0.000 NA
ATOM     31  N   UNL     1       0.963   2.256  18.225  0.00  0.00    +0.000 NA
ATOM     32  C   UNL     1       1.978   1.756  18.893  0.00  0.00    +0.000 A 
ATOM     33  N   UNL     1       2.741   2.771  19.390  0.00  0.00    +0.000 N 
ATOM     34  C   UNL     1       3.952   2.613  20.148  0.00  0.00    +0.000 C 
ENDBRANCH  28  29
ENDBRANCH  26  28
ENDBRANCH  24  26
ENDBRANCH   4  20
TORSDOF 7
ENDMDL
MODEL 8
REMARK VINA RESULT:      -8.3      3.701      9.351
REMARK  Name = 
REMARK  11 active torsions:
REMARK  status: ('A' for Active; 'I' for Inactive)
REMARK    1  A    between atoms: C_1  and  N_2
REMARK    2  A    between atoms: N_2  and  S_3
REMARK    3  A    between atoms: S_3  and  C_6
REMARK    4  A    between atoms: C_8  and  N_9
REMARK    5  A    between atoms: N_12  and  C_13
REMARK    6  A    between atoms: C_17  and  C_18
REMARK    7  A    between atoms: C_18  and  C_19
REMARK    8  A    between atoms: C_18  and  S_20
REMARK    9  A    between atoms: S_20  and  C_21
REMARK   10  A    between atoms: N_25  and  C_26
REMARK   11  A    between atoms: C_30  and  C_31
REMARK                            x       y       z     vdW  Elec       q    Type
REMARK                         _______ _______ _______ _____ _____    ______ ____
ROOT
ATOM      1  N   UNL     1       1.700   8.040  21.553  0.00  0.00    +0.000 N 
ATOM      2  C   UNL     1       1.843   7.394  20.336  0.00  0.00    +0.000 C 
ATOM      3  O   UNL     1       1.391   7.820  19.273  0.00  0.00    +0.000 OA
ATOM      4  N   UNL     1       2.520   6.183  20.415  0.00  0.00    +0.000 N 
ATOM      5  H   UNL     1       2.244   7.686  22.329  0.00  0.00    +0.000 HD
ATOM      6  H   UNL     1       2.355   5.659  21.261  0.00  0.00    +0.000 HD
ENDROOT
BRANCH   1   9
ATOM      7  C   UNL     1       0.250  11.503  21.138  0.00  0.00    +0.000 A 
ATOM      8  C   UNL     1       1.010  10.337  20.918  0.00  0.00    +0.000 A 
ATOM      9  C   UNL     1       0.950   9.231  21.770  0.00  0.00    +0.000 A 
ATOM     10  C   UNL     1       0.089   9.309  22.864  0.00  0.00    +0.000 A 
ATOM     11  C   UNL     1      -0.681  10.466  23.091  0.00  0.00    +0.000 A 
ATOM     12  C   UNL     1      -0.615  11.582  22.239  0.00  0.00    +0.000 A 
ATOM     13  C   UNL     1      -1.490  12.768  22.522  0.00  0.00    +0.000 C 
BRANCH   7  14
ATOM     14  S   UNL     1       0.427  12.786  19.905  0.00  0.00    +0.000 S 
ATOM     15  O   UNL     1      -0.866  13.313  19.535  0.00  0.00    +0.000 OA
ATOM     16  O   UNL     1       1.349  12.287  18.911  0.00  0.00    +0.000 OA
BRANCH  14  18
ATOM     17  C   UNL     1       0.608  15.323  20.815  0.00  0.00    +0.000 C 
ATOM     18  N   UNL     1       1.232  14.006  20.757  0.00  0.00    +0.000 NA
ATOM     19  H   UNL     1       1.663  13.661  21.617  0.00  0.00    +0.000 HD
ENDBRANCH  14  18
ENDBRANCH   7  14
ENDBRANCH   1   9
BRANCH   4  20
ATOM     20  C   UNL     1       2.674   5.416  19.226  0.00  0.00    +0.000 A 
ATOM     21  C   UNL     1       1.808   4.349  18.940  0.00  0.00    +0.000 A 
ATOM     22  C   UNL     1       2.021   3.544  17.826  0.00  0.00    +0.000 A 
ATOM     23  C   UNL     1       3.101   3.794  16.983  0.00  0.00    +0.000 A 
ATOM     24  C   UNL     1       3.976   4.859  17.239  0.00  0.00    +0.000 A 
ATOM     25  C   UNL     1       3.739   5.683  18.360  0.00  0.00    +0.000 A 
BRANCH  24  26
ATOM     26  C   UNL     1       5.164   5.069  16.315  0.00  0.00    +0.000 C 
ATOM     27  C   UNL     1       5.036   4.198  15.060  0.00  0.00    +0.000 C 
BRANCH  26  28
ATOM     28  S   UNL     1       6.756   4.702  17.138  0.00  0.00    +0.000 S 
BRANCH  28  29
ATOM     29  C   UNL     1       7.334   6.286  17.515  0.00  0.00    +0.000 A 
ATOM     30  N   UNL     1       7.321   7.348  16.741  0.00  0.00    +0.000 NA
ATOM     31  N   UNL     1       7.912   8.382  17.437  0.00  0.00    +0.000 NA
ATOM     32  C   UNL     1       8.277   7.914  18.609  0.00  0.00    +0.000 A 
ATOM     33  N   UNL     1       7.920   6.603  18.707  0.00  0.00    +0.000 N 
ATOM     34  C   UNL     1       8.126   5.764  19.856  0.00  0.00    +0.000 C 
ENDBRANCH  28  29
ENDBRANCH  26  28
ENDBRANCH  24  26
ENDBRANCH   4  20
TORSDOF 7
ENDMDL
MODEL 9
REMARK VINA RESULT:      -8.3      2.977      3.877
REMARK  Name = 
REMARK  11 active torsions:
REMARK  status: ('A' for Active; 'I' for Inactive)
REMARK    1  A    between atoms: C_1  and  N_2
REMARK    2  A    between atoms: N_2  and  S_3
REMARK    3  A    between atoms: S_3  and  C_6
REMARK    4  A    between atoms: C_8  and  N_9
REMARK    5  A    between atoms: N_12  and  C_13
REMARK    6  A    between atoms: C_17  and  C_18
REMARK    7  A    between atoms: C_18  and  C_19
REMARK    8  A    between atoms: C_18  and  S_20
REMARK    9  A    between atoms: S_20  and  C_21
REMARK   10  A    between atoms: N_25  and  C_26
REMARK   11  A    between atoms: C_30  and  C_31
REMARK                            x       y       z     vdW  Elec       q    Type
REMARK                         _______ _______ _______ _____ _____    ______ ____
ROOT
ATOM      1  N   UNL     1       2.934   5.924  19.956  0.00  0.00    +0.000 N 
ATOM      2  C   UNL     1       2.234   7.119  19.943  0.00  0.00    +0.000 C 
ATOM      3  O   UNL     1       2.048   7.798  18.932  0.00  0.00    +0.000 OA
ATOM      4  N   UNL     1       1.780   7.522  21.193  0.00  0.00    +0.000 N 
ATOM      5  H   UNL     1       2.889   5.373  20.803  0.00  0.00    +0.000 HD
ATOM      6  H   UNL     1       2.390   7.288  21.962  0.00  0.00    +0.000 HD
ENDROOT
BRANCH   1   9
ATOM      7  C   UNL     1       5.582   5.055  17.407  0.00  0.00    +0.000 A 
ATOM      8  C   UNL     1       4.930   5.643  18.508  0.00  0.00    +0.000 A 
ATOM      9  C   UNL     1       3.603   5.350  18.838  0.00  0.00    +0.000 A 
ATOM     10  C   UNL     1       2.931   4.428  18.036  0.00  0.00    +0.000 A 
ATOM     11  C   UNL     1       3.575   3.828  16.937  0.00  0.00    +0.000 A 
ATOM     12  C   UNL     1       4.906   4.129  16.599  0.00  0.00    +0.000 A 
ATOM     13  C   UNL     1       5.540   3.426  15.435  0.00  0.00    +0.000 C 
BRANCH   7  14
ATOM     14  S   UNL     1       7.295   5.521  17.183  0.00  0.00    +0.000 S 
ATOM     15  O   UNL     1       7.464   6.245  15.945  0.00  0.00    +0.000 OA
ATOM     16  O   UNL     1       8.089   4.352  17.487  0.00  0.00    +0.000 OA
BRANCH  14  18
ATOM     17  C   UNL     1       8.109   7.926  18.101  0.00  0.00    +0.000 C 
ATOM     18  N   UNL     1       7.542   6.626  18.439  0.00  0.00    +0.000 NA
ATOM     19  H   UNL     1       6.782   6.617  19.122  0.00  0.00    +0.000 HD
ENDBRANCH  14  18
ENDBRANCH   7  14
ENDBRANCH   1   9
BRANCH   4  20
ATOM     20  C   UNL     1       1.094   8.765  21.295  0.00  0.00    +0.000 A 
ATOM     21  C   UNL     1       0.232   9.025  22.371  0.00  0.00    +0.000 A 
ATOM     22  C   UNL     1      -0.508  10.202  22.416  0.00  0.00    +0.000 A 
ATOM     23  C   UNL     1      -0.397  11.134  21.388  0.00  0.00    +0.000 A 
ATOM     24  C   UNL     1       0.465  10.904  20.305  0.00  0.00    +0.000 A 
ATOM     25  C   UNL     1       1.227   9.716  20.280  0.00  0.00    +0.000 A 
BRANCH  24  26
ATOM     26  C   UNL     1       0.523  11.931  19.185  0.00  0.00    +0.000 C 
ATOM     27  C   UNL     1       1.827  11.796  18.392  0.00  0.00    +0.000 C 
BRANCH  26  28
ATOM     28  S   UNL     1       0.375  13.644  19.809  0.00  0.00    +0.000 S 
BRANCH  28  29
ATOM     29  C   UNL     1       1.967  13.941  20.412  0.00  0.00    +0.000 A 
ATOM     30  N   UNL     1       2.517  13.445  21.497  0.00  0.00    +0.000 NA
ATOM     31  N   UNL     1       3.784  13.978  21.607  0.00  0.00    +0.000 NA
ATOM     32  C   UNL     1       3.961  14.793  20.592  0.00  0.00    +0.000 A 
ATOM     33  N   UNL     1       2.848  14.790  19.806  0.00  0.00    +0.000 N 
ATOM     34  C   UNL     1       2.683  15.534  18.587  0.00  0.00    +0.000 C 
ENDBRANCH  28  29
ENDBRANCH  26  28
ENDBRANCH  24  26
ENDBRANCH   4  20
TORSDOF 7
ENDMDL
