MODEL 1
REMARK VINA RESULT:      -8.1      0.000      0.000
REMARK  Name = 
REMARK  7 active torsions:
REMARK  status: ('A' for Active; 'I' for Inactive)
REMARK    1  A    between atoms: C_1  and  C_2
REMARK    2  A    between atoms: N_10  and  C_11
REMARK    3  A    between atoms: C_15  and  C_16
REMARK    4  A    between atoms: C_16  and  C_17
REMARK    5  A    between atoms: C_16  and  S_18
REMARK    6  A    between atoms: S_18  and  C_19
REMARK    7  A    between atoms: N_23  and  C_24
REMARK                            x       y       z     vdW  Elec       q    Type
REMARK                         _______ _______ _______ _____ _____    ______ ____
ROOT
ATOM      1  C   UNL     1       2.571   5.635  18.301  0.00  0.00    +0.000 A 
ATOM      2  C   UNL     1       1.932   4.395  18.273  0.00  0.00    +0.000 A 
ATOM      3  C   UNL     1       2.463   3.328  17.549  0.00  0.00    +0.000 A 
ATOM      4  C   UNL     1       3.638   3.495  16.824  0.00  0.00    +0.000 A 
ATOM      5  C   UNL     1       4.297   4.734  16.805  0.00  0.00    +0.000 A 
ATOM      6  C   UNL     1       3.741   5.804  17.542  0.00  0.00    +0.000 A 
ENDROOT
BRANCH   1  16
ATOM      7  C   UNL     1      -1.266  11.461  22.959  0.00  0.00    +0.000 C 
ATOM      8  C   UNL     1      -1.120  11.608  21.468  0.00  0.00    +0.000 C 
ATOM      9  O   UNL     1      -1.548  12.614  20.904  0.00  0.00    +0.000 OA
ATOM     10  N   UNL     1      -0.437  10.608  20.799  0.00  0.00    +0.000 N 
ATOM     11  C   UNL     1      -0.186  10.763  19.360  0.00  0.00    +0.000 C 
ATOM     12  C   UNL     1       1.242  10.331  19.012  0.00  0.00    +0.000 C 
ATOM     13  N   UNL     1       1.508   8.969  19.504  0.00  0.00    +0.000 N 
ATOM     14  C   UNL     1       1.896   8.013  18.579  0.00  0.00    +0.000 C 
ATOM     15  O   UNL     1       2.045   8.327  17.400  0.00  0.00    +0.000 OA
ATOM     16  N   UNL     1       2.086   6.734  19.060  0.00  0.00    +0.000 N 
ATOM     17  C   UNL     1       1.298   8.822  20.949  0.00  0.00    +0.000 C 
ATOM     18  C   UNL     1      -0.120   9.276  21.341  0.00  0.00    +0.000 C 
ATOM     19  H   UNL     1       1.624   6.491  19.919  0.00  0.00    +0.000 HD
ENDBRANCH   1  16
BRANCH   5  20
ATOM     20  C   UNL     1       5.582   4.928  16.013  0.00  0.00    +0.000 C 
ATOM     21  C   UNL     1       5.650   3.944  14.837  0.00  0.00    +0.000 C 
BRANCH  20  22
ATOM     22  S   UNL     1       7.094   4.661  17.009  0.00  0.00    +0.000 S 
BRANCH  22  23
ATOM     23  C   UNL     1       7.529   6.266  17.461  0.00  0.00    +0.000 A 
ATOM     24  N   UNL     1       7.505   7.343  16.712  0.00  0.00    +0.000 NA
ATOM     25  N   UNL     1       7.952   8.396  17.490  0.00  0.00    +0.000 NA
ATOM     26  C   UNL     1       8.238   7.917  18.684  0.00  0.00    +0.000 A 
ATOM     27  N   UNL     1       7.996   6.579  18.706  0.00  0.00    +0.000 N 
ATOM     28  C   UNL     1       8.199   5.698  19.824  0.00  0.00    +0.000 C 
ENDBRANCH  22  23
ENDBRANCH  20  22
ENDBRANCH   5  20
TORSDOF 4
ENDMDL
MODEL 2
REMARK VINA RESULT:      -8.0      2.036      2.922
REMARK  Name = 
REMARK  7 active torsions:
REMARK  status: ('A' for Active; 'I' for Inactive)
REMARK    1  A    between atoms: C_1  and  C_2
REMARK    2  A    between atoms: N_10  and  C_11
REMARK    3  A    between atoms: C_15  and  C_16
REMARK    4  A    between atoms: C_16  and  C_17
REMARK    5  A    between atoms: C_16  and  S_18
REMARK    6  A    between atoms: S_18  and  C_19
REMARK    7  A    between atoms: N_23  and  C_24
REMARK                            x       y       z     vdW  Elec       q    Type
REMARK                         _______ _______ _______ _____ _____    ______ ____
ROOT
ATOM      1  C   UNL     1       2.858   6.048  19.552  0.00  0.00    +0.000 A 
ATOM      2  C   UNL     1       2.626   4.742  19.984  0.00  0.00    +0.000 A 
ATOM      3  C   UNL     1       3.312   3.665  19.422  0.00  0.00    +0.000 A 
ATOM      4  C   UNL     1       4.231   3.881  18.401  0.00  0.00    +0.000 A 
ATOM      5  C   UNL     1       4.473   5.178  17.921  0.00  0.00    +0.000 A 
ATOM      6  C   UNL     1       3.766   6.255  18.501  0.00  0.00    +0.000 A 
ENDROOT
BRANCH   1  16
ATOM      7  C   UNL     1      -1.793  11.934  23.304  0.00  0.00    +0.000 C 
ATOM      8  C   UNL     1      -1.719  11.819  21.805  0.00  0.00    +0.000 C 
ATOM      9  O   UNL     1      -2.333  12.615  21.094  0.00  0.00    +0.000 OA
ATOM     10  N   UNL     1      -0.893  10.837  21.287  0.00  0.00    +0.000 N 
ATOM     11  C   UNL     1      -0.716  10.756  19.831  0.00  0.00    +0.000 C 
ATOM     12  C   UNL     1       0.755  10.508  19.479  0.00  0.00    +0.000 C 
ATOM     13  N   UNL     1       1.268   9.327  20.193  0.00  0.00    +0.000 N 
ATOM     14  C   UNL     1       1.789   8.290  19.435  0.00  0.00    +0.000 C 
ATOM     15  O   UNL     1       1.845   8.395  18.212  0.00  0.00    +0.000 OA
ATOM     16  N   UNL     1       2.212   7.175  20.128  0.00  0.00    +0.000 N 
ATOM     17  C   UNL     1       1.130   9.423  21.651  0.00  0.00    +0.000 C 
ATOM     18  C   UNL     1      -0.334   9.702  22.041  0.00  0.00    +0.000 C 
ATOM     19  H   UNL     1       1.825   7.025  21.043  0.00  0.00    +0.000 HD
ENDBRANCH   1  16
BRANCH   5  20
ATOM     20  C   UNL     1       5.476   5.425  16.802  0.00  0.00    +0.000 C 
ATOM     21  C   UNL     1       5.037   6.609  15.929  0.00  0.00    +0.000 C 
BRANCH  20  22
ATOM     22  S   UNL     1       5.677   3.992  15.681  0.00  0.00    +0.000 S 
BRANCH  22  23
ATOM     23  C   UNL     1       6.769   4.600  14.494  0.00  0.00    +0.000 A 
ATOM     24  N   UNL     1       7.763   5.438  14.675  0.00  0.00    +0.000 NA
ATOM     25  N   UNL     1       8.351   5.652  13.441  0.00  0.00    +0.000 NA
ATOM     26  C   UNL     1       7.689   4.937  12.553  0.00  0.00    +0.000 A 
ATOM     27  N   UNL     1       6.679   4.269  13.172  0.00  0.00    +0.000 N 
ATOM     28  C   UNL     1       5.725   3.398  12.540  0.00  0.00    +0.000 C 
ENDBRANCH  22  23
ENDBRANCH  20  22
ENDBRANCH   5  20
TORSDOF 4
ENDMDL
MODEL 3
REMARK VINA RESULT:      -7.7      2.040      3.063
REMARK  Name = 
REMARK  7 active torsions:
REMARK  status: ('A' for Active; 'I' for Inactive)
REMARK    1  A    between atoms: C_1  and  C_2
REMARK    2  A    between atoms: N_10  and  C_11
REMARK    3  A    between atoms: C_15  and  C_16
REMARK    4  A    between atoms: C_16  and  C_17
REMARK    5  A    between atoms: C_16  and  S_18
REMARK    6  A    between atoms: S_18  and  C_19
REMARK    7  A    between atoms: N_23  and  C_24
REMARK                            x       y       z     vdW  Elec       q    Type
REMARK                         _______ _______ _______ _____ _____    ______ ____
ROOT
ATOM      1  C   UNL     1       2.831   5.510  18.379  0.00  0.00    +0.000 A 
ATOM      2  C   UNL     1       2.060   4.418  17.980  0.00  0.00    +0.000 A 
ATOM      3  C   UNL     1       2.627   3.356  17.275  0.00  0.00    +0.000 A 
ATOM      4  C   UNL     1       3.976   3.382  16.943  0.00  0.00    +0.000 A 
ATOM      5  C   UNL     1       4.780   4.475  17.304  0.00  0.00    +0.000 A 
ATOM      6  C   UNL     1       4.187   5.542  18.015  0.00  0.00    +0.000 A 
ENDROOT
BRANCH   1  16
ATOM      7  C   UNL     1      -1.235  11.186  23.029  0.00  0.00    +0.000 C 
ATOM      8  C   UNL     1      -1.108  11.328  21.535  0.00  0.00    +0.000 C 
ATOM      9  O   UNL     1      -1.587  12.310  20.967  0.00  0.00    +0.000 OA
ATOM     10  N   UNL     1      -0.385  10.356  20.867  0.00  0.00    +0.000 N 
ATOM     11  C   UNL     1      -0.153  10.512  19.425  0.00  0.00    +0.000 C 
ATOM     12  C   UNL     1       1.291  10.144  19.068  0.00  0.00    +0.000 C 
ATOM     13  N   UNL     1       1.624   8.800  19.568  0.00  0.00    +0.000 N 
ATOM     14  C   UNL     1       2.048   7.855  18.646  0.00  0.00    +0.000 C 
ATOM     15  O   UNL     1       2.173   8.167  17.464  0.00  0.00    +0.000 OA
ATOM     16  N   UNL     1       2.301   6.590  19.135  0.00  0.00    +0.000 N 
ATOM     17  C   UNL     1       1.432   8.653  21.015  0.00  0.00    +0.000 C 
ATOM     18  C   UNL     1      -0.002   9.044  21.416  0.00  0.00    +0.000 C 
ATOM     19  H   UNL     1       1.858   6.332  19.999  0.00  0.00    +0.000 HD
ENDBRANCH   1  16
BRANCH   5  20
ATOM     20  C   UNL     1       6.259   4.515  16.943  0.00  0.00    +0.000 C 
ATOM     21  C   UNL     1       7.105   4.921  18.158  0.00  0.00    +0.000 C 
BRANCH  20  22
ATOM     22  S   UNL     1       6.646   5.707  15.610  0.00  0.00    +0.000 S 
BRANCH  22  23
ATOM     23  C   UNL     1       6.496   4.740  14.191  0.00  0.00    +0.000 A 
ATOM     24  N   UNL     1       5.623   3.789  13.960  0.00  0.00    +0.000 NA
ATOM     25  N   UNL     1       5.890   3.281  12.701  0.00  0.00    +0.000 NA
ATOM     26  C   UNL     1       6.922   3.942  12.215  0.00  0.00    +0.000 A 
ATOM     27  N   UNL     1       7.341   4.861  13.125  0.00  0.00    +0.000 N 
ATOM     28  C   UNL     1       8.449   5.765  12.971  0.00  0.00    +0.000 C 
ENDBRANCH  22  23
ENDBRANCH  20  22
ENDBRANCH   5  20
TORSDOF 4
ENDMDL
MODEL 4
REMARK VINA RESULT:      -7.5      2.783      3.945
REMARK  Name = 
REMARK  7 active torsions:
REMARK  status: ('A' for Active; 'I' for Inactive)
REMARK    1  A    between atoms: C_1  and  C_2
REMARK    2  A    between atoms: N_10  and  C_11
REMARK    3  A    between atoms: C_15  and  C_16
REMARK    4  A    between atoms: C_16  and  C_17
REMARK    5  A    between atoms: C_16  and  S_18
REMARK    6  A    between atoms: S_18  and  C_19
REMARK    7  A    between atoms: N_23  and  C_24
REMARK                            x       y       z     vdW  Elec       q    Type
REMARK                         _______ _______ _______ _____ _____    ______ ____
ROOT
ATOM      1  C   UNL     1       2.008   7.989  19.416  0.00  0.00    +0.000 A 
ATOM      2  C   UNL     1       1.549   7.555  20.660  0.00  0.00    +0.000 A 
ATOM      3  C   UNL     1       1.592   6.206  21.012  0.00  0.00    +0.000 A 
ATOM      4  C   UNL     1       2.080   5.266  20.111  0.00  0.00    +0.000 A 
ATOM      5  C   UNL     1       2.526   5.660  18.840  0.00  0.00    +0.000 A 
ATOM      6  C   UNL     1       2.472   7.030  18.500  0.00  0.00    +0.000 A 
ENDROOT
BRANCH   1  16
ATOM      7  C   UNL     1       2.894  16.213  18.025  0.00  0.00    +0.000 C 
ATOM      8  C   UNL     1       1.670  15.650  18.695  0.00  0.00    +0.000 C 
ATOM      9  O   UNL     1       0.754  16.399  19.034  0.00  0.00    +0.000 OA
ATOM     10  N   UNL     1       1.606  14.276  18.843  0.00  0.00    +0.000 N 
ATOM     11  C   UNL     1       0.385  13.679  19.401  0.00  0.00    +0.000 C 
ATOM     12  C   UNL     1      -0.005  12.420  18.620  0.00  0.00    +0.000 C 
ATOM     13  N   UNL     1       1.124  11.478  18.556  0.00  0.00    +0.000 N 
ATOM     14  C   UNL     1       0.929  10.201  19.060  0.00  0.00    +0.000 C 
ATOM     15  O   UNL     1      -0.171   9.880  19.504  0.00  0.00    +0.000 OA
ATOM     16  N   UNL     1       2.020   9.358  19.036  0.00  0.00    +0.000 N 
ATOM     17  C   UNL     1       2.333  12.059  17.961  0.00  0.00    +0.000 C 
ATOM     18  C   UNL     1       2.739  13.346  18.703  0.00  0.00    +0.000 C 
ATOM     19  H   UNL     1       2.930   9.782  18.990  0.00  0.00    +0.000 HD
ENDBRANCH   1  16
BRANCH   5  20
ATOM     20  C   UNL     1       3.060   4.638  17.845  0.00  0.00    +0.000 C 
ATOM     21  C   UNL     1       1.923   3.765  17.298  0.00  0.00    +0.000 C 
BRANCH  20  22
ATOM     22  S   UNL     1       4.296   3.499  18.570  0.00  0.00    +0.000 S 
BRANCH  22  23
ATOM     23  C   UNL     1       5.719   4.470  18.608  0.00  0.00    +0.000 A 
ATOM     24  N   UNL     1       6.217   5.120  19.633  0.00  0.00    +0.000 NA
ATOM     25  N   UNL     1       7.356   5.773  19.193  0.00  0.00    +0.000 NA
ATOM     26  C   UNL     1       7.504   5.498  17.913  0.00  0.00    +0.000 A 
ATOM     27  N   UNL     1       6.490   4.690  17.502  0.00  0.00    +0.000 N 
ATOM     28  C   UNL     1       6.293   4.185  16.170  0.00  0.00    +0.000 C 
ENDBRANCH  22  23
ENDBRANCH  20  22
ENDBRANCH   5  20
TORSDOF 4
ENDMDL
MODEL 5
REMARK VINA RESULT:      -7.3      2.515      3.376
REMARK  Name = 
REMARK  7 active torsions:
REMARK  status: ('A' for Active; 'I' for Inactive)
REMARK    1  A    between atoms: C_1  and  C_2
REMARK    2  A    between atoms: N_10  and  C_11
REMARK    3  A    between atoms: C_15  and  C_16
REMARK    4  A    between atoms: C_16  and  C_17
REMARK    5  A    between atoms: C_16  and  S_18
REMARK    6  A    between atoms: S_18  and  C_19
REMARK    7  A    between atoms: N_23  and  C_24
REMARK                            x       y       z     vdW  Elec       q    Type
REMARK                         _______ _______ _______ _____ _____    ______ ____
ROOT
ATOM      1  C   UNL     1       2.024   7.970  19.377  0.00  0.00    +0.000 A 
ATOM      2  C   UNL     1       1.532   7.385  20.544  0.00  0.00    +0.000 A 
ATOM      3  C   UNL     1       1.662   6.015  20.773  0.00  0.00    +0.000 A 
ATOM      4  C   UNL     1       2.271   5.205  19.822  0.00  0.00    +0.000 A 
ATOM      5  C   UNL     1       2.756   5.752  18.623  0.00  0.00    +0.000 A 
ATOM      6  C   UNL     1       2.613   7.140  18.408  0.00  0.00    +0.000 A 
ENDROOT
BRANCH   1  16
ATOM      7  C   UNL     1       2.294  16.337  18.843  0.00  0.00    +0.000 C 
ATOM      8  C   UNL     1       1.064  15.612  19.322  0.00  0.00    +0.000 C 
ATOM      9  O   UNL     1       0.054  16.247  19.626  0.00  0.00    +0.000 OA
ATOM     10  N   UNL     1       1.112  14.229  19.336  0.00  0.00    +0.000 N 
ATOM     11  C   UNL     1      -0.100  13.483  19.702  0.00  0.00    +0.000 C 
ATOM     12  C   UNL     1      -0.294  12.281  18.772  0.00  0.00    +0.000 C 
ATOM     13  N   UNL     1       0.918  11.444  18.746  0.00  0.00    +0.000 N 
ATOM     14  C   UNL     1       0.790  10.112  19.108  0.00  0.00    +0.000 C 
ATOM     15  O   UNL     1      -0.316   9.661  19.399  0.00  0.00    +0.000 OA
ATOM     16  N   UNL     1       1.950   9.367  19.126  0.00  0.00    +0.000 N 
ATOM     17  C   UNL     1       2.123  12.177  18.341  0.00  0.00    +0.000 C 
ATOM     18  C   UNL     1       2.332  13.413  19.237  0.00  0.00    +0.000 C 
ATOM     19  H   UNL     1       2.818   9.865  19.219  0.00  0.00    +0.000 HD
ENDBRANCH   1  16
BRANCH   5  20
ATOM     20  C   UNL     1       3.423   4.873  17.574  0.00  0.00    +0.000 C 
ATOM     21  C   UNL     1       2.617   3.587  17.347  0.00  0.00    +0.000 C 
BRANCH  20  22
ATOM     22  S   UNL     1       5.118   4.357  18.034  0.00  0.00    +0.000 S 
BRANCH  22  23
ATOM     23  C   UNL     1       6.046   5.765  17.676  0.00  0.00    +0.000 A 
ATOM     24  N   UNL     1       5.891   6.589  16.667  0.00  0.00    +0.000 NA
ATOM     25  N   UNL     1       6.869   7.562  16.776  0.00  0.00    +0.000 NA
ATOM     26  C   UNL     1       7.586   7.288  17.847  0.00  0.00    +0.000 A 
ATOM     27  N   UNL     1       7.109   6.159  18.436  0.00  0.00    +0.000 N 
ATOM     28  C   UNL     1       7.634   5.531  19.618  0.00  0.00    +0.000 C 
ENDBRANCH  22  23
ENDBRANCH  20  22
ENDBRANCH   5  20
TORSDOF 4
ENDMDL
MODEL 6
REMARK VINA RESULT:      -7.3      1.279      1.512
REMARK  Name = 
REMARK  7 active torsions:
REMARK  status: ('A' for Active; 'I' for Inactive)
REMARK    1  A    between atoms: C_1  and  C_2
REMARK    2  A    between atoms: N_10  and  C_11
REMARK    3  A    between atoms: C_15  and  C_16
REMARK    4  A    between atoms: C_16  and  C_17
REMARK    5  A    between atoms: C_16  and  S_18
REMARK    6  A    between atoms: S_18  and  C_19
REMARK    7  A    between atoms: N_23  and  C_24
REMARK                            x       y       z     vdW  Elec       q    Type
REMARK                         _______ _______ _______ _____ _____    ______ ____
ROOT
ATOM      1  C   UNL     1       2.184   6.172  20.139  0.00  0.00    +0.000 A 
ATOM      2  C   UNL     1       1.872   4.964  20.763  0.00  0.00    +0.000 A 
ATOM      3  C   UNL     1       2.401   3.758  20.303  0.00  0.00    +0.000 A 
ATOM      4  C   UNL     1       3.240   3.744  19.194  0.00  0.00    +0.000 A 
ATOM      5  C   UNL     1       3.557   4.935  18.523  0.00  0.00    +0.000 A 
ATOM      6  C   UNL     1       3.008   6.146  19.002  0.00  0.00    +0.000 A 
ENDROOT
BRANCH   1  16
ATOM      7  C   UNL     1      -1.634  12.968  23.237  0.00  0.00    +0.000 C 
ATOM      8  C   UNL     1      -1.519  12.730  21.756  0.00  0.00    +0.000 C 
ATOM      9  O   UNL     1      -1.971  13.555  20.962  0.00  0.00    +0.000 OA
ATOM     10  N   UNL     1      -0.837  11.596  21.349  0.00  0.00    +0.000 N 
ATOM     11  C   UNL     1      -0.617  11.380  19.913  0.00  0.00    +0.000 C 
ATOM     12  C   UNL     1       0.810  10.884  19.655  0.00  0.00    +0.000 C 
ATOM     13  N   UNL     1       1.103   9.695  20.473  0.00  0.00    +0.000 N 
ATOM     14  C   UNL     1       1.484   8.536  19.815  0.00  0.00    +0.000 C 
ATOM     15  O   UNL     1       1.605   8.539  18.592  0.00  0.00    +0.000 OA
ATOM     16  N   UNL     1       1.700   7.425  20.603  0.00  0.00    +0.000 N 
ATOM     17  C   UNL     1       0.923   9.921  21.912  0.00  0.00    +0.000 C 
ATOM     18  C   UNL     1      -0.493  10.450  22.206  0.00  0.00    +0.000 C 
ATOM     19  H   UNL     1       1.258   7.406  21.505  0.00  0.00    +0.000 HD
ENDBRANCH   1  16
BRANCH   5  20
ATOM     20  C   UNL     1       4.472   4.931  17.306  0.00  0.00    +0.000 C 
ATOM     21  C   UNL     1       4.002   3.896  16.275  0.00  0.00    +0.000 C 
BRANCH  20  22
ATOM     22  S   UNL     1       6.209   4.519  17.709  0.00  0.00    +0.000 S 
BRANCH  22  23
ATOM     23  C   UNL     1       6.968   6.067  17.708  0.00  0.00    +0.000 A 
ATOM     24  N   UNL     1       6.866   7.007  16.799  0.00  0.00    +0.000 NA
ATOM     25  N   UNL     1       7.659   8.065  17.210  0.00  0.00    +0.000 NA
ATOM     26  C   UNL     1       8.217   7.724  18.353  0.00  0.00    +0.000 A 
ATOM     27  N   UNL     1       7.818   6.471  18.698  0.00  0.00    +0.000 N 
ATOM     28  C   UNL     1       8.223   5.742  19.870  0.00  0.00    +0.000 C 
ENDBRANCH  22  23
ENDBRANCH  20  22
ENDBRANCH   5  20
TORSDOF 4
ENDMDL
MODEL 7
REMARK VINA RESULT:      -7.2      1.862      2.588
REMARK  Name = 
REMARK  7 active torsions:
REMARK  status: ('A' for Active; 'I' for Inactive)
REMARK    1  A    between atoms: C_1  and  C_2
REMARK    2  A    between atoms: N_10  and  C_11
REMARK    3  A    between atoms: C_15  and  C_16
REMARK    4  A    between atoms: C_16  and  C_17
REMARK    5  A    between atoms: C_16  and  S_18
REMARK    6  A    between atoms: S_18  and  C_19
REMARK    7  A    between atoms: N_23  and  C_24
REMARK                            x       y       z     vdW  Elec       q    Type
REMARK                         _______ _______ _______ _____ _____    ______ ____
ROOT
ATOM      1  C   UNL     1       2.000   5.212  20.696  0.00  0.00    +0.000 A 
ATOM      2  C   UNL     1       2.047   4.141  21.588  0.00  0.00    +0.000 A 
ATOM      3  C   UNL     1       2.495   2.884  21.181  0.00  0.00    +0.000 A 
ATOM      4  C   UNL     1       2.885   2.678  19.863  0.00  0.00    +0.000 A 
ATOM      5  C   UNL     1       2.827   3.723  18.928  0.00  0.00    +0.000 A 
ATOM      6  C   UNL     1       2.368   4.988  19.359  0.00  0.00    +0.000 A 
ENDROOT
BRANCH   1  16
ATOM      7  C   UNL     1      -1.485  12.433  23.160  0.00  0.00    +0.000 C 
ATOM      8  C   UNL     1      -1.146  12.168  21.718  0.00  0.00    +0.000 C 
ATOM      9  O   UNL     1      -1.357  13.032  20.866  0.00  0.00    +0.000 OA
ATOM     10  N   UNL     1      -0.539  10.960  21.423  0.00  0.00    +0.000 N 
ATOM     11  C   UNL     1      -0.102  10.705  20.044  0.00  0.00    +0.000 C 
ATOM     12  C   UNL     1       1.280  10.045  20.030  0.00  0.00    +0.000 C 
ATOM     13  N   UNL     1       1.290   8.839  20.874  0.00  0.00    +0.000 N 
ATOM     14  C   UNL     1       1.643   7.638  20.280  0.00  0.00    +0.000 C 
ATOM     15  O   UNL     1       1.972   7.614  19.096  0.00  0.00    +0.000 OA
ATOM     16  N   UNL     1       1.590   6.517  21.082  0.00  0.00    +0.000 N 
ATOM     17  C   UNL     1       0.894   9.099  22.263  0.00  0.00    +0.000 C 
ATOM     18  C   UNL     1      -0.481   9.790  22.315  0.00  0.00    +0.000 C 
ATOM     19  H   UNL     1       1.002   6.558  21.895  0.00  0.00    +0.000 HD
ENDBRANCH   1  16
BRANCH   5  20
ATOM     20  C   UNL     1       3.250   3.507  17.482  0.00  0.00    +0.000 C 
ATOM     21  C   UNL     1       4.189   2.299  17.363  0.00  0.00    +0.000 C 
BRANCH  20  22
ATOM     22  S   UNL     1       4.142   4.937  16.767  0.00  0.00    +0.000 S 
BRANCH  22  23
ATOM     23  C   UNL     1       5.685   4.830  17.527  0.00  0.00    +0.000 A 
ATOM     24  N   UNL     1       5.962   4.977  18.801  0.00  0.00    +0.000 NA
ATOM     25  N   UNL     1       7.329   4.822  18.947  0.00  0.00    +0.000 NA
ATOM     26  C   UNL     1       7.834   4.590  17.752  0.00  0.00    +0.000 A 
ATOM     27  N   UNL     1       6.835   4.598  16.829  0.00  0.00    +0.000 N 
ATOM     28  C   UNL     1       6.987   4.399  15.412  0.00  0.00    +0.000 C 
ENDBRANCH  22  23
ENDBRANCH  20  22
ENDBRANCH   5  20
TORSDOF 4
ENDMDL
MODEL 8
REMARK VINA RESULT:      -7.2      2.868      4.030
REMARK  Name = 
REMARK  7 active torsions:
REMARK  status: ('A' for Active; 'I' for Inactive)
REMARK    1  A    between atoms: C_1  and  C_2
REMARK    2  A    between atoms: N_10  and  C_11
REMARK    3  A    between atoms: C_15  and  C_16
REMARK    4  A    between atoms: C_16  and  C_17
REMARK    5  A    between atoms: C_16  and  S_18
REMARK    6  A    between atoms: S_18  and  C_19
REMARK    7  A    between atoms: N_23  and  C_24
REMARK                            x       y       z     vdW  Elec       q    Type
REMARK                         _______ _______ _______ _____ _____    ______ ____
ROOT
ATOM      1  C   UNL     1       1.857   8.346  19.467  0.00  0.00    +0.000 A 
ATOM      2  C   UNL     1       1.415   7.809  20.677  0.00  0.00    +0.000 A 
ATOM      3  C   UNL     1       1.565   6.451  20.959  0.00  0.00    +0.000 A 
ATOM      4  C   UNL     1       2.145   5.605  20.020  0.00  0.00    +0.000 A 
ATOM      5  C   UNL     1       2.578   6.102  18.781  0.00  0.00    +0.000 A 
ATOM      6  C   UNL     1       2.414   7.479  18.513  0.00  0.00    +0.000 A 
ENDROOT
BRANCH   1  16
ATOM      7  C   UNL     1       1.887  16.695  18.663  0.00  0.00    +0.000 C 
ATOM      8  C   UNL     1       0.640  15.939  19.034  0.00  0.00    +0.000 C 
ATOM      9  O   UNL     1      -0.419  16.544  19.207  0.00  0.00    +0.000 OA
ATOM     10  N   UNL     1       0.734  14.560  19.104  0.00  0.00    +0.000 N 
ATOM     11  C   UNL     1      -0.483  13.780  19.366  0.00  0.00    +0.000 C 
ATOM     12  C   UNL     1      -0.534  12.542  18.465  0.00  0.00    +0.000 C 
ATOM     13  N   UNL     1       0.702  11.752  18.597  0.00  0.00    +0.000 N 
ATOM     14  C   UNL     1       0.584  10.429  18.992  0.00  0.00    +0.000 C 
ATOM     15  O   UNL     1      -0.530   9.944  19.180  0.00  0.00    +0.000 OA
ATOM     16  N   UNL     1       1.761   9.730  19.160  0.00  0.00    +0.000 N 
ATOM     17  C   UNL     1       1.917  12.518  18.296  0.00  0.00    +0.000 C 
ATOM     18  C   UNL     1       1.986  13.789  19.163  0.00  0.00    +0.000 C 
ATOM     19  H   UNL     1       2.595  10.264  19.325  0.00  0.00    +0.000 HD
ENDBRANCH   1  16
BRANCH   5  20
ATOM     20  C   UNL     1       3.212   5.183  17.745  0.00  0.00    +0.000 C 
ATOM     21  C   UNL     1       2.332   3.950  17.499  0.00  0.00    +0.000 C 
BRANCH  20  22
ATOM     22  S   UNL     1       4.861   4.562  18.241  0.00  0.00    +0.000 S 
BRANCH  22  23
ATOM     23  C   UNL     1       5.695   4.478  16.735  0.00  0.00    +0.000 A 
ATOM     24  N   UNL     1       5.520   3.604  15.772  0.00  0.00    +0.000 NA
ATOM     25  N   UNL     1       6.418   3.915  14.766  0.00  0.00    +0.000 NA
ATOM     26  C   UNL     1       7.110   4.965  15.159  0.00  0.00    +0.000 A 
ATOM     27  N   UNL     1       6.694   5.345  16.397  0.00  0.00    +0.000 N 
ATOM     28  C   UNL     1       7.217   6.439  17.170  0.00  0.00    +0.000 C 
ENDBRANCH  22  23
ENDBRANCH  20  22
ENDBRANCH   5  20
TORSDOF 4
ENDMDL
MODEL 9
REMARK VINA RESULT:      -7.2      1.875      2.812
REMARK  Name = 
REMARK  7 active torsions:
REMARK  status: ('A' for Active; 'I' for Inactive)
REMARK    1  A    between atoms: C_1  and  C_2
REMARK    2  A    between atoms: N_10  and  C_11
REMARK    3  A    between atoms: C_15  and  C_16
REMARK    4  A    between atoms: C_16  and  C_17
REMARK    5  A    between atoms: C_16  and  S_18
REMARK    6  A    between atoms: S_18  and  C_19
REMARK    7  A    between atoms: N_23  and  C_24
REMARK                            x       y       z     vdW  Elec       q    Type
REMARK                         _______ _______ _______ _____ _____    ______ ____
ROOT
ATOM      1  C   UNL     1       2.345   5.604  20.501  0.00  0.00    +0.000 A 
ATOM      2  C   UNL     1       1.933   4.377  21.021  0.00  0.00    +0.000 A 
ATOM      3  C   UNL     1       2.519   3.183  20.600  0.00  0.00    +0.000 A 
ATOM      4  C   UNL     1       3.518   3.201  19.633  0.00  0.00    +0.000 A 
ATOM      5  C   UNL     1       3.942   4.413  19.066  0.00  0.00    +0.000 A 
ATOM      6  C   UNL     1       3.334   5.611  19.503  0.00  0.00    +0.000 A 
ENDROOT
BRANCH   1  16
ATOM      7  C   UNL     1      -1.837  12.310  23.311  0.00  0.00    +0.000 C 
ATOM      8  C   UNL     1      -1.570  12.099  21.845  0.00  0.00    +0.000 C 
ATOM      9  O   UNL     1      -1.949  12.934  21.024  0.00  0.00    +0.000 OA
ATOM     10  N   UNL     1      -0.839  10.979  21.490  0.00  0.00    +0.000 N 
ATOM     11  C   UNL     1      -0.473  10.790  20.080  0.00  0.00    +0.000 C 
ATOM     12  C   UNL     1       0.977  10.311  19.959  0.00  0.00    +0.000 C 
ATOM     13  N   UNL     1       1.199   9.111  20.783  0.00  0.00    +0.000 N 
ATOM     14  C   UNL     1       1.657   7.967  20.147  0.00  0.00    +0.000 C 
ATOM     15  O   UNL     1       1.901   7.993  18.943  0.00  0.00    +0.000 OA
ATOM     16  N   UNL     1       1.803   6.844  20.934  0.00  0.00    +0.000 N 
ATOM     17  C   UNL     1       0.873   9.309  22.200  0.00  0.00    +0.000 C 
ATOM     18  C   UNL     1      -0.571   9.821  22.358  0.00  0.00    +0.000 C 
ATOM     19  H   UNL     1       1.273   6.805  21.787  0.00  0.00    +0.000 HD
ENDBRANCH   1  16
BRANCH   5  20
ATOM     20  C   UNL     1       5.033   4.443  18.005  0.00  0.00    +0.000 C 
ATOM     21  C   UNL     1       6.411   4.651  18.646  0.00  0.00    +0.000 C 
BRANCH  20  22
ATOM     22  S   UNL     1       4.815   5.787  16.781  0.00  0.00    +0.000 S 
BRANCH  22  23
ATOM     23  C   UNL     1       6.116   5.506  15.686  0.00  0.00    +0.000 A 
ATOM     24  N   UNL     1       7.327   6.010  15.736  0.00  0.00    +0.000 NA
ATOM     25  N   UNL     1       8.022   5.519  14.645  0.00  0.00    +0.000 NA
ATOM     26  C   UNL     1       7.204   4.738  13.968  0.00  0.00    +0.000 A 
ATOM     27  N   UNL     1       5.992   4.711  14.583  0.00  0.00    +0.000 N 
ATOM     28  C   UNL     1       4.832   3.985  14.141  0.00  0.00    +0.000 C 
ENDBRANCH  22  23
ENDBRANCH  20  22
ENDBRANCH   5  20
TORSDOF 4
ENDMDL
