MODEL 1
REMARK VINA RESULT:      -8.2      0.000      0.000
REMARK  Name = 
REMARK  8 active torsions:
REMARK  status: ('A' for Active; 'I' for Inactive)
REMARK    1  A    between atoms: C_1  and  C_2
REMARK    2  A    between atoms: C_2  and  S_3
REMARK    3  A    between atoms: C_2  and  C_10
REMARK    4  A    between atoms: S_3  and  C_4
REMARK    5  A    between atoms: N_8  and  C_9
REMARK    6  A    between atoms: C_14  and  N_15
REMARK    7  A    between atoms: C_16  and  C_18
REMARK    8  A    between atoms: C_20  and  C_21
REMARK                            x       y       z     vdW  Elec       q    Type
REMARK                         _______ _______ _______ _____ _____    ______ ____
ROOT
ATOM      1  C   UNL     1       0.075  10.327  19.951  0.00  0.00    +0.000 A 
ATOM      2  C   UNL     1      -0.344  10.382  21.293  0.00  0.00    +0.000 A 
ATOM      3  C   UNL     1       0.171   9.502  22.239  0.00  0.00    +0.000 A 
ATOM      4  C   UNL     1       1.084   8.525  21.855  0.00  0.00    +0.000 A 
ATOM      5  C   UNL     1       1.482   8.402  20.521  0.00  0.00    +0.000 A 
ATOM      6  C   UNL     1       0.992   9.323  19.582  0.00  0.00    +0.000 A 
ENDROOT
BRANCH   5   7
ATOM      7  N   UNL     1       2.356   7.390  20.073  0.00  0.00    +0.000 N 
ATOM      8  C   UNL     1       2.138   6.025  20.156  0.00  0.00    +0.000 C 
ATOM      9  O   UNL     1       1.158   5.459  20.633  0.00  0.00    +0.000 OA
ATOM     10  H   UNL     1       3.194   7.666  19.568  0.00  0.00    +0.000 HD
BRANCH   8  11
ATOM     11  C   UNL     1       3.220   5.177  19.567  0.00  0.00    +0.000 A 
ATOM     12  C   UNL     1       4.499   5.715  19.443  0.00  0.00    +0.000 A 
ATOM     13  C   UNL     1       5.517   4.923  18.910  0.00  0.00    +0.000 A 
ATOM     14  C   UNL     1       5.202   3.619  18.519  0.00  0.00    +0.000 A 
ATOM     15  C   UNL     1       3.893   3.179  18.682  0.00  0.00    +0.000 A 
ATOM     16 CL   UNL     1       3.443   1.590  18.220  0.00  0.00    +0.000 Cl
ATOM     17  N   UNL     1       2.888   3.916  19.197  0.00  0.00    +0.000 NA
BRANCH  13  18
ATOM     18  C   UNL     1       6.919   5.452  18.772  0.00  0.00    +0.000 C 
ATOM     19  F   UNL     1       6.986   6.658  18.147  0.00  0.00    +0.000 F 
ATOM     20  F   UNL     1       7.526   5.618  19.978  0.00  0.00    +0.000 F 
ATOM     21  F   UNL     1       7.719   4.613  18.058  0.00  0.00    +0.000 F 
ENDBRANCH  13  18
ENDBRANCH   8  11
ENDBRANCH   5   7
BRANCH   1  23
ATOM     22  C   UNL     1       0.435  12.633  18.894  0.00  0.00    +0.000 C 
ATOM     23  C   UNL     1      -0.449  11.383  18.986  0.00  0.00    +0.000 C 
BRANCH  23  24
ATOM     24  S   UNL     1      -2.127  11.961  19.451  0.00  0.00    +0.000 S 
BRANCH  24  25
ATOM     25  C   UNL     1      -3.030  11.636  18.017  0.00  0.00    +0.000 A 
ATOM     26  N   UNL     1      -2.560  11.280  16.842  0.00  0.00    +0.000 NA
ATOM     27  N   UNL     1      -3.642  11.095  16.004  0.00  0.00    +0.000 NA
ATOM     28  C   UNL     1      -4.731  11.352  16.696  0.00  0.00    +0.000 A 
ATOM     29  N   UNL     1      -4.390  11.704  17.966  0.00  0.00    +0.000 N 
ATOM     30  C   UNL     1      -5.297  12.054  19.024  0.00  0.00    +0.000 C 
ENDBRANCH  24  25
ENDBRANCH  23  24
ENDBRANCH   1  23
TORSDOF 6
ENDMDL
MODEL 2
REMARK VINA RESULT:      -8.2      1.432      1.566
REMARK  Name = 
REMARK  8 active torsions:
REMARK  status: ('A' for Active; 'I' for Inactive)
REMARK    1  A    between atoms: C_1  and  C_2
REMARK    2  A    between atoms: C_2  and  S_3
REMARK    3  A    between atoms: C_2  and  C_10
REMARK    4  A    between atoms: S_3  and  C_4
REMARK    5  A    between atoms: N_8  and  C_9
REMARK    6  A    between atoms: C_14  and  N_15
REMARK    7  A    between atoms: C_16  and  C_18
REMARK    8  A    between atoms: C_20  and  C_21
REMARK                            x       y       z     vdW  Elec       q    Type
REMARK                         _______ _______ _______ _____ _____    ______ ____
ROOT
ATOM      1  C   UNL     1       0.187  10.707  20.267  0.00  0.00    +0.000 A 
ATOM      2  C   UNL     1      -0.023  10.536  21.647  0.00  0.00    +0.000 A 
ATOM      3  C   UNL     1       0.523   9.451  22.324  0.00  0.00    +0.000 A 
ATOM      4  C   UNL     1       1.257   8.496  21.629  0.00  0.00    +0.000 A 
ATOM      5  C   UNL     1       1.441   8.600  20.248  0.00  0.00    +0.000 A 
ATOM      6  C   UNL     1       0.925   9.722  19.580  0.00  0.00    +0.000 A 
ENDROOT
BRANCH   5   7
ATOM      7  N   UNL     1       2.124   7.626  19.490  0.00  0.00    +0.000 N 
ATOM      8  C   UNL     1       2.191   6.271  19.770  0.00  0.00    +0.000 C 
ATOM      9  O   UNL     1       1.678   5.685  20.719  0.00  0.00    +0.000 OA
ATOM     10  H   UNL     1       2.547   7.909  18.611  0.00  0.00    +0.000 HD
BRANCH   8  11
ATOM     11  C   UNL     1       2.957   5.460  18.774  0.00  0.00    +0.000 A 
ATOM     12  C   UNL     1       3.765   6.121  17.851  0.00  0.00    +0.000 A 
ATOM     13  C   UNL     1       4.495   5.368  16.932  0.00  0.00    +0.000 A 
ATOM     14  C   UNL     1       4.376   3.976  16.975  0.00  0.00    +0.000 A 
ATOM     15  C   UNL     1       3.540   3.415  17.933  0.00  0.00    +0.000 A 
ATOM     16 CL   UNL     1       3.352   1.714  18.038  0.00  0.00    +0.000 Cl
ATOM     17  N   UNL     1       2.825   4.112  18.839  0.00  0.00    +0.000 NA
BRANCH  13  18
ATOM     18  C   UNL     1       5.396   6.033  15.926  0.00  0.00    +0.000 C 
ATOM     19  F   UNL     1       4.798   7.051  15.250  0.00  0.00    +0.000 F 
ATOM     20  F   UNL     1       6.506   6.566  16.505  0.00  0.00    +0.000 F 
ATOM     21  F   UNL     1       5.843   5.164  14.979  0.00  0.00    +0.000 F 
ENDBRANCH  13  18
ENDBRANCH   8  11
ENDBRANCH   5   7
BRANCH   1  23
ATOM     22  C   UNL     1       0.281  13.263  20.128  0.00  0.00    +0.000 C 
ATOM     23  C   UNL     1      -0.351  11.968  19.603  0.00  0.00    +0.000 C 
BRANCH  23  24
ATOM     24  S   UNL     1      -2.164  12.140  19.833  0.00  0.00    +0.000 S 
BRANCH  24  25
ATOM     25  C   UNL     1      -2.766  11.704  18.276  0.00  0.00    +0.000 A 
ATOM     26  N   UNL     1      -2.066  11.413  17.202  0.00  0.00    +0.000 NA
ATOM     27  N   UNL     1      -2.960  11.092  16.200  0.00  0.00    +0.000 NA
ATOM     28  C   UNL     1      -4.173  11.206  16.697  0.00  0.00    +0.000 A 
ATOM     29  N   UNL     1      -4.096  11.596  17.999  0.00  0.00    +0.000 N 
ATOM     30  C   UNL     1      -5.204  11.824  18.886  0.00  0.00    +0.000 C 
ENDBRANCH  24  25
ENDBRANCH  23  24
ENDBRANCH   1  23
TORSDOF 6
ENDMDL
MODEL 3
REMARK VINA RESULT:      -8.2      1.539      1.736
REMARK  Name = 
REMARK  8 active torsions:
REMARK  status: ('A' for Active; 'I' for Inactive)
REMARK    1  A    between atoms: C_1  and  C_2
REMARK    2  A    between atoms: C_2  and  S_3
REMARK    3  A    between atoms: C_2  and  C_10
REMARK    4  A    between atoms: S_3  and  C_4
REMARK    5  A    between atoms: N_8  and  C_9
REMARK    6  A    between atoms: C_14  and  N_15
REMARK    7  A    between atoms: C_16  and  C_18
REMARK    8  A    between atoms: C_20  and  C_21
REMARK                            x       y       z     vdW  Elec       q    Type
REMARK                         _______ _______ _______ _____ _____    ______ ____
ROOT
ATOM      1  C   UNL     1       0.056  10.653  19.753  0.00  0.00    +0.000 A 
ATOM      2  C   UNL     1      -0.157  10.709  21.142  0.00  0.00    +0.000 A 
ATOM      3  C   UNL     1       0.434   9.782  21.993  0.00  0.00    +0.000 A 
ATOM      4  C   UNL     1       1.216   8.757  21.470  0.00  0.00    +0.000 A 
ATOM      5  C   UNL     1       1.405   8.635  20.091  0.00  0.00    +0.000 A 
ATOM      6  C   UNL     1       0.843   9.601  19.243  0.00  0.00    +0.000 A 
ENDROOT
BRANCH   5   7
ATOM      7  N   UNL     1       2.138   7.579  19.509  0.00  0.00    +0.000 N 
ATOM      8  C   UNL     1       2.698   7.574  18.242  0.00  0.00    +0.000 C 
ATOM      9  O   UNL     1       2.654   8.474  17.409  0.00  0.00    +0.000 OA
ATOM     10  H   UNL     1       2.354   6.768  20.083  0.00  0.00    +0.000 HD
BRANCH   8  11
ATOM     11  C   UNL     1       3.455   6.332  17.894  0.00  0.00    +0.000 A 
ATOM     12  C   UNL     1       4.830   6.421  17.692  0.00  0.00    +0.000 A 
ATOM     13  C   UNL     1       5.544   5.262  17.384  0.00  0.00    +0.000 A 
ATOM     14  C   UNL     1       4.840   4.059  17.286  0.00  0.00    +0.000 A 
ATOM     15  C   UNL     1       3.466   4.079  17.502  0.00  0.00    +0.000 A 
ATOM     16 CL   UNL     1       2.546   2.636  17.396  0.00  0.00    +0.000 Cl
ATOM     17  N   UNL     1       2.748   5.179  17.806  0.00  0.00    +0.000 NA
BRANCH  13  18
ATOM     18  C   UNL     1       7.034   5.302  17.174  0.00  0.00    +0.000 C 
ATOM     19  F   UNL     1       7.488   4.351  16.314  0.00  0.00    +0.000 F 
ATOM     20  F   UNL     1       7.449   6.495  16.668  0.00  0.00    +0.000 F 
ATOM     21  F   UNL     1       7.724   5.122  18.332  0.00  0.00    +0.000 F 
ENDBRANCH  13  18
ENDBRANCH   8  11
ENDBRANCH   5   7
BRANCH   1  23
ATOM     22  C   UNL     1      -0.106  13.170  19.301  0.00  0.00    +0.000 C 
ATOM     23  C   UNL     1      -0.535  11.757  18.885  0.00  0.00    +0.000 C 
BRANCH  23  24
ATOM     24  S   UNL     1      -2.370  11.739  18.912  0.00  0.00    +0.000 S 
BRANCH  24  25
ATOM     25  C   UNL     1      -2.745  11.080  17.362  0.00  0.00    +0.000 A 
ATOM     26  N   UNL     1      -1.968  10.345  16.598  0.00  0.00    +0.000 NA
ATOM     27  N   UNL     1      -2.691  10.015  15.469  0.00  0.00    +0.000 NA
ATOM     28  C   UNL     1      -3.881  10.567  15.582  0.00  0.00    +0.000 A 
ATOM     29  N   UNL     1      -3.953  11.252  16.756  0.00  0.00    +0.000 N 
ATOM     30  C   UNL     1      -5.090  11.985  17.244  0.00  0.00    +0.000 C 
ENDBRANCH  24  25
ENDBRANCH  23  24
ENDBRANCH   1  23
TORSDOF 6
ENDMDL
MODEL 4
REMARK VINA RESULT:      -8.1      5.317      9.263
REMARK  Name = 
REMARK  8 active torsions:
REMARK  status: ('A' for Active; 'I' for Inactive)
REMARK    1  A    between atoms: C_1  and  C_2
REMARK    2  A    between atoms: C_2  and  S_3
REMARK    3  A    between atoms: C_2  and  C_10
REMARK    4  A    between atoms: S_3  and  C_4
REMARK    5  A    between atoms: N_8  and  C_9
REMARK    6  A    between atoms: C_14  and  N_15
REMARK    7  A    between atoms: C_16  and  C_18
REMARK    8  A    between atoms: C_20  and  C_21
REMARK                            x       y       z     vdW  Elec       q    Type
REMARK                         _______ _______ _______ _____ _____    ______ ____
ROOT
ATOM      1  C   UNL     1       4.287   4.894  16.871  0.00  0.00    +0.000 A 
ATOM      2  C   UNL     1       3.642   3.657  17.043  0.00  0.00    +0.000 A 
ATOM      3  C   UNL     1       2.452   3.563  17.757  0.00  0.00    +0.000 A 
ATOM      4  C   UNL     1       1.904   4.699  18.347  0.00  0.00    +0.000 A 
ATOM      5  C   UNL     1       2.545   5.936  18.246  0.00  0.00    +0.000 A 
ATOM      6  C   UNL     1       3.721   6.029  17.486  0.00  0.00    +0.000 A 
ENDROOT
BRANCH   5   7
ATOM      7  N   UNL     1       2.063   7.102  18.878  0.00  0.00    +0.000 N 
ATOM      8  C   UNL     1       1.982   8.364  18.313  0.00  0.00    +0.000 C 
ATOM      9  O   UNL     1       2.316   8.690  17.177  0.00  0.00    +0.000 OA
ATOM     10  H   UNL     1       1.659   7.016  19.806  0.00  0.00    +0.000 HD
BRANCH   8  11
ATOM     11  C   UNL     1       1.395   9.415  19.200  0.00  0.00    +0.000 A 
ATOM     12  C   UNL     1       1.186  10.690  18.680  0.00  0.00    +0.000 A 
ATOM     13  C   UNL     1       0.622  11.669  19.498  0.00  0.00    +0.000 A 
ATOM     14  C   UNL     1       0.297  11.325  20.813  0.00  0.00    +0.000 A 
ATOM     15  C   UNL     1       0.551  10.025  21.236  0.00  0.00    +0.000 A 
ATOM     16 CL   UNL     1       0.175   9.540  22.837  0.00  0.00    +0.000 Cl
ATOM     17  N   UNL     1       1.089   9.054  20.470  0.00  0.00    +0.000 NA
BRANCH  13  18
ATOM     18  C   UNL     1       0.359  13.057  18.978  0.00  0.00    +0.000 C 
ATOM     19  F   UNL     1      -0.636  13.112  18.052  0.00  0.00    +0.000 F 
ATOM     20  F   UNL     1      -0.002  13.916  19.969  0.00  0.00    +0.000 F 
ATOM     21  F   UNL     1       1.455  13.603  18.385  0.00  0.00    +0.000 F 
ENDBRANCH  13  18
ENDBRANCH   8  11
ENDBRANCH   5   7
BRANCH   1  23
ATOM     22  C   UNL     1       5.510   3.949  14.829  0.00  0.00    +0.000 C 
ATOM     23  C   UNL     1       5.531   4.947  15.994  0.00  0.00    +0.000 C 
BRANCH  23  24
ATOM     24  S   UNL     1       7.057   4.601  16.952  0.00  0.00    +0.000 S 
BRANCH  24  25
ATOM     25  C   UNL     1       7.556   6.186  17.415  0.00  0.00    +0.000 A 
ATOM     26  N   UNL     1       7.597   7.263  16.662  0.00  0.00    +0.000 NA
ATOM     27  N   UNL     1       8.026   8.307  17.456  0.00  0.00    +0.000 NA
ATOM     28  C   UNL     1       8.239   7.829  18.664  0.00  0.00    +0.000 A 
ATOM     29  N   UNL     1       7.962   6.496  18.679  0.00  0.00    +0.000 N 
ATOM     30  C   UNL     1       8.067   5.619  19.813  0.00  0.00    +0.000 C 
ENDBRANCH  24  25
ENDBRANCH  23  24
ENDBRANCH   1  23
TORSDOF 6
ENDMDL
MODEL 5
REMARK VINA RESULT:      -8.0      5.367      9.422
REMARK  Name = 
REMARK  8 active torsions:
REMARK  status: ('A' for Active; 'I' for Inactive)
REMARK    1  A    between atoms: C_1  and  C_2
REMARK    2  A    between atoms: C_2  and  S_3
REMARK    3  A    between atoms: C_2  and  C_10
REMARK    4  A    between atoms: S_3  and  C_4
REMARK    5  A    between atoms: N_8  and  C_9
REMARK    6  A    between atoms: C_14  and  N_15
REMARK    7  A    between atoms: C_16  and  C_18
REMARK    8  A    between atoms: C_20  and  C_21
REMARK                            x       y       z     vdW  Elec       q    Type
REMARK                         _______ _______ _______ _____ _____    ______ ____
ROOT
ATOM      1  C   UNL     1       4.769   4.778  17.467  0.00  0.00    +0.000 A 
ATOM      2  C   UNL     1       3.934   3.681  17.189  0.00  0.00    +0.000 A 
ATOM      3  C   UNL     1       2.565   3.748  17.422  0.00  0.00    +0.000 A 
ATOM      4  C   UNL     1       2.009   4.898  17.975  0.00  0.00    +0.000 A 
ATOM      5  C   UNL     1       2.814   5.987  18.318  0.00  0.00    +0.000 A 
ATOM      6  C   UNL     1       4.188   5.928  18.037  0.00  0.00    +0.000 A 
ENDROOT
BRANCH   5   7
ATOM      7  N   UNL     1       2.307   7.148  18.937  0.00  0.00    +0.000 N 
ATOM      8  C   UNL     1       2.051   8.360  18.317  0.00  0.00    +0.000 C 
ATOM      9  O   UNL     1       2.220   8.637  17.133  0.00  0.00    +0.000 OA
ATOM     10  H   UNL     1       2.024   7.091  19.912  0.00  0.00    +0.000 HD
BRANCH   8  11
ATOM     11  C   UNL     1       1.480   9.416  19.210  0.00  0.00    +0.000 A 
ATOM     12  C   UNL     1       0.924   9.034  20.428  0.00  0.00    +0.000 A 
ATOM     13  C   UNL     1       0.406  10.016  21.273  0.00  0.00    +0.000 A 
ATOM     14  C   UNL     1       0.466  11.347  20.851  0.00  0.00    +0.000 A 
ATOM     15  C   UNL     1       1.039  11.623  19.615  0.00  0.00    +0.000 A 
ATOM     16 CL   UNL     1       1.141  13.235  19.041  0.00  0.00    +0.000 Cl
ATOM     17  N   UNL     1       1.552  10.699  18.777  0.00  0.00    +0.000 NA
BRANCH  13  18
ATOM     18  C   UNL     1      -0.190   9.657  22.607  0.00  0.00    +0.000 C 
ATOM     19  F   UNL     1      -0.948   8.528  22.578  0.00  0.00    +0.000 F 
ATOM     20  F   UNL     1       0.764   9.445  23.555  0.00  0.00    +0.000 F 
ATOM     21  F   UNL     1      -0.995  10.639  23.095  0.00  0.00    +0.000 F 
ENDBRANCH  13  18
ENDBRANCH   8  11
ENDBRANCH   5   7
BRANCH   1  23
ATOM     22  C   UNL     1       7.198   5.003  18.250  0.00  0.00    +0.000 C 
ATOM     23  C   UNL     1       6.243   4.678  17.094  0.00  0.00    +0.000 C 
BRANCH  23  24
ATOM     24  S   UNL     1       6.679   5.814  15.721  0.00  0.00    +0.000 S 
BRANCH  24  25
ATOM     25  C   UNL     1       6.450   4.809  14.337  0.00  0.00    +0.000 A 
ATOM     26  N   UNL     1       5.516   3.902  14.155  0.00  0.00    +0.000 NA
ATOM     27  N   UNL     1       5.697   3.370  12.894  0.00  0.00    +0.000 NA
ATOM     28  C   UNL     1       6.739   3.966  12.355  0.00  0.00    +0.000 A 
ATOM     29  N   UNL     1       7.247   4.874  13.234  0.00  0.00    +0.000 N 
ATOM     30  C   UNL     1       8.382   5.728  13.012  0.00  0.00    +0.000 C 
ENDBRANCH  24  25
ENDBRANCH  23  24
ENDBRANCH   1  23
TORSDOF 6
ENDMDL
MODEL 6
REMARK VINA RESULT:      -8.0      2.588      2.880
REMARK  Name = 
REMARK  8 active torsions:
REMARK  status: ('A' for Active; 'I' for Inactive)
REMARK    1  A    between atoms: C_1  and  C_2
REMARK    2  A    between atoms: C_2  and  S_3
REMARK    3  A    between atoms: C_2  and  C_10
REMARK    4  A    between atoms: S_3  and  C_4
REMARK    5  A    between atoms: N_8  and  C_9
REMARK    6  A    between atoms: C_14  and  N_15
REMARK    7  A    between atoms: C_16  and  C_18
REMARK    8  A    between atoms: C_20  and  C_21
REMARK                            x       y       z     vdW  Elec       q    Type
REMARK                         _______ _______ _______ _____ _____    ______ ____
ROOT
ATOM      1  C   UNL     1       0.281  10.508  19.878  0.00  0.00    +0.000 A 
ATOM      2  C   UNL     1       0.111  10.528  21.274  0.00  0.00    +0.000 A 
ATOM      3  C   UNL     1       0.649   9.526  22.074  0.00  0.00    +0.000 A 
ATOM      4  C   UNL     1       1.332   8.463  21.492  0.00  0.00    +0.000 A 
ATOM      5  C   UNL     1       1.473   8.378  20.105  0.00  0.00    +0.000 A 
ATOM      6  C   UNL     1       0.967   9.417  19.308  0.00  0.00    +0.000 A 
ENDROOT
BRANCH   5   7
ATOM      7  N   UNL     1       2.103   7.291  19.464  0.00  0.00    +0.000 N 
ATOM      8  C   UNL     1       2.780   7.334  18.257  0.00  0.00    +0.000 C 
ATOM      9  O   UNL     1       2.948   8.313  17.535  0.00  0.00    +0.000 OA
ATOM     10  H   UNL     1       2.144   6.401  19.953  0.00  0.00    +0.000 HD
BRANCH   8  11
ATOM     11  C   UNL     1       3.385   6.035  17.827  0.00  0.00    +0.000 A 
ATOM     12  C   UNL     1       2.862   4.851  18.341  0.00  0.00    +0.000 A 
ATOM     13  C   UNL     1       3.410   3.635  17.930  0.00  0.00    +0.000 A 
ATOM     14  C   UNL     1       4.469   3.663  17.019  0.00  0.00    +0.000 A 
ATOM     15  C   UNL     1       4.920   4.899  16.569  0.00  0.00    +0.000 A 
ATOM     16 CL   UNL     1       6.216   5.000  15.452  0.00  0.00    +0.000 Cl
ATOM     17  N   UNL     1       4.410   6.091  16.942  0.00  0.00    +0.000 NA
BRANCH  13  18
ATOM     18  C   UNL     1       2.870   2.328  18.443  0.00  0.00    +0.000 C 
ATOM     19  F   UNL     1       3.602   1.248  18.059  0.00  0.00    +0.000 F 
ATOM     20  F   UNL     1       2.827   2.288  19.803  0.00  0.00    +0.000 F 
ATOM     21  F   UNL     1       1.599   2.092  18.018  0.00  0.00    +0.000 F 
ENDBRANCH  13  18
ENDBRANCH   8  11
ENDBRANCH   5   7
BRANCH   1  23
ATOM     22  C   UNL     1       0.463  13.013  19.373  0.00  0.00    +0.000 C 
ATOM     23  C   UNL     1      -0.244  11.686  19.068  0.00  0.00    +0.000 C 
BRANCH  23  24
ATOM     24  S   UNL     1      -2.034  11.970  19.356  0.00  0.00    +0.000 S 
BRANCH  24  25
ATOM     25  C   UNL     1      -2.716  11.533  17.833  0.00  0.00    +0.000 A 
ATOM     26  N   UNL     1      -2.077  11.118  16.761  0.00  0.00    +0.000 NA
ATOM     27  N   UNL     1      -3.024  10.854  15.792  0.00  0.00    +0.000 NA
ATOM     28  C   UNL     1      -4.206  11.125  16.304  0.00  0.00    +0.000 A 
ATOM     29  N   UNL     1      -4.056  11.563  17.585  0.00  0.00    +0.000 N 
ATOM     30  C   UNL     1      -5.112  11.953  18.478  0.00  0.00    +0.000 C 
ENDBRANCH  24  25
ENDBRANCH  23  24
ENDBRANCH   1  23
TORSDOF 6
ENDMDL
MODEL 7
REMARK VINA RESULT:      -8.0      2.887      4.099
REMARK  Name = 
REMARK  8 active torsions:
REMARK  status: ('A' for Active; 'I' for Inactive)
REMARK    1  A    between atoms: C_1  and  C_2
REMARK    2  A    between atoms: C_2  and  S_3
REMARK    3  A    between atoms: C_2  and  C_10
REMARK    4  A    between atoms: S_3  and  C_4
REMARK    5  A    between atoms: N_8  and  C_9
REMARK    6  A    between atoms: C_14  and  N_15
REMARK    7  A    between atoms: C_16  and  C_18
REMARK    8  A    between atoms: C_20  and  C_21
REMARK                            x       y       z     vdW  Elec       q    Type
REMARK                         _______ _______ _______ _____ _____    ______ ____
ROOT
ATOM      1  C   UNL     1       0.212  10.484  20.423  0.00  0.00    +0.000 A 
ATOM      2  C   UNL     1       0.054  10.332  21.812  0.00  0.00    +0.000 A 
ATOM      3  C   UNL     1       0.653   9.275  22.488  0.00  0.00    +0.000 A 
ATOM      4  C   UNL     1       1.387   8.326  21.783  0.00  0.00    +0.000 A 
ATOM      5  C   UNL     1       1.519   8.410  20.395  0.00  0.00    +0.000 A 
ATOM      6  C   UNL     1       0.950   9.505  19.727  0.00  0.00    +0.000 A 
ENDROOT
BRANCH   5   7
ATOM      7  N   UNL     1       2.200   7.441  19.630  0.00  0.00    +0.000 N 
ATOM      8  C   UNL     1       2.141   6.068  19.809  0.00  0.00    +0.000 C 
ATOM      9  O   UNL     1       1.497   5.459  20.658  0.00  0.00    +0.000 OA
ATOM     10  H   UNL     1       2.727   7.750  18.818  0.00  0.00    +0.000 HD
BRANCH   8  11
ATOM     11  C   UNL     1       2.940   5.270  18.828  0.00  0.00    +0.000 A 
ATOM     12  C   UNL     1       3.688   5.946  17.867  0.00  0.00    +0.000 A 
ATOM     13  C   UNL     1       4.449   5.207  16.960  0.00  0.00    +0.000 A 
ATOM     14  C   UNL     1       4.419   3.813  17.056  0.00  0.00    +0.000 A 
ATOM     15  C   UNL     1       3.636   3.236  18.049  0.00  0.00    +0.000 A 
ATOM     16 CL   UNL     1       3.558   1.532  18.218  0.00  0.00    +0.000 Cl
ATOM     17  N   UNL     1       2.895   3.921  18.944  0.00  0.00    +0.000 NA
BRANCH  13  18
ATOM     18  C   UNL     1       5.288   5.890  15.914  0.00  0.00    +0.000 C 
ATOM     19  F   UNL     1       5.346   5.213  14.736  0.00  0.00    +0.000 F 
ATOM     20  F   UNL     1       4.820   7.132  15.612  0.00  0.00    +0.000 F 
ATOM     21  F   UNL     1       6.577   6.059  16.315  0.00  0.00    +0.000 F 
ENDBRANCH  13  18
ENDBRANCH   8  11
ENDBRANCH   5   7
BRANCH   1  23
ATOM     22  C   UNL     1      -1.508  11.404  18.762  0.00  0.00    +0.000 C 
ATOM     23  C   UNL     1      -0.384  11.718  19.757  0.00  0.00    +0.000 C 
BRANCH  23  24
ATOM     24  S   UNL     1       0.882  12.674  18.834  0.00  0.00    +0.000 S 
BRANCH  24  25
ATOM     25  C   UNL     1       1.699  13.508  20.104  0.00  0.00    +0.000 A 
ATOM     26  N   UNL     1       1.321  13.619  21.359  0.00  0.00    +0.000 NA
ATOM     27  N   UNL     1       2.294  14.342  22.020  0.00  0.00    +0.000 NA
ATOM     28  C   UNL     1       3.225  14.653  21.144  0.00  0.00    +0.000 A 
ATOM     29  N   UNL     1       2.885  14.153  19.924  0.00  0.00    +0.000 N 
ATOM     30  C   UNL     1       3.648  14.278  18.712  0.00  0.00    +0.000 C 
ENDBRANCH  24  25
ENDBRANCH  23  24
ENDBRANCH   1  23
TORSDOF 6
ENDMDL
MODEL 8
REMARK VINA RESULT:      -7.9      2.849      3.758
REMARK  Name = 
REMARK  8 active torsions:
REMARK  status: ('A' for Active; 'I' for Inactive)
REMARK    1  A    between atoms: C_1  and  C_2
REMARK    2  A    between atoms: C_2  and  S_3
REMARK    3  A    between atoms: C_2  and  C_10
REMARK    4  A    between atoms: S_3  and  C_4
REMARK    5  A    between atoms: N_8  and  C_9
REMARK    6  A    between atoms: C_14  and  N_15
REMARK    7  A    between atoms: C_16  and  C_18
REMARK    8  A    between atoms: C_20  and  C_21
REMARK                            x       y       z     vdW  Elec       q    Type
REMARK                         _______ _______ _______ _____ _____    ______ ____
ROOT
ATOM      1  C   UNL     1       0.027  10.583  20.457  0.00  0.00    +0.000 A 
ATOM      2  C   UNL     1      -0.107  10.414  21.846  0.00  0.00    +0.000 A 
ATOM      3  C   UNL     1       0.534   9.370  22.504  0.00  0.00    +0.000 A 
ATOM      4  C   UNL     1       1.289   8.451  21.782  0.00  0.00    +0.000 A 
ATOM      5  C   UNL     1       1.400   8.553  20.393  0.00  0.00    +0.000 A 
ATOM      6  C   UNL     1       0.787   9.635  19.742  0.00  0.00    +0.000 A 
ENDROOT
BRANCH   5   7
ATOM      7  N   UNL     1       2.102   7.613  19.610  0.00  0.00    +0.000 N 
ATOM      8  C   UNL     1       2.149   6.245  19.822  0.00  0.00    +0.000 C 
ATOM      9  O   UNL     1       1.599   5.615  20.721  0.00  0.00    +0.000 OA
ATOM     10  H   UNL     1       2.558   7.936  18.761  0.00  0.00    +0.000 HD
BRANCH   8  11
ATOM     11  C   UNL     1       2.944   5.478  18.813  0.00  0.00    +0.000 A 
ATOM     12  C   UNL     1       3.753   6.181  17.924  0.00  0.00    +0.000 A 
ATOM     13  C   UNL     1       4.510   5.470  16.992  0.00  0.00    +0.000 A 
ATOM     14  C   UNL     1       4.415   4.076  16.990  0.00  0.00    +0.000 A 
ATOM     15  C   UNL     1       3.574   3.471  17.917  0.00  0.00    +0.000 A 
ATOM     16 CL   UNL     1       3.414   1.765  17.965  0.00  0.00    +0.000 Cl
ATOM     17  N   UNL     1       2.834   4.127  18.833  0.00  0.00    +0.000 NA
BRANCH  13  18
ATOM     18  C   UNL     1       5.414   6.182  16.022  0.00  0.00    +0.000 C 
ATOM     19  F   UNL     1       4.759   7.046  15.200  0.00  0.00    +0.000 F 
ATOM     20  F   UNL     1       6.369   6.917  16.655  0.00  0.00    +0.000 F 
ATOM     21  F   UNL     1       6.080   5.319  15.207  0.00  0.00    +0.000 F 
ENDBRANCH  13  18
ENDBRANCH   8  11
ENDBRANCH   5   7
BRANCH   1  23
ATOM     22  C   UNL     1      -1.676  11.460  18.756  0.00  0.00    +0.000 C 
ATOM     23  C   UNL     1      -0.616  11.803  19.810  0.00  0.00    +0.000 C 
BRANCH  23  24
ATOM     24  S   UNL     1       0.624  12.869  18.978  0.00  0.00    +0.000 S 
BRANCH  24  25
ATOM     25  C   UNL     1       1.294  13.745  20.305  0.00  0.00    +0.000 A 
ATOM     26  N   UNL     1       2.207  13.330  21.156  0.00  0.00    +0.000 NA
ATOM     27  N   UNL     1       2.462  14.371  22.027  0.00  0.00    +0.000 NA
ATOM     28  C   UNL     1       1.691  15.379  21.681  0.00  0.00    +0.000 A 
ATOM     29  N   UNL     1       0.934  15.024  20.606  0.00  0.00    +0.000 N 
ATOM     30  C   UNL     1      -0.028  15.853  19.933  0.00  0.00    +0.000 C 
ENDBRANCH  24  25
ENDBRANCH  23  24
ENDBRANCH   1  23
TORSDOF 6
ENDMDL
MODEL 9
REMARK VINA RESULT:      -7.9      3.630      4.646
REMARK  Name = 
REMARK  8 active torsions:
REMARK  status: ('A' for Active; 'I' for Inactive)
REMARK    1  A    between atoms: C_1  and  C_2
REMARK    2  A    between atoms: C_2  and  S_3
REMARK    3  A    between atoms: C_2  and  C_10
REMARK    4  A    between atoms: S_3  and  C_4
REMARK    5  A    between atoms: N_8  and  C_9
REMARK    6  A    between atoms: C_14  and  N_15
REMARK    7  A    between atoms: C_16  and  C_18
REMARK    8  A    between atoms: C_20  and  C_21
REMARK                            x       y       z     vdW  Elec       q    Type
REMARK                         _______ _______ _______ _____ _____    ______ ____
ROOT
ATOM      1  C   UNL     1      -0.461  11.113  20.725  0.00  0.00    +0.000 A 
ATOM      2  C   UNL     1      -0.912  11.320  22.040  0.00  0.00    +0.000 A 
ATOM      3  C   UNL     1      -0.602  10.420  23.053  0.00  0.00    +0.000 A 
ATOM      4  C   UNL     1       0.132   9.274  22.763  0.00  0.00    +0.000 A 
ATOM      5  C   UNL     1       0.550   9.004  21.458  0.00  0.00    +0.000 A 
ATOM      6  C   UNL     1       0.271   9.940  20.451  0.00  0.00    +0.000 A 
ENDROOT
BRANCH   5   7
ATOM      7  N   UNL     1       1.242   7.827  21.104  0.00  0.00    +0.000 N 
ATOM      8  C   UNL     1       1.924   7.604  19.919  0.00  0.00    +0.000 C 
ATOM      9  O   UNL     1       2.043   8.382  18.976  0.00  0.00    +0.000 OA
ATOM     10  H   UNL     1       1.327   7.089  21.798  0.00  0.00    +0.000 HD
BRANCH   8  11
ATOM     11  C   UNL     1       2.600   6.274  19.821  0.00  0.00    +0.000 A 
ATOM     12  C   UNL     1       2.019   5.179  20.457  0.00  0.00    +0.000 A 
ATOM     13  C   UNL     1       2.636   3.932  20.354  0.00  0.00    +0.000 A 
ATOM     14  C   UNL     1       3.820   3.840  19.618  0.00  0.00    +0.000 A 
ATOM     15  C   UNL     1       4.320   4.994  19.025  0.00  0.00    +0.000 A 
ATOM     16 CL   UNL     1       5.769   4.947  18.110  0.00  0.00    +0.000 Cl
ATOM     17  N   UNL     1       3.746   6.212  19.100  0.00  0.00    +0.000 NA
BRANCH  13  18
ATOM     18  C   UNL     1       2.038   2.715  21.008  0.00  0.00    +0.000 C 
ATOM     19  F   UNL     1       0.880   2.969  21.674  0.00  0.00    +0.000 F 
ATOM     20  F   UNL     1       1.747   1.739  20.106  0.00  0.00    +0.000 F 
ATOM     21  F   UNL     1       2.880   2.151  21.916  0.00  0.00    +0.000 F 
ENDBRANCH  13  18
ENDBRANCH   8  11
ENDBRANCH   5   7
BRANCH   1  23
ATOM     22  C   UNL     1      -1.578  11.690  18.493  0.00  0.00    +0.000 C 
ATOM     23  C   UNL     1      -0.748  12.187  19.683  0.00  0.00    +0.000 C 
BRANCH  23  24
ATOM     24  S   UNL     1       0.796  12.892  18.986  0.00  0.00    +0.000 S 
BRANCH  24  25
ATOM     25  C   UNL     1       1.446  13.741  20.341  0.00  0.00    +0.000 A 
ATOM     26  N   UNL     1       2.394  13.335  21.156  0.00  0.00    +0.000 NA
ATOM     27  N   UNL     1       2.615  14.347  22.069  0.00  0.00    +0.000 NA
ATOM     28  C   UNL     1       1.788  15.330  21.783  0.00  0.00    +0.000 A 
ATOM     29  N   UNL     1       1.029  14.985  20.706  0.00  0.00    +0.000 N 
ATOM     30  C   UNL     1       0.014  15.794  20.088  0.00  0.00    +0.000 C 
ENDBRANCH  24  25
ENDBRANCH  23  24
ENDBRANCH   1  23
TORSDOF 6
ENDMDL
