MODEL 1
REMARK VINA RESULT:      -9.9      0.000      0.000
REMARK  Name = 
REMARK  9 active torsions:
REMARK  status: ('A' for Active; 'I' for Inactive)
REMARK    1  A    between atoms: C_1  and  C_2
REMARK    2  A    between atoms: C_2  and  C_3
REMARK    3  A    between atoms: C_2  and  C_10
REMARK    4  A    between atoms: C_3  and  C_4
REMARK    5  A    between atoms: N_8  and  C_9
REMARK    6  A    between atoms: C_14  and  N_15
REMARK    7  A    between atoms: C_20  and  C_21
REMARK    8  A    between atoms: C_21  and  N_22
REMARK    9  A    between atoms: C_29  and  C_30
REMARK                            x       y       z     vdW  Elec       q    Type
REMARK                         _______ _______ _______ _____ _____    ______ ____
ROOT
ATOM      1  N   UNL     1       1.686   7.870  20.069  0.00  0.00    +0.000 N 
ATOM      2  C   UNL     1       1.739   6.577  20.711  0.00  0.00    +0.000 C 
ATOM      3  C   UNL     1       2.358   5.692  19.701  0.00  0.00    +0.000 A 
ATOM      4  C   UNL     1       2.843   6.455  18.641  0.00  0.00    +0.000 A 
ATOM      5  C   UNL     1       3.625   5.878  17.653  0.00  0.00    +0.000 A 
ATOM      6  C   UNL     1       3.875   4.486  17.718  0.00  0.00    +0.000 A 
ATOM      7  C   UNL     1       3.285   3.721  18.754  0.00  0.00    +0.000 A 
ATOM      8  C   UNL     1       2.514   4.315  19.759  0.00  0.00    +0.000 A 
ATOM      9  C   UNL     1       2.348   7.855  18.831  0.00  0.00    +0.000 C 
ATOM     10  O   UNL     1       2.513   8.740  18.020  0.00  0.00    +0.000 OA
ENDROOT
BRANCH   1  15
ATOM     11  C   UNL     1      -0.341  11.005  20.297  0.00  0.00    +0.000 A 
ATOM     12  C   UNL     1      -0.497  11.112  21.679  0.00  0.00    +0.000 A 
ATOM     13  C   UNL     1      -0.000  10.115  22.532  0.00  0.00    +0.000 A 
ATOM     14  C   UNL     1       0.669   8.986  22.026  0.00  0.00    +0.000 A 
ATOM     15  C   UNL     1       0.879   8.875  20.659  0.00  0.00    +0.000 A 
ATOM     16  C   UNL     1       0.351   9.881  19.822  0.00  0.00    +0.000 A 
BRANCH  11  18
ATOM     17  C   UNL     1      -0.313  13.461  19.534  0.00  0.00    +0.000 C 
ATOM     18  C   UNL     1      -0.819  12.037  19.270  0.00  0.00    +0.000 C 
BRANCH  18  19
ATOM     19  C   UNL     1      -2.364  11.995  19.139  0.00  0.00    +0.000 C 
BRANCH  19  20
ATOM     20  C   UNL     1      -2.826  11.508  17.807  0.00  0.00    +0.000 A 
ATOM     21  N   UNL     1      -2.072  10.995  16.856  0.00  0.00    +0.000 NA
ATOM     22  N   UNL     1      -2.874  10.721  15.772  0.00  0.00    +0.000 NA
ATOM     23  C   UNL     1      -4.101  11.062  16.090  0.00  0.00    +0.000 A 
ATOM     24  N   UNL     1      -4.122  11.537  17.363  0.00  0.00    +0.000 N 
ATOM     25  C   UNL     1      -5.283  11.979  18.088  0.00  0.00    +0.000 C 
ENDBRANCH  19  20
ENDBRANCH  18  19
ENDBRANCH  11  18
ENDBRANCH   1  15
BRANCH   8  26
ATOM     26  C   UNL     1       1.873   3.471  20.834  0.00  0.00    +0.000 C 
ATOM     27  F   UNL     1       0.518   3.580  20.884  0.00  0.00    +0.000 F 
ATOM     28  F   UNL     1       2.129   2.146  20.665  0.00  0.00    +0.000 F 
ATOM     29  F   UNL     1       2.312   3.790  22.081  0.00  0.00    +0.000 F 
ENDBRANCH   8  26
BRANCH   6  30
ATOM     30  C   UNL     1       4.857   3.831  16.752  0.00  0.00    +0.000 C 
BRANCH  30  31
ATOM     31  N   UNL     1       5.700   4.777  15.996  0.00  0.00    +0.000 NA
ATOM     32  C   UNL     1       6.978   4.163  15.585  0.00  0.00    +0.000 C 
ATOM     33  C   UNL     1       6.685   4.502  14.110  0.00  0.00    +0.000 C 
ATOM     34  F   UNL     1       6.787   3.468  13.240  0.00  0.00    +0.000 F 
ATOM     35  F   UNL     1       7.391   5.528  13.578  0.00  0.00    +0.000 F 
ATOM     36  C   UNL     1       5.257   4.836  14.587  0.00  0.00    +0.000 C 
ENDBRANCH  30  31
ENDBRANCH   6  30
TORSDOF 7
ENDMDL
MODEL 2
REMARK VINA RESULT:      -9.5      0.622      1.051
REMARK  Name = 
REMARK  9 active torsions:
REMARK  status: ('A' for Active; 'I' for Inactive)
REMARK    1  A    between atoms: C_1  and  C_2
REMARK    2  A    between atoms: C_2  and  C_3
REMARK    3  A    between atoms: C_2  and  C_10
REMARK    4  A    between atoms: C_3  and  C_4
REMARK    5  A    between atoms: N_8  and  C_9
REMARK    6  A    between atoms: C_14  and  N_15
REMARK    7  A    between atoms: C_20  and  C_21
REMARK    8  A    between atoms: C_21  and  N_22
REMARK    9  A    between atoms: C_29  and  C_30
REMARK                            x       y       z     vdW  Elec       q    Type
REMARK                         _______ _______ _______ _____ _____    ______ ____
ROOT
ATOM      1  N   UNL     1       1.525   8.112  20.209  0.00  0.00    +0.000 N 
ATOM      2  C   UNL     1       1.605   6.805  20.821  0.00  0.00    +0.000 C 
ATOM      3  C   UNL     1       2.415   6.008  19.874  0.00  0.00    +0.000 A 
ATOM      4  C   UNL     1       2.962   6.845  18.903  0.00  0.00    +0.000 A 
ATOM      5  C   UNL     1       3.905   6.367  18.007  0.00  0.00    +0.000 A 
ATOM      6  C   UNL     1       4.259   4.998  18.067  0.00  0.00    +0.000 A 
ATOM      7  C   UNL     1       3.612   4.152  19.001  0.00  0.00    +0.000 A 
ATOM      8  C   UNL     1       2.676   4.647  19.916  0.00  0.00    +0.000 A 
ATOM      9  C   UNL     1       2.332   8.193  19.065  0.00  0.00    +0.000 C 
ATOM     10  O   UNL     1       2.522   9.117  18.303  0.00  0.00    +0.000 OA
ENDROOT
BRANCH   1  15
ATOM     11  C   UNL     1      -0.801  11.041  20.246  0.00  0.00    +0.000 A 
ATOM     12  C   UNL     1      -1.108  11.111  21.605  0.00  0.00    +0.000 A 
ATOM     13  C   UNL     1      -0.609  10.151  22.499  0.00  0.00    +0.000 A 
ATOM     14  C   UNL     1       0.211   9.098  22.058  0.00  0.00    +0.000 A 
ATOM     15  C   UNL     1       0.570   9.028  20.719  0.00  0.00    +0.000 A 
ATOM     16  C   UNL     1       0.039   9.994  19.838  0.00  0.00    +0.000 A 
BRANCH  11  18
ATOM     17  C   UNL     1      -1.002  13.507  19.545  0.00  0.00    +0.000 C 
ATOM     18  C   UNL     1      -1.265  12.041  19.182  0.00  0.00    +0.000 C 
BRANCH  18  19
ATOM     19  C   UNL     1      -2.756  11.799  18.827  0.00  0.00    +0.000 C 
BRANCH  19  20
ATOM     20  C   UNL     1      -2.947  11.214  17.467  0.00  0.00    +0.000 A 
ATOM     21  N   UNL     1      -2.068  10.503  16.790  0.00  0.00    +0.000 NA
ATOM     22  N   UNL     1      -2.615  10.199  15.564  0.00  0.00    +0.000 NA
ATOM     23  C   UNL     1      -3.819  10.721  15.526  0.00  0.00    +0.000 A 
ATOM     24  N   UNL     1      -4.078  11.345  16.705  0.00  0.00    +0.000 N 
ATOM     25  C   UNL     1      -5.302  12.008  17.066  0.00  0.00    +0.000 C 
ENDBRANCH  19  20
ENDBRANCH  18  19
ENDBRANCH  11  18
ENDBRANCH   1  15
BRANCH   8  26
ATOM     26  C   UNL     1       1.981   3.717  20.880  0.00  0.00    +0.000 C 
ATOM     27  F   UNL     1       2.265   2.402  20.677  0.00  0.00    +0.000 F 
ATOM     28  F   UNL     1       2.323   3.971  22.172  0.00  0.00    +0.000 F 
ATOM     29  F   UNL     1       0.627   3.813  20.816  0.00  0.00    +0.000 F 
ENDBRANCH   8  26
BRANCH   6  30
ATOM     30  C   UNL     1       5.404   4.458  17.216  0.00  0.00    +0.000 C 
BRANCH  30  31
ATOM     31  N   UNL     1       5.058   4.214  15.802  0.00  0.00    +0.000 NA
ATOM     32  C   UNL     1       5.402   5.367  14.947  0.00  0.00    +0.000 C 
ATOM     33  C   UNL     1       6.271   4.463  14.050  0.00  0.00    +0.000 C 
ATOM     34  F   UNL     1       7.536   4.896  13.831  0.00  0.00    +0.000 F 
ATOM     35  F   UNL     1       5.755   4.146  12.839  0.00  0.00    +0.000 F 
ATOM     36  C   UNL     1       6.110   3.401  15.155  0.00  0.00    +0.000 C 
ENDBRANCH  30  31
ENDBRANCH   6  30
TORSDOF 7
ENDMDL
MODEL 3
REMARK VINA RESULT:      -9.4      1.396      1.799
REMARK  Name = 
REMARK  9 active torsions:
REMARK  status: ('A' for Active; 'I' for Inactive)
REMARK    1  A    between atoms: C_1  and  C_2
REMARK    2  A    between atoms: C_2  and  C_3
REMARK    3  A    between atoms: C_2  and  C_10
REMARK    4  A    between atoms: C_3  and  C_4
REMARK    5  A    between atoms: N_8  and  C_9
REMARK    6  A    between atoms: C_14  and  N_15
REMARK    7  A    between atoms: C_20  and  C_21
REMARK    8  A    between atoms: C_21  and  N_22
REMARK    9  A    between atoms: C_29  and  C_30
REMARK                            x       y       z     vdW  Elec       q    Type
REMARK                         _______ _______ _______ _____ _____    ______ ____
ROOT
ATOM      1  N   UNL     1       1.638   7.786  20.221  0.00  0.00    +0.000 N 
ATOM      2  C   UNL     1       1.717   6.482  20.838  0.00  0.00    +0.000 C 
ATOM      3  C   UNL     1       2.320   5.621  19.797  0.00  0.00    +0.000 A 
ATOM      4  C   UNL     1       2.773   6.408  18.741  0.00  0.00    +0.000 A 
ATOM      5  C   UNL     1       3.537   5.856  17.725  0.00  0.00    +0.000 A 
ATOM      6  C   UNL     1       3.800   4.465  17.758  0.00  0.00    +0.000 A 
ATOM      7  C   UNL     1       3.241   3.676  18.793  0.00  0.00    +0.000 A 
ATOM      8  C   UNL     1       2.488   4.245  19.827  0.00  0.00    +0.000 A 
ATOM      9  C   UNL     1       2.271   7.799  18.968  0.00  0.00    +0.000 C 
ATOM     10  O   UNL     1       2.410   8.700  18.169  0.00  0.00    +0.000 OA
ENDROOT
BRANCH   1  15
ATOM     11  C   UNL     1      -0.527  10.821  20.525  0.00  0.00    +0.000 A 
ATOM     12  C   UNL     1      -0.558  10.978  21.911  0.00  0.00    +0.000 A 
ATOM     13  C   UNL     1       0.071  10.045  22.750  0.00  0.00    +0.000 A 
ATOM     14  C   UNL     1       0.750   8.932  22.224  0.00  0.00    +0.000 A 
ATOM     15  C   UNL     1       0.836   8.773  20.848  0.00  0.00    +0.000 A 
ATOM     16  C   UNL     1       0.177   9.714  20.028  0.00  0.00    +0.000 A 
BRANCH  11  18
ATOM     17  C   UNL     1      -0.150  12.403  18.533  0.00  0.00    +0.000 C 
ATOM     18  C   UNL     1      -1.155  11.783  19.512  0.00  0.00    +0.000 C 
BRANCH  18  19
ATOM     19  C   UNL     1      -1.987  12.870  20.242  0.00  0.00    +0.000 C 
BRANCH  19  20
ATOM     20  C   UNL     1      -3.450  12.580  20.252  0.00  0.00    +0.000 A 
ATOM     21  N   UNL     1      -4.182  12.208  19.221  0.00  0.00    +0.000 NA
ATOM     22  N   UNL     1      -5.488  12.093  19.640  0.00  0.00    +0.000 NA
ATOM     23  C   UNL     1      -5.521  12.386  20.918  0.00  0.00    +0.000 A 
ATOM     24  N   UNL     1      -4.265  12.674  21.349  0.00  0.00    +0.000 N 
ATOM     25  C   UNL     1      -3.882  13.009  22.694  0.00  0.00    +0.000 C 
ENDBRANCH  19  20
ENDBRANCH  18  19
ENDBRANCH  11  18
ENDBRANCH   1  15
BRANCH   8  26
ATOM     26  C   UNL     1       1.880   3.376  20.900  0.00  0.00    +0.000 C 
ATOM     27  F   UNL     1       0.524   3.458  20.972  0.00  0.00    +0.000 F 
ATOM     28  F   UNL     1       2.158   2.058  20.710  0.00  0.00    +0.000 F 
ATOM     29  F   UNL     1       2.332   3.687  22.144  0.00  0.00    +0.000 F 
ENDBRANCH   8  26
BRANCH   6  30
ATOM     30  C   UNL     1       4.765   3.837  16.758  0.00  0.00    +0.000 C 
BRANCH  30  31
ATOM     31  N   UNL     1       5.645   4.797  16.065  0.00  0.00    +0.000 NA
ATOM     32  C   UNL     1       6.929   4.180  15.676  0.00  0.00    +0.000 C 
ATOM     33  C   UNL     1       6.691   4.576  14.205  0.00  0.00    +0.000 C 
ATOM     34  F   UNL     1       6.810   3.572  13.302  0.00  0.00    +0.000 F 
ATOM     35  F   UNL     1       7.428   5.609  13.735  0.00  0.00    +0.000 F 
ATOM     36  C   UNL     1       5.252   4.912  14.645  0.00  0.00    +0.000 C 
ENDBRANCH  30  31
ENDBRANCH   6  30
TORSDOF 7
ENDMDL
MODEL 4
REMARK VINA RESULT:      -9.4      1.557      1.918
REMARK  Name = 
REMARK  9 active torsions:
REMARK  status: ('A' for Active; 'I' for Inactive)
REMARK    1  A    between atoms: C_1  and  C_2
REMARK    2  A    between atoms: C_2  and  C_3
REMARK    3  A    between atoms: C_2  and  C_10
REMARK    4  A    between atoms: C_3  and  C_4
REMARK    5  A    between atoms: N_8  and  C_9
REMARK    6  A    between atoms: C_14  and  N_15
REMARK    7  A    between atoms: C_20  and  C_21
REMARK    8  A    between atoms: C_21  and  N_22
REMARK    9  A    between atoms: C_29  and  C_30
REMARK                            x       y       z     vdW  Elec       q    Type
REMARK                         _______ _______ _______ _____ _____    ______ ____
ROOT
ATOM      1  N   UNL     1       1.523   8.168  20.252  0.00  0.00    +0.000 N 
ATOM      2  C   UNL     1       1.674   6.834  20.785  0.00  0.00    +0.000 C 
ATOM      3  C   UNL     1       2.240   6.055  19.663  0.00  0.00    +0.000 A 
ATOM      4  C   UNL     1       2.609   6.915  18.632  0.00  0.00    +0.000 A 
ATOM      5  C   UNL     1       3.329   6.447  17.543  0.00  0.00    +0.000 A 
ATOM      6  C   UNL     1       3.633   5.066  17.479  0.00  0.00    +0.000 A 
ATOM      7  C   UNL     1       3.158   4.201  18.495  0.00  0.00    +0.000 A 
ATOM      8  C   UNL     1       2.450   4.684  19.602  0.00  0.00    +0.000 A 
ATOM      9  C   UNL     1       2.081   8.274  18.969  0.00  0.00    +0.000 C 
ATOM     10  O   UNL     1       2.148   9.223  18.218  0.00  0.00    +0.000 OA
ENDROOT
BRANCH   1  15
ATOM     11  C   UNL     1       0.028  11.459  21.213  0.00  0.00    +0.000 A 
ATOM     12  C   UNL     1      -0.546  11.133  22.443  0.00  0.00    +0.000 A 
ATOM     13  C   UNL     1      -0.506   9.815  22.921  0.00  0.00    +0.000 A 
ATOM     14  C   UNL     1       0.112   8.788  22.185  0.00  0.00    +0.000 A 
ATOM     15  C   UNL     1       0.730   9.091  20.980  0.00  0.00    +0.000 A 
ATOM     16  C   UNL     1       0.658  10.420  20.512  0.00  0.00    +0.000 A 
BRANCH  11  18
ATOM     17  C   UNL     1       0.907  13.870  21.396  0.00  0.00    +0.000 C 
ATOM     18  C   UNL     1       0.068  12.863  20.600  0.00  0.00    +0.000 C 
BRANCH  18  19
ATOM     19  C   UNL     1      -1.372  13.387  20.356  0.00  0.00    +0.000 C 
BRANCH  19  20
ATOM     20  C   UNL     1      -2.128  12.578  19.356  0.00  0.00    +0.000 A 
ATOM     21  N   UNL     1      -1.646  12.050  18.249  0.00  0.00    +0.000 NA
ATOM     22  N   UNL     1      -2.677  11.427  17.584  0.00  0.00    +0.000 NA
ATOM     23  C   UNL     1      -3.763  11.579  18.306  0.00  0.00    +0.000 A 
ATOM     24  N   UNL     1      -3.461  12.272  19.435  0.00  0.00    +0.000 N 
ATOM     25  C   UNL     1      -4.373  12.610  20.495  0.00  0.00    +0.000 C 
ENDBRANCH  19  20
ENDBRANCH  18  19
ENDBRANCH  11  18
ENDBRANCH   1  15
BRANCH   8  26
ATOM     26  C   UNL     1       1.930   3.736  20.654  0.00  0.00    +0.000 C 
ATOM     27  F   UNL     1       0.574   3.730  20.767  0.00  0.00    +0.000 F 
ATOM     28  F   UNL     1       2.282   2.447  20.400  0.00  0.00    +0.000 F 
ATOM     29  F   UNL     1       2.399   4.025  21.897  0.00  0.00    +0.000 F 
ENDBRANCH   8  26
BRANCH   6  30
ATOM     30  C   UNL     1       4.556   4.527  16.392  0.00  0.00    +0.000 C 
BRANCH  30  31
ATOM     31  N   UNL     1       5.816   3.941  16.888  0.00  0.00    +0.000 NA
ATOM     32  C   UNL     1       6.997   4.579  16.272  0.00  0.00    +0.000 C 
ATOM     33  C   UNL     1       7.555   4.930  17.666  0.00  0.00    +0.000 C 
ATOM     34  F   UNL     1       7.900   6.227  17.850  0.00  0.00    +0.000 F 
ATOM     35  F   UNL     1       8.599   4.185  18.099  0.00  0.00    +0.000 F 
ATOM     36  C   UNL     1       6.166   4.526  18.200  0.00  0.00    +0.000 C 
ENDBRANCH  30  31
ENDBRANCH   6  30
TORSDOF 7
ENDMDL
MODEL 5
REMARK VINA RESULT:      -9.4      1.617      1.986
REMARK  Name = 
REMARK  9 active torsions:
REMARK  status: ('A' for Active; 'I' for Inactive)
REMARK    1  A    between atoms: C_1  and  C_2
REMARK    2  A    between atoms: C_2  and  C_3
REMARK    3  A    between atoms: C_2  and  C_10
REMARK    4  A    between atoms: C_3  and  C_4
REMARK    5  A    between atoms: N_8  and  C_9
REMARK    6  A    between atoms: C_14  and  N_15
REMARK    7  A    between atoms: C_20  and  C_21
REMARK    8  A    between atoms: C_21  and  N_22
REMARK    9  A    between atoms: C_29  and  C_30
REMARK                            x       y       z     vdW  Elec       q    Type
REMARK                         _______ _______ _______ _____ _____    ______ ____
ROOT
ATOM      1  N   UNL     1       1.252   8.612  20.193  0.00  0.00    +0.000 N 
ATOM      2  C   UNL     1       1.487   7.292  20.734  0.00  0.00    +0.000 C 
ATOM      3  C   UNL     1       2.189   6.573  19.649  0.00  0.00    +0.000 A 
ATOM      4  C   UNL     1       2.544   7.469  18.643  0.00  0.00    +0.000 A 
ATOM      5  C   UNL     1       3.369   7.074  17.602  0.00  0.00    +0.000 A 
ATOM      6  C   UNL     1       3.797   5.725  17.556  0.00  0.00    +0.000 A 
ATOM      7  C   UNL     1       3.337   4.816  18.539  0.00  0.00    +0.000 A 
ATOM      8  C   UNL     1       2.522   5.228  19.599  0.00  0.00    +0.000 A 
ATOM      9  C   UNL     1       1.877   8.775  18.948  0.00  0.00    +0.000 C 
ATOM     10  O   UNL     1       1.907   9.731  18.204  0.00  0.00    +0.000 OA
ENDROOT
BRANCH   1  15
ATOM     11  C   UNL     1      -1.128  11.452  20.703  0.00  0.00    +0.000 A 
ATOM     12  C   UNL     1      -1.284  11.413  22.089  0.00  0.00    +0.000 A 
ATOM     13  C   UNL     1      -0.666  10.408  22.849  0.00  0.00    +0.000 A 
ATOM     14  C   UNL     1       0.127   9.417  22.242  0.00  0.00    +0.000 A 
ATOM     15  C   UNL     1       0.337   9.457  20.871  0.00  0.00    +0.000 A 
ATOM     16  C   UNL     1      -0.313  10.466  20.129  0.00  0.00    +0.000 A 
BRANCH  11  18
ATOM     17  C   UNL     1      -1.744  13.926  20.365  0.00  0.00    +0.000 C 
ATOM     18  C   UNL     1      -1.732  12.510  19.775  0.00  0.00    +0.000 C 
BRANCH  18  19
ATOM     19  C   UNL     1      -3.146  12.075  19.306  0.00  0.00    +0.000 C 
BRANCH  19  20
ATOM     20  C   UNL     1      -3.167  11.568  17.903  0.00  0.00    +0.000 A 
ATOM     21  N   UNL     1      -2.130  11.156  17.203  0.00  0.00    +0.000 NA
ATOM     22  N   UNL     1      -2.568  10.820  15.943  0.00  0.00    +0.000 NA
ATOM     23  C   UNL     1      -3.864  11.023  15.906  0.00  0.00    +0.000 A 
ATOM     24  N   UNL     1      -4.286  11.469  17.118  0.00  0.00    +0.000 N 
ATOM     25  C   UNL     1      -5.642  11.772  17.489  0.00  0.00    +0.000 C 
ENDBRANCH  19  20
ENDBRANCH  18  19
ENDBRANCH  11  18
ENDBRANCH   1  15
BRANCH   8  26
ATOM     26  C   UNL     1       2.023   4.230  20.616  0.00  0.00    +0.000 C 
ATOM     27  F   UNL     1       2.366   4.533  21.897  0.00  0.00    +0.000 F 
ATOM     28  F   UNL     1       0.666   4.132  20.613  0.00  0.00    +0.000 F 
ATOM     29  F   UNL     1       2.499   2.976  20.396  0.00  0.00    +0.000 F 
ENDBRANCH   8  26
BRANCH   6  30
ATOM     30  C   UNL     1       4.830   5.277  16.527  0.00  0.00    +0.000 C 
BRANCH  30  31
ATOM     31  N   UNL     1       5.883   6.270  16.239  0.00  0.00    +0.000 NA
ATOM     32  C   UNL     1       5.993   7.279  17.313  0.00  0.00    +0.000 C 
ATOM     33  C   UNL     1       7.487   6.945  17.494  0.00  0.00    +0.000 C 
ATOM     34  F   UNL     1       7.875   6.666  18.762  0.00  0.00    +0.000 F 
ATOM     35  F   UNL     1       8.368   7.852  17.010  0.00  0.00    +0.000 F 
ATOM     36  C   UNL     1       7.209   5.723  16.597  0.00  0.00    +0.000 C 
ENDBRANCH  30  31
ENDBRANCH   6  30
TORSDOF 7
ENDMDL
MODEL 6
REMARK VINA RESULT:      -9.3      1.692      2.753
REMARK  Name = 
REMARK  9 active torsions:
REMARK  status: ('A' for Active; 'I' for Inactive)
REMARK    1  A    between atoms: C_1  and  C_2
REMARK    2  A    between atoms: C_2  and  C_3
REMARK    3  A    between atoms: C_2  and  C_10
REMARK    4  A    between atoms: C_3  and  C_4
REMARK    5  A    between atoms: N_8  and  C_9
REMARK    6  A    between atoms: C_14  and  N_15
REMARK    7  A    between atoms: C_20  and  C_21
REMARK    8  A    between atoms: C_21  and  N_22
REMARK    9  A    between atoms: C_29  and  C_30
REMARK                            x       y       z     vdW  Elec       q    Type
REMARK                         _______ _______ _______ _____ _____    ______ ____
ROOT
ATOM      1  N   UNL     1       1.651   8.138  19.803  0.00  0.00    +0.000 N 
ATOM      2  C   UNL     1       1.733   6.883  20.515  0.00  0.00    +0.000 C 
ATOM      3  C   UNL     1       2.348   5.952  19.544  0.00  0.00    +0.000 A 
ATOM      4  C   UNL     1       2.804   6.662  18.435  0.00  0.00    +0.000 A 
ATOM      5  C   UNL     1       3.577   6.042  17.467  0.00  0.00    +0.000 A 
ATOM      6  C   UNL     1       3.848   4.659  17.604  0.00  0.00    +0.000 A 
ATOM      7  C   UNL     1       3.287   3.945  18.690  0.00  0.00    +0.000 A 
ATOM      8  C   UNL     1       2.524   4.583  19.675  0.00  0.00    +0.000 A 
ATOM      9  C   UNL     1       2.291   8.063  18.556  0.00  0.00    +0.000 C 
ATOM     10  O   UNL     1       2.430   8.904  17.694  0.00  0.00    +0.000 OA
ENDROOT
BRANCH   1  15
ATOM     11  C   UNL     1      -0.784  10.977  19.868  0.00  0.00    +0.000 A 
ATOM     12  C   UNL     1      -0.632  11.417  21.183  0.00  0.00    +0.000 A 
ATOM     13  C   UNL     1       0.215  10.736  22.071  0.00  0.00    +0.000 A 
ATOM     14  C   UNL     1       0.935   9.598  21.665  0.00  0.00    +0.000 A 
ATOM     15  C   UNL     1       0.839   9.163  20.351  0.00  0.00    +0.000 A 
ATOM     16  C   UNL     1      -0.035   9.854  19.485  0.00  0.00    +0.000 A 
BRANCH  11  18
ATOM     17  C   UNL     1      -2.543  10.677  18.016  0.00  0.00    +0.000 C 
ATOM     18  C   UNL     1      -1.658  11.650  18.805  0.00  0.00    +0.000 C 
BRANCH  18  19
ATOM     19  C   UNL     1      -0.788  12.523  17.864  0.00  0.00    +0.000 C 
BRANCH  19  20
ATOM     20  C   UNL     1      -0.010  13.570  18.588  0.00  0.00    +0.000 A 
ATOM     21  N   UNL     1      -0.498  14.647  19.170  0.00  0.00    +0.000 NA
ATOM     22  N   UNL     1       0.553  15.376  19.677  0.00  0.00    +0.000 NA
ATOM     23  C   UNL     1       1.657  14.722  19.405  0.00  0.00    +0.000 A 
ATOM     24  N   UNL     1       1.351  13.574  18.745  0.00  0.00    +0.000 N 
ATOM     25  C   UNL     1       2.283  12.571  18.304  0.00  0.00    +0.000 C 
ENDBRANCH  19  20
ENDBRANCH  18  19
ENDBRANCH  11  18
ENDBRANCH   1  15
BRANCH   8  26
ATOM     26  C   UNL     1       1.915   3.791  20.806  0.00  0.00    +0.000 C 
ATOM     27  F   UNL     1       2.180   2.458  20.749  0.00  0.00    +0.000 F 
ATOM     28  F   UNL     1       2.366   4.204  22.021  0.00  0.00    +0.000 F 
ATOM     29  F   UNL     1       0.560   3.893  20.846  0.00  0.00    +0.000 F 
ENDBRANCH   8  26
BRANCH   6  30
ATOM     30  C   UNL     1       4.823   3.965  16.658  0.00  0.00    +0.000 C 
BRANCH  30  31
ATOM     31  N   UNL     1       5.777   4.868  15.986  0.00  0.00    +0.000 NA
ATOM     32  C   UNL     1       7.013   4.163  15.592  0.00  0.00    +0.000 C 
ATOM     33  C   UNL     1       6.814   4.600  14.127  0.00  0.00    +0.000 C 
ATOM     34  F   UNL     1       6.861   3.607  13.207  0.00  0.00    +0.000 F 
ATOM     35  F   UNL     1       7.628   5.584  13.678  0.00  0.00    +0.000 F 
ATOM     36  C   UNL     1       5.402   5.037  14.566  0.00  0.00    +0.000 C 
ENDBRANCH  30  31
ENDBRANCH   6  30
TORSDOF 7
ENDMDL
MODEL 7
REMARK VINA RESULT:      -9.3      1.635      2.017
REMARK  Name = 
REMARK  9 active torsions:
REMARK  status: ('A' for Active; 'I' for Inactive)
REMARK    1  A    between atoms: C_1  and  C_2
REMARK    2  A    between atoms: C_2  and  C_3
REMARK    3  A    between atoms: C_2  and  C_10
REMARK    4  A    between atoms: C_3  and  C_4
REMARK    5  A    between atoms: N_8  and  C_9
REMARK    6  A    between atoms: C_14  and  N_15
REMARK    7  A    between atoms: C_20  and  C_21
REMARK    8  A    between atoms: C_21  and  N_22
REMARK    9  A    between atoms: C_29  and  C_30
REMARK                            x       y       z     vdW  Elec       q    Type
REMARK                         _______ _______ _______ _____ _____    ______ ____
ROOT
ATOM      1  N   UNL     1       1.578   8.534  19.665  0.00  0.00    +0.000 N 
ATOM      2  C   UNL     1       1.688   7.260  20.338  0.00  0.00    +0.000 C 
ATOM      3  C   UNL     1       2.293   6.365  19.328  0.00  0.00    +0.000 A 
ATOM      4  C   UNL     1       2.718   7.111  18.232  0.00  0.00    +0.000 A 
ATOM      5  C   UNL     1       3.479   6.528  17.231  0.00  0.00    +0.000 A 
ATOM      6  C   UNL     1       3.767   5.145  17.322  0.00  0.00    +0.000 A 
ATOM      7  C   UNL     1       3.236   4.394  18.398  0.00  0.00    +0.000 A 
ATOM      8  C   UNL     1       2.486   4.994  19.416  0.00  0.00    +0.000 A 
ATOM      9  C   UNL     1       2.194   8.503  18.404  0.00  0.00    +0.000 C 
ATOM     10  O   UNL     1       2.306   9.369  17.564  0.00  0.00    +0.000 OA
ENDROOT
BRANCH   1  15
ATOM     11  C   UNL     1      -1.124  11.107  19.930  0.00  0.00    +0.000 A 
ATOM     12  C   UNL     1      -0.782  11.717  21.138  0.00  0.00    +0.000 A 
ATOM     13  C   UNL     1       0.292  11.235  21.902  0.00  0.00    +0.000 A 
ATOM     14  C   UNL     1       1.055  10.133  21.476  0.00  0.00    +0.000 A 
ATOM     15  C   UNL     1       0.766   9.534  20.258  0.00  0.00    +0.000 A 
ATOM     16  C   UNL     1      -0.331  10.025  19.520  0.00  0.00    +0.000 A 
BRANCH  11  18
ATOM     17  C   UNL     1      -3.226  12.561  19.639  0.00  0.00    +0.000 C 
ATOM     18  C   UNL     1      -2.256  11.557  19.002  0.00  0.00    +0.000 C 
BRANCH  18  19
ATOM     19  C   UNL     1      -3.004  10.326  18.426  0.00  0.00    +0.000 C 
BRANCH  19  20
ATOM     20  C   UNL     1      -3.131  10.360  16.940  0.00  0.00    +0.000 A 
ATOM     21  N   UNL     1      -2.323   9.786  16.071  0.00  0.00    +0.000 NA
ATOM     22  N   UNL     1      -2.761  10.099  14.805  0.00  0.00    +0.000 NA
ATOM     23  C   UNL     1      -3.832  10.848  14.929  0.00  0.00    +0.000 A 
ATOM     24  N   UNL     1      -4.114  11.017  16.247  0.00  0.00    +0.000 N 
ATOM     25  C   UNL     1      -5.228  11.745  16.793  0.00  0.00    +0.000 C 
ENDBRANCH  19  20
ENDBRANCH  18  19
ENDBRANCH  11  18
ENDBRANCH   1  15
BRANCH   8  26
ATOM     26  C   UNL     1       1.908   4.163  20.535  0.00  0.00    +0.000 C 
ATOM     27  F   UNL     1       2.141   2.829  20.407  0.00  0.00    +0.000 F 
ATOM     28  F   UNL     1       2.419   4.510  21.747  0.00  0.00    +0.000 F 
ATOM     29  F   UNL     1       0.558   4.291  20.639  0.00  0.00    +0.000 F 
ENDBRANCH   8  26
BRANCH   6  30
ATOM     30  C   UNL     1       4.730   4.489  16.338  0.00  0.00    +0.000 C 
BRANCH  30  31
ATOM     31  N   UNL     1       5.977   3.983  16.942  0.00  0.00    +0.000 NA
ATOM     32  C   UNL     1       7.163   4.702  16.434  0.00  0.00    +0.000 C 
ATOM     33  C   UNL     1       7.571   5.076  17.873  0.00  0.00    +0.000 C 
ATOM     34  F   UNL     1       7.812   6.392  18.091  0.00  0.00    +0.000 F 
ATOM     35  F   UNL     1       8.620   4.398  18.395  0.00  0.00    +0.000 F 
ATOM     36  C   UNL     1       6.171   4.578  18.281  0.00  0.00    +0.000 C 
ENDBRANCH  30  31
ENDBRANCH   6  30
TORSDOF 7
ENDMDL
MODEL 8
REMARK VINA RESULT:      -9.3      2.362      3.697
REMARK  Name = 
REMARK  9 active torsions:
REMARK  status: ('A' for Active; 'I' for Inactive)
REMARK    1  A    between atoms: C_1  and  C_2
REMARK    2  A    between atoms: C_2  and  C_3
REMARK    3  A    between atoms: C_2  and  C_10
REMARK    4  A    between atoms: C_3  and  C_4
REMARK    5  A    between atoms: N_8  and  C_9
REMARK    6  A    between atoms: C_14  and  N_15
REMARK    7  A    between atoms: C_20  and  C_21
REMARK    8  A    between atoms: C_21  and  N_22
REMARK    9  A    between atoms: C_29  and  C_30
REMARK                            x       y       z     vdW  Elec       q    Type
REMARK                         _______ _______ _______ _____ _____    ______ ____
ROOT
ATOM      1  N   UNL     1       1.650   7.959  20.080  0.00  0.00    +0.000 N 
ATOM      2  C   UNL     1       1.738   6.679  20.745  0.00  0.00    +0.000 C 
ATOM      3  C   UNL     1       2.328   5.780  19.730  0.00  0.00    +0.000 A 
ATOM      4  C   UNL     1       2.767   6.527  18.639  0.00  0.00    +0.000 A 
ATOM      5  C   UNL     1       3.518   5.937  17.634  0.00  0.00    +0.000 A 
ATOM      6  C   UNL     1       3.782   4.549  17.716  0.00  0.00    +0.000 A 
ATOM      7  C   UNL     1       3.238   3.800  18.787  0.00  0.00    +0.000 A 
ATOM      8  C   UNL     1       2.498   4.406  19.809  0.00  0.00    +0.000 A 
ATOM      9  C   UNL     1       2.266   7.926  18.820  0.00  0.00    +0.000 C 
ATOM     10  O   UNL     1       2.393   8.796  17.986  0.00  0.00    +0.000 OA
ENDROOT
BRANCH   1  15
ATOM     11  C   UNL     1       0.252  11.375  20.686  0.00  0.00    +0.000 A 
ATOM     12  C   UNL     1      -0.418  11.170  21.893  0.00  0.00    +0.000 A 
ATOM     13  C   UNL     1      -0.472   9.892  22.471  0.00  0.00    +0.000 A 
ATOM     14  C   UNL     1       0.144   8.786  21.858  0.00  0.00    +0.000 A 
ATOM     15  C   UNL     1       0.855   8.968  20.680  0.00  0.00    +0.000 A 
ATOM     16  C   UNL     1       0.877  10.259  20.110  0.00  0.00    +0.000 A 
BRANCH  11  18
ATOM     17  C   UNL     1      -0.753  13.054  19.017  0.00  0.00    +0.000 C 
ATOM     18  C   UNL     1       0.398  12.723  19.974  0.00  0.00    +0.000 C 
BRANCH  18  19
ATOM     19  C   UNL     1       1.775  12.813  19.264  0.00  0.00    +0.000 C 
BRANCH  19  20
ATOM     20  C   UNL     1       2.762  13.652  20.004  0.00  0.00    +0.000 A 
ATOM     21  N   UNL     1       3.042  13.583  21.290  0.00  0.00    +0.000 NA
ATOM     22  N   UNL     1       3.966  14.560  21.582  0.00  0.00    +0.000 NA
ATOM     23  C   UNL     1       4.237  15.196  20.467  0.00  0.00    +0.000 A 
ATOM     24  N   UNL     1       3.525  14.646  19.449  0.00  0.00    +0.000 N 
ATOM     25  C   UNL     1       3.572  15.040  18.066  0.00  0.00    +0.000 C 
ENDBRANCH  19  20
ENDBRANCH  18  19
ENDBRANCH  11  18
ENDBRANCH   1  15
BRANCH   8  26
ATOM     26  C   UNL     1       1.906   3.578  20.922  0.00  0.00    +0.000 C 
ATOM     27  F   UNL     1       2.209   2.253  20.844  0.00  0.00    +0.000 F 
ATOM     28  F   UNL     1       2.340   3.981  22.147  0.00  0.00    +0.000 F 
ATOM     29  F   UNL     1       0.548   3.641  20.957  0.00  0.00    +0.000 F 
ENDBRANCH   8  26
BRANCH   6  30
ATOM     30  C   UNL     1       4.735   3.884  16.728  0.00  0.00    +0.000 C 
BRANCH  30  31
ATOM     31  N   UNL     1       5.627   4.815  16.011  0.00  0.00    +0.000 NA
ATOM     32  C   UNL     1       6.906   4.175  15.645  0.00  0.00    +0.000 C 
ATOM     33  C   UNL     1       6.677   4.530  14.162  0.00  0.00    +0.000 C 
ATOM     34  F   UNL     1       6.789   3.499  13.289  0.00  0.00    +0.000 F 
ATOM     35  F   UNL     1       7.425   5.542  13.664  0.00  0.00    +0.000 F 
ATOM     36  C   UNL     1       5.240   4.893  14.586  0.00  0.00    +0.000 C 
ENDBRANCH  30  31
ENDBRANCH   6  30
TORSDOF 7
ENDMDL
MODEL 9
REMARK VINA RESULT:      -9.3      2.650      3.594
REMARK  Name = 
REMARK  9 active torsions:
REMARK  status: ('A' for Active; 'I' for Inactive)
REMARK    1  A    between atoms: C_1  and  C_2
REMARK    2  A    between atoms: C_2  and  C_3
REMARK    3  A    between atoms: C_2  and  C_10
REMARK    4  A    between atoms: C_3  and  C_4
REMARK    5  A    between atoms: N_8  and  C_9
REMARK    6  A    between atoms: C_14  and  N_15
REMARK    7  A    between atoms: C_20  and  C_21
REMARK    8  A    between atoms: C_21  and  N_22
REMARK    9  A    between atoms: C_29  and  C_30
REMARK                            x       y       z     vdW  Elec       q    Type
REMARK                         _______ _______ _______ _____ _____    ______ ____
ROOT
ATOM      1  N   UNL     1       1.418   8.213  20.274  0.00  0.00    +0.000 N 
ATOM      2  C   UNL     1       1.574   6.876  20.802  0.00  0.00    +0.000 C 
ATOM      3  C   UNL     1       2.171   6.111  19.687  0.00  0.00    +0.000 A 
ATOM      4  C   UNL     1       2.551   6.982  18.668  0.00  0.00    +0.000 A 
ATOM      5  C   UNL     1       3.297   6.529  17.592  0.00  0.00    +0.000 A 
ATOM      6  C   UNL     1       3.618   5.151  17.525  0.00  0.00    +0.000 A 
ATOM      7  C   UNL     1       3.132   4.275  18.525  0.00  0.00    +0.000 A 
ATOM      8  C   UNL     1       2.396   4.744  19.620  0.00  0.00    +0.000 A 
ATOM      9  C   UNL     1       2.001   8.333  19.003  0.00  0.00    +0.000 C 
ATOM     10  O   UNL     1       2.073   9.288  18.260  0.00  0.00    +0.000 OA
ENDROOT
BRANCH   1  15
ATOM     11  C   UNL     1      -0.510  11.341  20.973  0.00  0.00    +0.000 A 
ATOM     12  C   UNL     1      -0.774  11.183  22.334  0.00  0.00    +0.000 A 
ATOM     13  C   UNL     1      -0.383  10.014  23.006  0.00  0.00    +0.000 A 
ATOM     14  C   UNL     1       0.285   8.974  22.335  0.00  0.00    +0.000 A 
ATOM     15  C   UNL     1       0.601   9.123  20.992  0.00  0.00    +0.000 A 
ATOM     16  C   UNL     1       0.179  10.298  20.336  0.00  0.00    +0.000 A 
BRANCH  11  18
ATOM     17  C   UNL     1      -0.416  12.496  18.677  0.00  0.00    +0.000 C 
ATOM     18  C   UNL     1      -0.865  12.577  20.141  0.00  0.00    +0.000 C 
BRANCH  18  19
ATOM     19  C   UNL     1      -0.337  13.863  20.831  0.00  0.00    +0.000 C 
BRANCH  19  20
ATOM     20  C   UNL     1       1.147  13.996  20.765  0.00  0.00    +0.000 A 
ATOM     21  N   UNL     1       2.027  13.319  21.475  0.00  0.00    +0.000 NA
ATOM     22  N   UNL     1       3.284  13.775  21.152  0.00  0.00    +0.000 NA
ATOM     23  C   UNL     1       3.144  14.712  20.243  0.00  0.00    +0.000 A 
ATOM     24  N   UNL     1       1.826  14.867  19.953  0.00  0.00    +0.000 N 
ATOM     25  C   UNL     1       1.268  15.770  18.984  0.00  0.00    +0.000 C 
ENDBRANCH  19  20
ENDBRANCH  18  19
ENDBRANCH  11  18
ENDBRANCH   1  15
BRANCH   8  26
ATOM     26  C   UNL     1       1.866   3.783  20.656  0.00  0.00    +0.000 C 
ATOM     27  F   UNL     1       2.295   4.045  21.920  0.00  0.00    +0.000 F 
ATOM     28  F   UNL     1       0.507   3.798  20.720  0.00  0.00    +0.000 F 
ATOM     29  F   UNL     1       2.223   2.495  20.408  0.00  0.00    +0.000 F 
ENDBRANCH   8  26
BRANCH   6  30
ATOM     30  C   UNL     1       4.568   4.630  16.453  0.00  0.00    +0.000 C 
BRANCH  30  31
ATOM     31  N   UNL     1       5.806   4.018  16.972  0.00  0.00    +0.000 NA
ATOM     32  C   UNL     1       7.009   4.595  16.340  0.00  0.00    +0.000 C 
ATOM     33  C   UNL     1       7.576   4.972  17.723  0.00  0.00    +0.000 C 
ATOM     34  F   UNL     1       7.965   6.262  17.865  0.00  0.00    +0.000 F 
ATOM     35  F   UNL     1       8.593   4.207  18.184  0.00  0.00    +0.000 F 
ATOM     36  C   UNL     1       6.173   4.634  18.266  0.00  0.00    +0.000 C 
ENDBRANCH  30  31
ENDBRANCH   6  30
TORSDOF 7
ENDMDL
