MODEL 1
REMARK VINA RESULT:      -9.5      0.000      0.000
REMARK  Name = 
REMARK  8 active torsions:
REMARK  status: ('A' for Active; 'I' for Inactive)
REMARK    1  A    between atoms: C_1  and  N_2
REMARK    2  A    between atoms: C_6  and  C_7
REMARK    3  A    between atoms: C_7  and  C_8
REMARK    4  A    between atoms: C_8  and  C_9
REMARK    5  A    between atoms: C_13  and  N_14
REMARK    6  A    between atoms: C_19  and  C_20
REMARK    7  A    between atoms: C_20  and  N_21
REMARK    8  A    between atoms: C_30  and  C_31
REMARK                            x       y       z     vdW  Elec       q    Type
REMARK                         _______ _______ _______ _____ _____    ______ ____
ROOT
ATOM      1  N   UNL     1       2.268   7.516  19.377  0.00  0.00    +0.000 N 
ATOM      2  C   UNL     1       1.492   7.828  20.552  0.00  0.00    +0.000 C 
ATOM      3  C   UNL     1       0.996   9.195  20.323  0.00  0.00    +0.000 A 
ATOM      4  C   UNL     1       1.359   9.636  19.054  0.00  0.00    +0.000 A 
ATOM      5  C   UNL     1       0.964  10.899  18.616  0.00  0.00    +0.000 A 
ATOM      6  C   UNL     1       0.216  11.715  19.502  0.00  0.00    +0.000 A 
ATOM      7  C   UNL     1      -0.109  11.228  20.796  0.00  0.00    +0.000 A 
ATOM      8  C   UNL     1       0.290   9.967  21.234  0.00  0.00    +0.000 A 
ATOM      9  C   UNL     1       2.202   8.563  18.443  0.00  0.00    +0.000 C 
ATOM     10  O   UNL     1       2.728   8.655  17.348  0.00  0.00    +0.000 OA
ENDROOT
BRANCH   1  15
ATOM     11  C   UNL     1       5.256   5.302  18.813  0.00  0.00    +0.000 A 
ATOM     12  C   UNL     1       4.719   4.066  19.195  0.00  0.00    +0.000 A 
ATOM     13  C   UNL     1       3.404   3.956  19.687  0.00  0.00    +0.000 A 
ATOM     14  C   UNL     1       2.562   5.077  19.795  0.00  0.00    +0.000 A 
ATOM     15  C   UNL     1       3.038   6.319  19.410  0.00  0.00    +0.000 A 
ATOM     16  C   UNL     1       4.380   6.387  18.961  0.00  0.00    +0.000 A 
BRANCH  11  17
ATOM     17  C   UNL     1       6.764   5.549  18.261  0.00  0.00    +0.000 C 
ATOM     18  C   UNL     1       7.798   5.953  19.345  0.00  0.00    +0.000 C 
ATOM     19  O   UNL     1       8.090   7.208  18.705  0.00  0.00    +0.000 OA
ATOM     20  C   UNL     1       7.109   6.957  17.677  0.00  0.00    +0.000 C 
BRANCH  17  21
ATOM     21  C   UNL     1       7.243   4.400  17.337  0.00  0.00    +0.000 C 
BRANCH  21  27
ATOM     22  C   UNL     1       4.597   3.531  15.826  0.00  0.00    +0.000 C 
ATOM     23  N   UNL     1       5.739   4.192  15.264  0.00  0.00    +0.000 N 
ATOM     24  C   UNL     1       5.874   4.526  13.952  0.00  0.00    +0.000 A 
ATOM     25  N   UNL     1       7.052   5.078  13.758  0.00  0.00    +0.000 NA
ATOM     26  N   UNL     1       7.705   5.090  14.965  0.00  0.00    +0.000 NA
ATOM     27  C   UNL     1       6.911   4.582  15.884  0.00  0.00    +0.000 A 
ENDBRANCH  21  27
ENDBRANCH  17  21
ENDBRANCH  11  17
ENDBRANCH   1  15
BRANCH   8  28
ATOM     28  C   UNL     1      -0.002   9.504  22.639  0.00  0.00    +0.000 C 
ATOM     29  F   UNL     1      -0.770   8.385  22.706  0.00  0.00    +0.000 F 
ATOM     30  F   UNL     1       1.133   9.220  23.333  0.00  0.00    +0.000 F 
ATOM     31  F   UNL     1      -0.666  10.444  23.364  0.00  0.00    +0.000 F 
ENDBRANCH   8  28
BRANCH   6  32
ATOM     32  C   UNL     1      -0.296  13.110  19.141  0.00  0.00    +0.000 C 
BRANCH  32  33
ATOM     33  N   UNL     1       0.197  14.124  20.097  0.00  0.00    +0.000 NA
ATOM     34  C   UNL     1       1.649  14.322  20.046  0.00  0.00    +0.000 C 
ATOM     35  C   UNL     1       2.125  15.218  18.905  0.00  0.00    +0.000 C 
ATOM     36  C   UNL     1       1.366  16.534  18.872  0.00  0.00    +0.000 C 
ATOM     37  F   UNL     1       1.707  17.216  17.743  0.00  0.00    +0.000 F 
ATOM     38  C   UNL     1      -0.143  16.344  18.917  0.00  0.00    +0.000 C 
ATOM     39  F   UNL     1      -0.584  15.807  17.745  0.00  0.00    +0.000 F 
ATOM     40  C   UNL     1      -0.535  15.403  20.057  0.00  0.00    +0.000 C 
ENDBRANCH  32  33
ENDBRANCH   6  32
TORSDOF 7
ENDMDL
MODEL 2
REMARK VINA RESULT:      -9.4      1.129      1.525
REMARK  Name = 
REMARK  8 active torsions:
REMARK  status: ('A' for Active; 'I' for Inactive)
REMARK    1  A    between atoms: C_1  and  N_2
REMARK    2  A    between atoms: C_6  and  C_7
REMARK    3  A    between atoms: C_7  and  C_8
REMARK    4  A    between atoms: C_8  and  C_9
REMARK    5  A    between atoms: C_13  and  N_14
REMARK    6  A    between atoms: C_19  and  C_20
REMARK    7  A    between atoms: C_20  and  N_21
REMARK    8  A    between atoms: C_30  and  C_31
REMARK                            x       y       z     vdW  Elec       q    Type
REMARK                         _______ _______ _______ _____ _____    ______ ____
ROOT
ATOM      1  N   UNL     1       2.287   7.429  19.362  0.00  0.00    +0.000 N 
ATOM      2  C   UNL     1       1.524   7.751  20.543  0.00  0.00    +0.000 C 
ATOM      3  C   UNL     1       0.964   9.086  20.278  0.00  0.00    +0.000 A 
ATOM      4  C   UNL     1       1.280   9.496  18.986  0.00  0.00    +0.000 A 
ATOM      5  C   UNL     1       0.820  10.725  18.514  0.00  0.00    +0.000 A 
ATOM      6  C   UNL     1       0.057  11.539  19.388  0.00  0.00    +0.000 A 
ATOM      7  C   UNL     1      -0.218  11.085  20.705  0.00  0.00    +0.000 A 
ATOM      8  C   UNL     1       0.245   9.859  21.177  0.00  0.00    +0.000 A 
ATOM      9  C   UNL     1       2.155   8.439  18.393  0.00  0.00    +0.000 C 
ATOM     10  O   UNL     1       2.652   8.514  17.284  0.00  0.00    +0.000 OA
ENDROOT
BRANCH   1  15
ATOM     11  C   UNL     1       5.356   5.327  18.808  0.00  0.00    +0.000 A 
ATOM     12  C   UNL     1       4.882   4.084  19.243  0.00  0.00    +0.000 A 
ATOM     13  C   UNL     1       3.583   3.935  19.768  0.00  0.00    +0.000 A 
ATOM     14  C   UNL     1       2.695   5.022  19.856  0.00  0.00    +0.000 A 
ATOM     15  C   UNL     1       3.109   6.268  19.419  0.00  0.00    +0.000 A 
ATOM     16  C   UNL     1       4.438   6.378  18.938  0.00  0.00    +0.000 A 
BRANCH  11  17
ATOM     17  C   UNL     1       6.840   5.619  18.215  0.00  0.00    +0.000 C 
ATOM     18  C   UNL     1       7.886   6.077  19.266  0.00  0.00    +0.000 C 
ATOM     19  O   UNL     1       8.116   7.332  18.599  0.00  0.00    +0.000 OA
ATOM     20  C   UNL     1       7.120   7.029  17.600  0.00  0.00    +0.000 C 
BRANCH  17  21
ATOM     21  C   UNL     1       7.338   4.473  17.296  0.00  0.00    +0.000 C 
BRANCH  21  27
ATOM     22  C   UNL     1       4.688   3.492  15.862  0.00  0.00    +0.000 C 
ATOM     23  N   UNL     1       5.794   4.181  15.263  0.00  0.00    +0.000 N 
ATOM     24  C   UNL     1       5.887   4.499  13.944  0.00  0.00    +0.000 A 
ATOM     25  N   UNL     1       7.040   5.087  13.713  0.00  0.00    +0.000 NA
ATOM     26  N   UNL     1       7.721   5.140  14.904  0.00  0.00    +0.000 NA
ATOM     27  C   UNL     1       6.966   4.621  15.849  0.00  0.00    +0.000 A 
ENDBRANCH  21  27
ENDBRANCH  17  21
ENDBRANCH  11  17
ENDBRANCH   1  15
BRANCH   8  28
ATOM     28  C   UNL     1       0.005   9.435  22.604  0.00  0.00    +0.000 C 
ATOM     29  F   UNL     1      -0.627  10.369  23.361  0.00  0.00    +0.000 F 
ATOM     30  F   UNL     1      -0.757   8.310  22.685  0.00  0.00    +0.000 F 
ATOM     31  F   UNL     1       1.163   9.158  23.262  0.00  0.00    +0.000 F 
ENDBRANCH   8  28
BRANCH   6  32
ATOM     32  C   UNL     1      -0.523  12.897  18.990  0.00  0.00    +0.000 C 
BRANCH  32  33
ATOM     33  N   UNL     1       0.532  13.932  18.932  0.00  0.00    +0.000 NA
ATOM     34  C   UNL     1       0.039  15.249  18.516  0.00  0.00    +0.000 C 
ATOM     35  C   UNL     1      -0.638  16.051  19.626  0.00  0.00    +0.000 C 
ATOM     36  C   UNL     1       0.232  16.131  20.869  0.00  0.00    +0.000 C 
ATOM     37  F   UNL     1      -0.483  16.705  21.877  0.00  0.00    +0.000 F 
ATOM     38  C   UNL     1       0.746  14.771  21.317  0.00  0.00    +0.000 C 
ATOM     39  F   UNL     1      -0.279  14.023  21.815  0.00  0.00    +0.000 F 
ATOM     40  C   UNL     1       1.368  14.015  20.142  0.00  0.00    +0.000 C 
ENDBRANCH  32  33
ENDBRANCH   6  32
TORSDOF 7
ENDMDL
MODEL 3
REMARK VINA RESULT:      -9.4      1.514      2.435
REMARK  Name = 
REMARK  8 active torsions:
REMARK  status: ('A' for Active; 'I' for Inactive)
REMARK    1  A    between atoms: C_1  and  N_2
REMARK    2  A    between atoms: C_6  and  C_7
REMARK    3  A    between atoms: C_7  and  C_8
REMARK    4  A    between atoms: C_8  and  C_9
REMARK    5  A    between atoms: C_13  and  N_14
REMARK    6  A    between atoms: C_19  and  C_20
REMARK    7  A    between atoms: C_20  and  N_21
REMARK    8  A    between atoms: C_30  and  C_31
REMARK                            x       y       z     vdW  Elec       q    Type
REMARK                         _______ _______ _______ _____ _____    ______ ____
ROOT
ATOM      1  N   UNL     1       2.248   7.465  19.080  0.00  0.00    +0.000 N 
ATOM      2  C   UNL     1       1.491   7.799  20.262  0.00  0.00    +0.000 C 
ATOM      3  C   UNL     1       1.116   9.211  20.082  0.00  0.00    +0.000 A 
ATOM      4  C   UNL     1       1.527   9.666  18.834  0.00  0.00    +0.000 A 
ATOM      5  C   UNL     1       1.245  10.975  18.442  0.00  0.00    +0.000 A 
ATOM      6  C   UNL     1       0.562  11.817  19.354  0.00  0.00    +0.000 A 
ATOM      7  C   UNL     1       0.185  11.312  20.626  0.00  0.00    +0.000 A 
ATOM      8  C   UNL     1       0.471  10.006  21.018  0.00  0.00    +0.000 A 
ATOM      9  C   UNL     1       2.280   8.549  18.186  0.00  0.00    +0.000 C 
ATOM     10  O   UNL     1       2.821   8.636  17.099  0.00  0.00    +0.000 OA
ENDROOT
BRANCH   1  15
ATOM     11  C   UNL     1       4.540   4.766  17.813  0.00  0.00    +0.000 A 
ATOM     12  C   UNL     1       4.231   3.740  18.714  0.00  0.00    +0.000 A 
ATOM     13  C   UNL     1       3.318   3.938  19.769  0.00  0.00    +0.000 A 
ATOM     14  C   UNL     1       2.657   5.167  19.950  0.00  0.00    +0.000 A 
ATOM     15  C   UNL     1       2.913   6.206  19.072  0.00  0.00    +0.000 A 
ATOM     16  C   UNL     1       3.869   5.973  18.053  0.00  0.00    +0.000 A 
BRANCH  11  17
ATOM     17  C   UNL     1       5.595   4.658  16.582  0.00  0.00    +0.000 C 
ATOM     18  C   UNL     1       5.273   5.564  15.364  0.00  0.00    +0.000 C 
ATOM     19  O   UNL     1       5.158   4.444  14.467  0.00  0.00    +0.000 OA
ATOM     20  C   UNL     1       5.392   3.509  15.541  0.00  0.00    +0.000 C 
BRANCH  17  21
ATOM     21  C   UNL     1       7.066   4.756  17.064  0.00  0.00    +0.000 C 
BRANCH  21  27
ATOM     22  C   UNL     1       8.122   5.697  19.898  0.00  0.00    +0.000 C 
ATOM     23  N   UNL     1       7.963   6.501  18.721  0.00  0.00    +0.000 N 
ATOM     24  C   UNL     1       8.222   7.835  18.652  0.00  0.00    +0.000 A 
ATOM     25  N   UNL     1       7.934   8.278  17.448  0.00  0.00    +0.000 NA
ATOM     26  N   UNL     1       7.464   7.213  16.720  0.00  0.00    +0.000 NA
ATOM     27  C   UNL     1       7.504   6.133  17.471  0.00  0.00    +0.000 A 
ENDBRANCH  21  27
ENDBRANCH  17  21
ENDBRANCH  11  17
ENDBRANCH   1  15
BRANCH   8  28
ATOM     28  C   UNL     1       0.128   9.517  22.403  0.00  0.00    +0.000 C 
ATOM     29  F   UNL     1      -0.380  10.476  23.219  0.00  0.00    +0.000 F 
ATOM     30  F   UNL     1      -0.794   8.517  22.382  0.00  0.00    +0.000 F 
ATOM     31  F   UNL     1       1.212   9.021  23.058  0.00  0.00    +0.000 F 
ENDBRANCH   8  28
BRANCH   6  32
ATOM     32  C   UNL     1       0.174  13.264  19.044  0.00  0.00    +0.000 C 
BRANCH  32  33
ATOM     33  N   UNL     1       0.926  14.213  19.894  0.00  0.00    +0.000 NA
ATOM     34  C   UNL     1       2.301  14.444  19.441  0.00  0.00    +0.000 C 
ATOM     35  C   UNL     1       2.427  15.434  18.285  0.00  0.00    +0.000 C 
ATOM     36  C   UNL     1       1.694  16.732  18.577  0.00  0.00    +0.000 C 
ATOM     37  F   UNL     1       1.694  17.506  17.455  0.00  0.00    +0.000 F 
ATOM     38  C   UNL     1       0.263  16.509  19.041  0.00  0.00    +0.000 C 
ATOM     39  F   UNL     1      -0.500  16.053  18.008  0.00  0.00    +0.000 F 
ATOM     40  C   UNL     1       0.216  15.475  20.167  0.00  0.00    +0.000 C 
ENDBRANCH  32  33
ENDBRANCH   6  32
TORSDOF 7
ENDMDL
MODEL 4
REMARK VINA RESULT:      -9.1      0.790      1.077
REMARK  Name = 
REMARK  8 active torsions:
REMARK  status: ('A' for Active; 'I' for Inactive)
REMARK    1  A    between atoms: C_1  and  N_2
REMARK    2  A    between atoms: C_6  and  C_7
REMARK    3  A    between atoms: C_7  and  C_8
REMARK    4  A    between atoms: C_8  and  C_9
REMARK    5  A    between atoms: C_13  and  N_14
REMARK    6  A    between atoms: C_19  and  C_20
REMARK    7  A    between atoms: C_20  and  N_21
REMARK    8  A    between atoms: C_30  and  C_31
REMARK                            x       y       z     vdW  Elec       q    Type
REMARK                         _______ _______ _______ _____ _____    ______ ____
ROOT
ATOM      1  N   UNL     1       1.922   7.848  19.231  0.00  0.00    +0.000 N 
ATOM      2  C   UNL     1       1.214   8.107  20.461  0.00  0.00    +0.000 C 
ATOM      3  C   UNL     1       0.756   9.501  20.346  0.00  0.00    +0.000 A 
ATOM      4  C   UNL     1       1.074  10.013  19.092  0.00  0.00    +0.000 A 
ATOM      5  C   UNL     1       0.703  11.315  18.757  0.00  0.00    +0.000 A 
ATOM      6  C   UNL     1       0.027  12.093  19.730  0.00  0.00    +0.000 A 
ATOM      7  C   UNL     1      -0.254  11.532  21.004  0.00  0.00    +0.000 A 
ATOM      8  C   UNL     1       0.121  10.232  21.339  0.00  0.00    +0.000 A 
ATOM      9  C   UNL     1       1.849   8.957  18.372  0.00  0.00    +0.000 C 
ATOM     10  O   UNL     1       2.325   9.105  17.261  0.00  0.00    +0.000 OA
ENDROOT
BRANCH   1  15
ATOM     11  C   UNL     1       4.651   5.511  18.119  0.00  0.00    +0.000 A 
ATOM     12  C   UNL     1       4.184   4.312  18.671  0.00  0.00    +0.000 A 
ATOM     13  C   UNL     1       3.012   4.268  19.451  0.00  0.00    +0.000 A 
ATOM     14  C   UNL     1       2.244   5.421  19.691  0.00  0.00    +0.000 A 
ATOM     15  C   UNL     1       2.651   6.628  19.149  0.00  0.00    +0.000 A 
ATOM     16  C   UNL     1       3.858   6.631  18.407  0.00  0.00    +0.000 A 
BRANCH  11  17
ATOM     17  C   UNL     1       6.000   5.682  17.231  0.00  0.00    +0.000 C 
ATOM     18  C   UNL     1       7.255   6.126  18.028  0.00  0.00    +0.000 C 
ATOM     19  O   UNL     1       7.412   7.330  17.256  0.00  0.00    +0.000 OA
ATOM     20  C   UNL     1       6.223   7.041  16.491  0.00  0.00    +0.000 C 
BRANCH  17  21
ATOM     21  C   UNL     1       6.247   4.465  16.303  0.00  0.00    +0.000 C 
BRANCH  21  27
ATOM     22  C   UNL     1       5.235   3.601  13.427  0.00  0.00    +0.000 C 
ATOM     23  N   UNL     1       6.380   4.407  13.738  0.00  0.00    +0.000 N 
ATOM     24  C   UNL     1       7.246   4.910  12.818  0.00  0.00    +0.000 A 
ATOM     25  N   UNL     1       8.207   5.565  13.430  0.00  0.00    +0.000 NA
ATOM     26  N   UNL     1       7.971   5.475  14.780  0.00  0.00    +0.000 NA
ATOM     27  C   UNL     1       6.857   4.802  14.973  0.00  0.00    +0.000 A 
ENDBRANCH  21  27
ENDBRANCH  17  21
ENDBRANCH  11  17
ENDBRANCH   1  15
BRANCH   8  28
ATOM     28  C   UNL     1      -0.120   9.687  22.723  0.00  0.00    +0.000 C 
ATOM     29  F   UNL     1       1.013   9.337  23.386  0.00  0.00    +0.000 F 
ATOM     30  F   UNL     1      -0.760  10.581  23.525  0.00  0.00    +0.000 F 
ATOM     31  F   UNL     1      -0.892   8.568  22.710  0.00  0.00    +0.000 F 
ENDBRANCH   8  28
BRANCH   6  32
ATOM     32  C   UNL     1      -0.453  13.524  19.486  0.00  0.00    +0.000 C 
BRANCH  32  33
ATOM     33  N   UNL     1       0.334  14.494  20.277  0.00  0.00    +0.000 NA
ATOM     34  C   UNL     1       1.766  14.484  19.962  0.00  0.00    +0.000 C 
ATOM     35  C   UNL     1       2.142  15.261  18.703  0.00  0.00    +0.000 C 
ATOM     36  C   UNL     1       1.570  16.668  18.720  0.00  0.00    +0.000 C 
ATOM     37  F   UNL     1       1.788  17.253  17.509  0.00  0.00    +0.000 F 
ATOM     38  C   UNL     1       0.083  16.695  19.039  0.00  0.00    +0.000 C 
ATOM     39  F   UNL     1      -0.630  16.181  17.997  0.00  0.00    +0.000 F 
ATOM     40  C   UNL     1      -0.217  15.860  20.286  0.00  0.00    +0.000 C 
ENDBRANCH  32  33
ENDBRANCH   6  32
TORSDOF 7
ENDMDL
MODEL 5
REMARK VINA RESULT:      -9.0      1.868      2.747
REMARK  Name = 
REMARK  8 active torsions:
REMARK  status: ('A' for Active; 'I' for Inactive)
REMARK    1  A    between atoms: C_1  and  N_2
REMARK    2  A    between atoms: C_6  and  C_7
REMARK    3  A    between atoms: C_7  and  C_8
REMARK    4  A    between atoms: C_8  and  C_9
REMARK    5  A    between atoms: C_13  and  N_14
REMARK    6  A    between atoms: C_19  and  C_20
REMARK    7  A    between atoms: C_20  and  N_21
REMARK    8  A    between atoms: C_30  and  C_31
REMARK                            x       y       z     vdW  Elec       q    Type
REMARK                         _______ _______ _______ _____ _____    ______ ____
ROOT
ATOM      1  N   UNL     1       2.199   7.407  19.106  0.00  0.00    +0.000 N 
ATOM      2  C   UNL     1       1.458   7.726  20.302  0.00  0.00    +0.000 C 
ATOM      3  C   UNL     1       1.098   9.145  20.154  0.00  0.00    +0.000 A 
ATOM      4  C   UNL     1       1.501   9.621  18.911  0.00  0.00    +0.000 A 
ATOM      5  C   UNL     1       1.231  10.939  18.548  0.00  0.00    +0.000 A 
ATOM      6  C   UNL     1       0.567  11.772  19.484  0.00  0.00    +0.000 A 
ATOM      7  C   UNL     1       0.197  11.245  20.750  0.00  0.00    +0.000 A 
ATOM      8  C   UNL     1       0.472   9.929  21.112  0.00  0.00    +0.000 A 
ATOM      9  C   UNL     1       2.234   8.507  18.234  0.00  0.00    +0.000 C 
ATOM     10  O   UNL     1       2.765   8.610  17.142  0.00  0.00    +0.000 OA
ENDROOT
BRANCH   1  15
ATOM     11  C   UNL     1       4.493   4.730  17.796  0.00  0.00    +0.000 A 
ATOM     12  C   UNL     1       4.146   3.674  18.647  0.00  0.00    +0.000 A 
ATOM     13  C   UNL     1       3.206   3.842  19.682  0.00  0.00    +0.000 A 
ATOM     14  C   UNL     1       2.556   5.070  19.894  0.00  0.00    +0.000 A 
ATOM     15  C   UNL     1       2.848   6.140  19.066  0.00  0.00    +0.000 A 
ATOM     16  C   UNL     1       3.830   5.936  18.065  0.00  0.00    +0.000 A 
BRANCH  11  17
ATOM     17  C   UNL     1       5.582   4.657  16.592  0.00  0.00    +0.000 C 
ATOM     18  C   UNL     1       5.287   5.592  15.388  0.00  0.00    +0.000 C 
ATOM     19  O   UNL     1       5.202   4.494  14.461  0.00  0.00    +0.000 OA
ATOM     20  C   UNL     1       5.412   3.534  15.518  0.00  0.00    +0.000 C 
BRANCH  17  21
ATOM     21  C   UNL     1       7.038   4.750  17.115  0.00  0.00    +0.000 C 
BRANCH  21  27
ATOM     22  C   UNL     1       8.141   5.741  19.914  0.00  0.00    +0.000 C 
ATOM     23  N   UNL     1       7.965   6.524  18.725  0.00  0.00    +0.000 N 
ATOM     24  C   UNL     1       8.225   7.855  18.628  0.00  0.00    +0.000 A 
ATOM     25  N   UNL     1       7.918   8.277  17.421  0.00  0.00    +0.000 NA
ATOM     26  N   UNL     1       7.434   7.199  16.720  0.00  0.00    +0.000 NA
ATOM     27  C   UNL     1       7.485   6.133  17.490  0.00  0.00    +0.000 A 
ENDBRANCH  21  27
ENDBRANCH  17  21
ENDBRANCH  11  17
ENDBRANCH   1  15
BRANCH   8  28
ATOM     28  C   UNL     1       0.138   9.417  22.491  0.00  0.00    +0.000 C 
ATOM     29  F   UNL     1      -0.722   8.366  22.499  0.00  0.00    +0.000 F 
ATOM     30  F   UNL     1       1.243   9.000  23.167  0.00  0.00    +0.000 F 
ATOM     31  F   UNL     1      -0.446  10.369  23.267  0.00  0.00    +0.000 F 
ENDBRANCH   8  28
BRANCH   6  32
ATOM     32  C   UNL     1       0.193  13.228  19.206  0.00  0.00    +0.000 C 
BRANCH  32  33
ATOM     33  N   UNL     1       1.400  14.067  19.039  0.00  0.00    +0.000 NA
ATOM     34  C   UNL     1       1.101  15.474  18.751  0.00  0.00    +0.000 C 
ATOM     35  C   UNL     1       0.736  16.306  19.978  0.00  0.00    +0.000 C 
ATOM     36  C   UNL     1       1.764  16.154  21.086  0.00  0.00    +0.000 C 
ATOM     37  F   UNL     1       1.305  16.776  22.208  0.00  0.00    +0.000 F 
ATOM     38  C   UNL     1       2.079  14.699  21.401  0.00  0.00    +0.000 C 
ATOM     39  F   UNL     1       1.012  14.109  22.010  0.00  0.00    +0.000 F 
ATOM     40  C   UNL     1       2.391  13.925  20.119  0.00  0.00    +0.000 C 
ENDBRANCH  32  33
ENDBRANCH   6  32
TORSDOF 7
ENDMDL
MODEL 6
REMARK VINA RESULT:      -8.9      0.853      1.201
REMARK  Name = 
REMARK  8 active torsions:
REMARK  status: ('A' for Active; 'I' for Inactive)
REMARK    1  A    between atoms: C_1  and  N_2
REMARK    2  A    between atoms: C_6  and  C_7
REMARK    3  A    between atoms: C_7  and  C_8
REMARK    4  A    between atoms: C_8  and  C_9
REMARK    5  A    between atoms: C_13  and  N_14
REMARK    6  A    between atoms: C_19  and  C_20
REMARK    7  A    between atoms: C_20  and  N_21
REMARK    8  A    between atoms: C_30  and  C_31
REMARK                            x       y       z     vdW  Elec       q    Type
REMARK                         _______ _______ _______ _____ _____    ______ ____
ROOT
ATOM      1  N   UNL     1       2.311   7.440  19.367  0.00  0.00    +0.000 N 
ATOM      2  C   UNL     1       1.493   7.752  20.513  0.00  0.00    +0.000 C 
ATOM      3  C   UNL     1       0.985   9.110  20.254  0.00  0.00    +0.000 A 
ATOM      4  C   UNL     1       1.384   9.544  18.994  0.00  0.00    +0.000 A 
ATOM      5  C   UNL     1       0.985  10.797  18.531  0.00  0.00    +0.000 A 
ATOM      6  C   UNL     1       0.197  11.610  19.383  0.00  0.00    +0.000 A 
ATOM      7  C   UNL     1      -0.164  11.130  20.670  0.00  0.00    +0.000 A 
ATOM      8  C   UNL     1       0.239   9.880  21.134  0.00  0.00    +0.000 A 
ATOM      9  C   UNL     1       2.261   8.478  18.421  0.00  0.00    +0.000 C 
ATOM     10  O   UNL     1       2.821   8.567  17.344  0.00  0.00    +0.000 OA
ENDROOT
BRANCH   1  15
ATOM     11  C   UNL     1       5.330   5.250  18.879  0.00  0.00    +0.000 A 
ATOM     12  C   UNL     1       4.808   4.019  19.293  0.00  0.00    +0.000 A 
ATOM     13  C   UNL     1       3.492   3.906  19.782  0.00  0.00    +0.000 A 
ATOM     14  C   UNL     1       2.635   5.018  19.856  0.00  0.00    +0.000 A 
ATOM     15  C   UNL     1       3.097   6.255  19.437  0.00  0.00    +0.000 A 
ATOM     16  C   UNL     1       4.440   6.328  18.992  0.00  0.00    +0.000 A 
BRANCH  11  17
ATOM     17  C   UNL     1       6.837   5.501  18.325  0.00  0.00    +0.000 C 
ATOM     18  C   UNL     1       7.879   5.872  19.414  0.00  0.00    +0.000 C 
ATOM     19  O   UNL     1       8.176   7.141  18.804  0.00  0.00    +0.000 OA
ATOM     20  C   UNL     1       7.189   6.922  17.774  0.00  0.00    +0.000 C 
BRANCH  17  21
ATOM     21  C   UNL     1       7.304   4.373  17.371  0.00  0.00    +0.000 C 
BRANCH  21  27
ATOM     22  C   UNL     1       4.624   3.506  15.921  0.00  0.00    +0.000 C 
ATOM     23  N   UNL     1       5.746   4.182  15.337  0.00  0.00    +0.000 N 
ATOM     24  C   UNL     1       5.842   4.536  14.028  0.00  0.00    +0.000 A 
ATOM     25  N   UNL     1       7.010   5.099  13.808  0.00  0.00    +0.000 NA
ATOM     26  N   UNL     1       7.696   5.099  14.998  0.00  0.00    +0.000 NA
ATOM     27  C   UNL     1       6.931   4.573  15.930  0.00  0.00    +0.000 A 
ENDBRANCH  21  27
ENDBRANCH  17  21
ENDBRANCH  11  17
ENDBRANCH   1  15
BRANCH   8  28
ATOM     28  C   UNL     1      -0.093   9.426  22.533  0.00  0.00    +0.000 C 
ATOM     29  F   UNL     1      -0.786  10.338  23.262  0.00  0.00    +0.000 F 
ATOM     30  F   UNL     1      -0.844   8.292  22.542  0.00  0.00    +0.000 F 
ATOM     31  F   UNL     1       1.021   9.149  23.263  0.00  0.00    +0.000 F 
ENDBRANCH   8  28
BRANCH   6  32
ATOM     32  C   UNL     1      -0.323  12.994  18.992  0.00  0.00    +0.000 C 
BRANCH  32  33
ATOM     33  N   UNL     1       0.107  14.021  19.966  0.00  0.00    +0.000 NA
ATOM     34  C   UNL     1       1.092  13.534  20.936  0.00  0.00    +0.000 C 
ATOM     35  C   UNL     1       2.525  13.483  20.412  0.00  0.00    +0.000 C 
ATOM     36  C   UNL     1       2.941  14.804  19.788  0.00  0.00    +0.000 C 
ATOM     37  F   UNL     1       4.155  14.651  19.188  0.00  0.00    +0.000 F 
ATOM     38  C   UNL     1       1.932  15.319  18.772  0.00  0.00    +0.000 C 
ATOM     39  F   UNL     1       1.946  14.535  17.657  0.00  0.00    +0.000 F 
ATOM     40  C   UNL     1       0.519  15.298  19.357  0.00  0.00    +0.000 C 
ENDBRANCH  32  33
ENDBRANCH   6  32
TORSDOF 7
ENDMDL
MODEL 7
REMARK VINA RESULT:      -8.8      1.331      1.635
REMARK  Name = 
REMARK  8 active torsions:
REMARK  status: ('A' for Active; 'I' for Inactive)
REMARK    1  A    between atoms: C_1  and  N_2
REMARK    2  A    between atoms: C_6  and  C_7
REMARK    3  A    between atoms: C_7  and  C_8
REMARK    4  A    between atoms: C_8  and  C_9
REMARK    5  A    between atoms: C_13  and  N_14
REMARK    6  A    between atoms: C_19  and  C_20
REMARK    7  A    between atoms: C_20  and  N_21
REMARK    8  A    between atoms: C_30  and  C_31
REMARK                            x       y       z     vdW  Elec       q    Type
REMARK                         _______ _______ _______ _____ _____    ______ ____
ROOT
ATOM      1  N   UNL     1       1.906   7.677  19.365  0.00  0.00    +0.000 N 
ATOM      2  C   UNL     1       1.174   7.983  20.570  0.00  0.00    +0.000 C 
ATOM      3  C   UNL     1       0.737   9.379  20.401  0.00  0.00    +0.000 A 
ATOM      4  C   UNL     1       1.090   9.847  19.139  0.00  0.00    +0.000 A 
ATOM      5  C   UNL     1       0.743  11.142  18.755  0.00  0.00    +0.000 A 
ATOM      6  C   UNL     1       0.056  11.959  19.687  0.00  0.00    +0.000 A 
ATOM      7  C   UNL     1      -0.260  11.442  20.972  0.00  0.00    +0.000 A 
ATOM      8  C   UNL     1       0.090  10.149  21.356  0.00  0.00    +0.000 A 
ATOM      9  C   UNL     1       1.867   8.759  18.470  0.00  0.00    +0.000 C 
ATOM     10  O   UNL     1       2.369   8.865  17.366  0.00  0.00    +0.000 OA
ENDROOT
BRANCH   1  15
ATOM     11  C   UNL     1       4.597   5.255  18.348  0.00  0.00    +0.000 A 
ATOM     12  C   UNL     1       4.122   4.090  18.963  0.00  0.00    +0.000 A 
ATOM     13  C   UNL     1       2.957   4.099  19.754  0.00  0.00    +0.000 A 
ATOM     14  C   UNL     1       2.204   5.272  19.943  0.00  0.00    +0.000 A 
ATOM     15  C   UNL     1       2.620   6.445  19.338  0.00  0.00    +0.000 A 
ATOM     16  C   UNL     1       3.820   6.397  18.586  0.00  0.00    +0.000 A 
BRANCH  11  17
ATOM     17  C   UNL     1       5.940   5.366  17.441  0.00  0.00    +0.000 C 
ATOM     18  C   UNL     1       7.264   5.476  18.244  0.00  0.00    +0.000 C 
ATOM     19  O   UNL     1       7.593   6.754  17.670  0.00  0.00    +0.000 OA
ATOM     20  C   UNL     1       6.360   6.779  16.921  0.00  0.00    +0.000 C 
BRANCH  17  21
ATOM     21  C   UNL     1       5.977   4.297  16.318  0.00  0.00    +0.000 C 
BRANCH  21  27
ATOM     22  C   UNL     1       5.260   3.576  13.317  0.00  0.00    +0.000 C 
ATOM     23  N   UNL     1       6.352   4.383  13.778  0.00  0.00    +0.000 N 
ATOM     24  C   UNL     1       7.289   4.952  12.973  0.00  0.00    +0.000 A 
ATOM     25  N   UNL     1       8.173   5.590  13.709  0.00  0.00    +0.000 NA
ATOM     26  N   UNL     1       7.813   5.420  15.023  0.00  0.00    +0.000 NA
ATOM     27  C   UNL     1       6.702   4.718  15.073  0.00  0.00    +0.000 A 
ENDBRANCH  21  27
ENDBRANCH  17  21
ENDBRANCH  11  17
ENDBRANCH   1  15
BRANCH   8  28
ATOM     28  C   UNL     1      -0.189   9.651  22.751  0.00  0.00    +0.000 C 
ATOM     29  F   UNL     1      -0.930   8.514  22.796  0.00  0.00    +0.000 F 
ATOM     30  F   UNL     1       0.954   9.379  23.438  0.00  0.00    +0.000 F 
ATOM     31  F   UNL     1      -0.873  10.560  23.496  0.00  0.00    +0.000 F 
ENDBRANCH   8  28
BRANCH   6  32
ATOM     32  C   UNL     1      -0.399  13.388  19.388  0.00  0.00    +0.000 C 
BRANCH  32  33
ATOM     33  N   UNL     1       0.758  14.279  19.153  0.00  0.00    +0.000 NA
ATOM     34  C   UNL     1       0.380  15.656  18.822  0.00  0.00    +0.000 C 
ATOM     35  C   UNL     1       0.008  16.517  20.028  0.00  0.00    +0.000 C 
ATOM     36  C   UNL     1       1.075  16.459  21.108  0.00  0.00    +0.000 C 
ATOM     37  F   UNL     1       0.618  17.100  22.220  0.00  0.00    +0.000 F 
ATOM     38  C   UNL     1       1.473  15.035  21.467  0.00  0.00    +0.000 C 
ATOM     39  F   UNL     1       0.455  14.416  22.130  0.00  0.00    +0.000 F 
ATOM     40  C   UNL     1       1.787  14.228  20.206  0.00  0.00    +0.000 C 
ENDBRANCH  32  33
ENDBRANCH   6  32
TORSDOF 7
ENDMDL
MODEL 8
REMARK VINA RESULT:      -8.8      3.898      9.454
REMARK  Name = 
REMARK  8 active torsions:
REMARK  status: ('A' for Active; 'I' for Inactive)
REMARK    1  A    between atoms: C_1  and  N_2
REMARK    2  A    between atoms: C_6  and  C_7
REMARK    3  A    between atoms: C_7  and  C_8
REMARK    4  A    between atoms: C_8  and  C_9
REMARK    5  A    between atoms: C_13  and  N_14
REMARK    6  A    between atoms: C_19  and  C_20
REMARK    7  A    between atoms: C_20  and  N_21
REMARK    8  A    between atoms: C_30  and  C_31
REMARK                            x       y       z     vdW  Elec       q    Type
REMARK                         _______ _______ _______ _____ _____    ______ ____
ROOT
ATOM      1  N   UNL     1       1.370   8.164  20.226  0.00  0.00    +0.000 N 
ATOM      2  C   UNL     1       1.533   6.861  20.823  0.00  0.00    +0.000 C 
ATOM      3  C   UNL     1       2.151   6.039  19.770  0.00  0.00    +0.000 A 
ATOM      4  C   UNL     1       2.437   6.817  18.653  0.00  0.00    +0.000 A 
ATOM      5  C   UNL     1       3.057   6.243  17.544  0.00  0.00    +0.000 A 
ATOM      6  C   UNL     1       3.355   4.858  17.582  0.00  0.00    +0.000 A 
ATOM      7  C   UNL     1       3.022   4.102  18.737  0.00  0.00    +0.000 A 
ATOM      8  C   UNL     1       2.398   4.676  19.843  0.00  0.00    +0.000 A 
ATOM      9  C   UNL     1       1.914   8.190  18.931  0.00  0.00    +0.000 C 
ATOM     10  O   UNL     1       1.958   9.107  18.131  0.00  0.00    +0.000 OA
ENDROOT
BRANCH   1  15
ATOM     11  C   UNL     1      -0.755  11.220  20.765  0.00  0.00    +0.000 A 
ATOM     12  C   UNL     1      -0.808  11.237  22.164  0.00  0.00    +0.000 A 
ATOM     13  C   UNL     1      -0.200  10.227  22.935  0.00  0.00    +0.000 A 
ATOM     14  C   UNL     1       0.508   9.169  22.337  0.00  0.00    +0.000 A 
ATOM     15  C   UNL     1       0.608   9.119  20.957  0.00  0.00    +0.000 A 
ATOM     16  C   UNL     1      -0.055  10.133  20.222  0.00  0.00    +0.000 A 
BRANCH  11  17
ATOM     17  C   UNL     1      -1.442  12.313  19.779  0.00  0.00    +0.000 C 
ATOM     18  C   UNL     1      -0.528  12.827  18.635  0.00  0.00    +0.000 C 
ATOM     19  O   UNL     1      -0.607  14.192  19.084  0.00  0.00    +0.000 OA
ATOM     20  C   UNL     1      -1.417  13.814  20.217  0.00  0.00    +0.000 C 
BRANCH  17  21
ATOM     21  C   UNL     1      -2.849  11.867  19.303  0.00  0.00    +0.000 C 
BRANCH  21  27
ATOM     22  C   UNL     1      -5.203  12.075  17.193  0.00  0.00    +0.000 C 
ATOM     23  N   UNL     1      -3.940  11.417  17.021  0.00  0.00    +0.000 N 
ATOM     24  C   UNL     1      -3.566  10.738  15.904  0.00  0.00    +0.000 A 
ATOM     25  N   UNL     1      -2.371  10.218  16.085  0.00  0.00    +0.000 NA
ATOM     26  N   UNL     1      -1.964  10.554  17.352  0.00  0.00    +0.000 NA
ATOM     27  C   UNL     1      -2.892  11.299  17.914  0.00  0.00    +0.000 A 
ENDBRANCH  21  27
ENDBRANCH  17  21
ENDBRANCH  11  17
ENDBRANCH   1  15
BRANCH   8  28
ATOM     28  C   UNL     1       1.985   3.836  21.024  0.00  0.00    +0.000 C 
ATOM     29  F   UNL     1       2.438   2.556  20.981  0.00  0.00    +0.000 F 
ATOM     30  F   UNL     1       2.431   4.350  22.203  0.00  0.00    +0.000 F 
ATOM     31  F   UNL     1       0.633   3.738  21.140  0.00  0.00    +0.000 F 
ENDBRANCH   8  28
BRANCH   6  32
ATOM     32  C   UNL     1       4.050   4.110  16.444  0.00  0.00    +0.000 C 
BRANCH  32  33
ATOM     33  N   UNL     1       5.509   4.022  16.675  0.00  0.00    +0.000 NA
ATOM     34  C   UNL     1       6.200   3.138  15.731  0.00  0.00    +0.000 C 
ATOM     35  C   UNL     1       6.489   3.768  14.370  0.00  0.00    +0.000 C 
ATOM     36  C   UNL     1       7.184   5.111  14.511  0.00  0.00    +0.000 C 
ATOM     37  F   UNL     1       7.264   5.703  13.286  0.00  0.00    +0.000 F 
ATOM     38  C   UNL     1       6.475   6.043  15.483  0.00  0.00    +0.000 C 
ATOM     39  F   UNL     1       5.292   6.463  14.951  0.00  0.00    +0.000 F 
ATOM     40  C   UNL     1       6.183   5.326  16.802  0.00  0.00    +0.000 C 
ENDBRANCH  32  33
ENDBRANCH   6  32
TORSDOF 7
ENDMDL
MODEL 9
REMARK VINA RESULT:      -8.8      4.803     11.472
REMARK  Name = 
REMARK  8 active torsions:
REMARK  status: ('A' for Active; 'I' for Inactive)
REMARK    1  A    between atoms: C_1  and  N_2
REMARK    2  A    between atoms: C_6  and  C_7
REMARK    3  A    between atoms: C_7  and  C_8
REMARK    4  A    between atoms: C_8  and  C_9
REMARK    5  A    between atoms: C_13  and  N_14
REMARK    6  A    between atoms: C_19  and  C_20
REMARK    7  A    between atoms: C_20  and  N_21
REMARK    8  A    between atoms: C_30  and  C_31
REMARK                            x       y       z     vdW  Elec       q    Type
REMARK                         _______ _______ _______ _____ _____    ______ ____
ROOT
ATOM      1  N   UNL     1       0.148  11.177  21.605  0.00  0.00    +0.000 N 
ATOM      2  C   UNL     1       0.503  10.901  20.234  0.00  0.00    +0.000 C 
ATOM      3  C   UNL     1       0.977   9.508  20.240  0.00  0.00    +0.000 A 
ATOM      4  C   UNL     1       0.821   8.949  21.504  0.00  0.00    +0.000 A 
ATOM      5  C   UNL     1       1.181   7.620  21.727  0.00  0.00    +0.000 A 
ATOM      6  C   UNL     1       1.726   6.881  20.648  0.00  0.00    +0.000 A 
ATOM      7  C   UNL     1       1.888   7.505  19.383  0.00  0.00    +0.000 A 
ATOM      8  C   UNL     1       1.532   8.834  19.162  0.00  0.00    +0.000 A 
ATOM      9  C   UNL     1       0.305  10.029  22.400  0.00  0.00    +0.000 C 
ATOM     10  O   UNL     1       0.107   9.884  23.592  0.00  0.00    +0.000 OA
ENDROOT
BRANCH   1  15
ATOM     11  C   UNL     1      -1.844  14.022  23.046  0.00  0.00    +0.000 A 
ATOM     12  C   UNL     1      -1.100  15.107  22.568  0.00  0.00    +0.000 A 
ATOM     13  C   UNL     1       0.080  14.919  21.822  0.00  0.00    +0.000 A 
ATOM     14  C   UNL     1       0.552  13.633  21.504  0.00  0.00    +0.000 A 
ATOM     15  C   UNL     1      -0.161  12.527  21.934  0.00  0.00    +0.000 A 
ATOM     16  C   UNL     1      -1.318  12.765  22.717  0.00  0.00    +0.000 A 
BRANCH  11  17
ATOM     17  C   UNL     1      -3.200  14.123  23.937  0.00  0.00    +0.000 C 
ATOM     18  C   UNL     1      -4.064  15.384  23.671  0.00  0.00    +0.000 C 
ATOM     19  O   UNL     1      -3.950  15.840  25.032  0.00  0.00    +0.000 OA
ATOM     20  C   UNL     1      -3.090  14.732  25.372  0.00  0.00    +0.000 C 
BRANCH  17  21
ATOM     21  C   UNL     1      -4.006  12.798  23.925  0.00  0.00    +0.000 C 
BRANCH  21  27
ATOM     22  C   UNL     1      -7.144  13.152  24.171  0.00  0.00    +0.000 C 
ATOM     23  N   UNL     1      -6.395  12.863  22.983  0.00  0.00    +0.000 N 
ATOM     24  C   UNL     1      -6.939  12.661  21.753  0.00  0.00    +0.000 A 
ATOM     25  N   UNL     1      -5.987  12.375  20.892  0.00  0.00    +0.000 NA
ATOM     26  N   UNL     1      -4.798  12.377  21.578  0.00  0.00    +0.000 NA
ATOM     27  C   UNL     1      -5.031  12.696  22.833  0.00  0.00    +0.000 A 
ENDBRANCH  21  27
ENDBRANCH  17  21
ENDBRANCH  11  17
ENDBRANCH   1  15
BRANCH   8  28
ATOM     28  C   UNL     1       1.785   9.495  17.831  0.00  0.00    +0.000 C 
ATOM     29  F   UNL     1       0.655   9.823  17.152  0.00  0.00    +0.000 F 
ATOM     30  F   UNL     1       2.494  10.650  17.957  0.00  0.00    +0.000 F 
ATOM     31  F   UNL     1       2.497   8.701  16.988  0.00  0.00    +0.000 F 
ENDBRANCH   8  28
BRANCH   6  32
ATOM     32  C   UNL     1       2.143   5.413  20.752  0.00  0.00    +0.000 C 
BRANCH  32  33
ATOM     33  N   UNL     1       1.219   4.541  19.994  0.00  0.00    +0.000 NA
ATOM     34  C   UNL     1       1.566   4.411  18.575  0.00  0.00    +0.000 C 
ATOM     35  C   UNL     1       2.686   3.414  18.287  0.00  0.00    +0.000 C 
ATOM     36  C   UNL     1       2.419   2.067  18.938  0.00  0.00    +0.000 C 
ATOM     37  F   UNL     1       3.519   1.277  18.794  0.00  0.00    +0.000 F 
ATOM     38  C   UNL     1       2.064   2.186  20.412  0.00  0.00    +0.000 C 
ATOM     39  F   UNL     1       3.160   2.562  21.130  0.00  0.00    +0.000 F 
ATOM     40  C   UNL     1       0.968   3.232  20.622  0.00  0.00    +0.000 C 
ENDBRANCH  32  33
ENDBRANCH   6  32
TORSDOF 7
ENDMDL
