MODEL 1
REMARK VINA RESULT:      -9.0      0.000      0.000
REMARK  Name = 
REMARK  9 active torsions:
REMARK  status: ('A' for Active; 'I' for Inactive)
REMARK    1  A    between atoms: C_1  and  C_2
REMARK    2  A    between atoms: C_2  and  C_3
REMARK    3  A    between atoms: C_2  and  C_10
REMARK    4  A    between atoms: C_3  and  C_4
REMARK    5  A    between atoms: N_8  and  C_9
REMARK    6  A    between atoms: C_14  and  N_15
REMARK    7  A    between atoms: C_16  and  C_18
REMARK    8  A    between atoms: C_22  and  N_23
REMARK    9  A    between atoms: N_26  and  C_27
REMARK                            x       y       z     vdW  Elec       q    Type
REMARK                         _______ _______ _______ _____ _____    ______ ____
ROOT
ATOM      1  N   UNL     1       2.288   7.853  18.902  0.00  0.00    +0.000 N 
ATOM      2  C   UNL     1       1.987   8.973  18.151  0.00  0.00    +0.000 C 
ATOM      3  O   UNL     1       2.049   9.033  16.925  0.00  0.00    +0.000 OA
ATOM      4  H   UNL     1       2.226   7.973  19.907  0.00  0.00    +0.000 HD
ENDROOT
BRANCH   2   5
ATOM      5  C   UNL     1       1.597  10.203  18.919  0.00  0.00    +0.000 A 
ATOM      6  C   UNL     1       0.424  10.109  19.646  0.00  0.00    +0.000 A 
ATOM      7  C   UNL     1      -0.236  11.285  19.955  0.00  0.00    +0.000 A 
ATOM      8  C   UNL     1      -1.620  11.261  20.151  0.00  0.00    +0.000 A 
ATOM      9  C   UNL     1      -2.346  12.452  20.213  0.00  0.00    +0.000 A 
ATOM     10  C   UNL     1      -1.618  13.628  20.441  0.00  0.00    +0.000 A 
ATOM     11  C   UNL     1      -0.230  13.665  20.284  0.00  0.00    +0.000 A 
ATOM     12  C   UNL     1       0.443  12.506  19.874  0.00  0.00    +0.000 A 
ATOM     13  C   UNL     1       1.720  12.474  19.290  0.00  0.00    +0.000 A 
ATOM     14  N   UNL     1       2.283  11.365  18.729  0.00  0.00    +0.000 NA
BRANCH   9  15
ATOM     15  N   UNL     1      -3.690  12.481  19.889  0.00  0.00    +0.000 N 
ATOM     16  C   UNL     1      -4.671  12.925  20.884  0.00  0.00    +0.000 C 
ATOM     17  C   UNL     1      -5.724  13.792  20.192  0.00  0.00    +0.000 C 
ATOM     18  N   UNL     1      -6.371  13.045  19.124  0.00  0.00    +0.000 N 
ATOM     19  C   UNL     1      -7.776  13.253  18.855  0.00  0.00    +0.000 C 
ATOM     20  C   UNL     1      -5.587  12.378  18.186  0.00  0.00    +0.000 C 
ATOM     21  O   UNL     1      -6.013  12.098  17.063  0.00  0.00    +0.000 OA
ATOM     22  C   UNL     1      -4.217  11.846  18.667  0.00  0.00    +0.000 C 
ENDBRANCH   9  15
ENDBRANCH   2   5
BRANCH   1  27
ATOM     23  C   UNL     1       4.223   5.092  17.300  0.00  0.00    +0.000 A 
ATOM     24  C   UNL     1       3.381   3.997  17.500  0.00  0.00    +0.000 A 
ATOM     25  C   UNL     1       2.133   4.191  18.112  0.00  0.00    +0.000 A 
ATOM     26  C   UNL     1       1.733   5.453  18.567  0.00  0.00    +0.000 A 
ATOM     27  C   UNL     1       2.560   6.561  18.390  0.00  0.00    +0.000 A 
ATOM     28  C   UNL     1       3.766   6.375  17.705  0.00  0.00    +0.000 A 
BRANCH  23  30
ATOM     29  C   UNL     1       6.606   4.770  17.924  0.00  0.00    +0.000 C 
ATOM     30  C   UNL     1       5.647   4.984  16.734  0.00  0.00    +0.000 C 
BRANCH  30  31
ATOM     31  C   UNL     1       5.938   3.928  15.629  0.00  0.00    +0.000 C 
BRANCH  31  32
ATOM     32  C   UNL     1       6.769   4.512  14.513  0.00  0.00    +0.000 A 
ATOM     33  N   UNL     1       7.725   5.408  14.678  0.00  0.00    +0.000 NA
ATOM     34  N   UNL     1       8.279   5.695  13.454  0.00  0.00    +0.000 NA
ATOM     35  C   UNL     1       7.655   4.974  12.556  0.00  0.00    +0.000 A 
ATOM     36  N   UNL     1       6.700   4.216  13.170  0.00  0.00    +0.000 N 
ATOM     37  C   UNL     1       5.840   3.290  12.484  0.00  0.00    +0.000 C 
ENDBRANCH  31  32
ENDBRANCH  30  31
ENDBRANCH  23  30
ENDBRANCH   1  27
TORSDOF 6
ENDMDL
MODEL 2
REMARK VINA RESULT:      -8.9      7.450      9.629
REMARK  Name = 
REMARK  9 active torsions:
REMARK  status: ('A' for Active; 'I' for Inactive)
REMARK    1  A    between atoms: C_1  and  C_2
REMARK    2  A    between atoms: C_2  and  C_3
REMARK    3  A    between atoms: C_2  and  C_10
REMARK    4  A    between atoms: C_3  and  C_4
REMARK    5  A    between atoms: N_8  and  C_9
REMARK    6  A    between atoms: C_14  and  N_15
REMARK    7  A    between atoms: C_16  and  C_18
REMARK    8  A    between atoms: C_22  and  N_23
REMARK    9  A    between atoms: N_26  and  C_27
REMARK                            x       y       z     vdW  Elec       q    Type
REMARK                         _______ _______ _______ _____ _____    ______ ____
ROOT
ATOM      1  N   UNL     1       7.235   7.946  17.320  0.00  0.00    +0.000 N 
ATOM      2  C   UNL     1       8.197   8.227  18.270  0.00  0.00    +0.000 C 
ATOM      3  O   UNL     1       8.669   7.407  19.054  0.00  0.00    +0.000 OA
ATOM      4  H   UNL     1       6.917   8.739  16.773  0.00  0.00    +0.000 HD
ENDROOT
BRANCH   2   5
ATOM      5  C   UNL     1       8.650   9.656  18.353  0.00  0.00    +0.000 A 
ATOM      6  C   UNL     1       9.315  10.008  19.514  0.00  0.00    +0.000 A 
ATOM      7  C   UNL     1       9.319  11.344  19.872  0.00  0.00    +0.000 A 
ATOM      8  C   UNL     1       9.439  11.690  21.221  0.00  0.00    +0.000 A 
ATOM      9  C   UNL     1       9.196  12.999  21.640  0.00  0.00    +0.000 A 
ATOM     10  C   UNL     1       9.197  13.993  20.651  0.00  0.00    +0.000 A 
ATOM     11  C   UNL     1       9.111  13.667  19.294  0.00  0.00    +0.000 A 
ATOM     12  C   UNL     1       9.006  12.321  18.920  0.00  0.00    +0.000 A 
ATOM     13  C   UNL     1       8.514  11.859  17.688  0.00  0.00    +0.000 A 
ATOM     14  N   UNL     1       8.245  10.551  17.408  0.00  0.00    +0.000 NA
BRANCH   9  15
ATOM     15  N   UNL     1       8.800  13.267  22.938  0.00  0.00    +0.000 N 
ATOM     16  C   UNL     1       8.855  14.640  23.448  0.00  0.00    +0.000 C 
ATOM     17  C   UNL     1       7.611  14.905  24.298  0.00  0.00    +0.000 C 
ATOM     18  N   UNL     1       7.532  13.948  25.391  0.00  0.00    +0.000 N 
ATOM     19  C   UNL     1       7.012  14.368  26.673  0.00  0.00    +0.000 C 
ATOM     20  C   UNL     1       7.663  12.589  25.119  0.00  0.00    +0.000 C 
ATOM     21  O   UNL     1       7.203  11.728  25.872  0.00  0.00    +0.000 OA
ATOM     22  C   UNL     1       8.561  12.196  23.923  0.00  0.00    +0.000 C 
ENDBRANCH   9  15
ENDBRANCH   2   5
BRANCH   1  27
ATOM     23  C   UNL     1       5.090   4.894  17.479  0.00  0.00    +0.000 A 
ATOM     24  C   UNL     1       5.503   4.193  16.345  0.00  0.00    +0.000 A 
ATOM     25  C   UNL     1       6.547   4.707  15.560  0.00  0.00    +0.000 A 
ATOM     26  C   UNL     1       7.154   5.931  15.865  0.00  0.00    +0.000 A 
ATOM     27  C   UNL     1       6.752   6.656  16.986  0.00  0.00    +0.000 A 
ATOM     28  C   UNL     1       5.768   6.098  17.810  0.00  0.00    +0.000 A 
BRANCH  23  30
ATOM     29  C   UNL     1       2.624   5.071  17.711  0.00  0.00    +0.000 C 
ATOM     30  C   UNL     1       3.897   4.481  18.353  0.00  0.00    +0.000 C 
BRANCH  30  31
ATOM     31  C   UNL     1       3.678   2.972  18.660  0.00  0.00    +0.000 C 
BRANCH  31  32
ATOM     32  C   UNL     1       2.930   2.775  19.957  0.00  0.00    +0.000 A 
ATOM     33  N   UNL     1       3.491   2.764  21.152  0.00  0.00    +0.000 NA
ATOM     34  N   UNL     1       2.512   2.582  22.099  0.00  0.00    +0.000 NA
ATOM     35  C   UNL     1       1.367   2.482  21.472  0.00  0.00    +0.000 A 
ATOM     36  N   UNL     1       1.576   2.597  20.128  0.00  0.00    +0.000 N 
ATOM     37  C   UNL     1       0.530   2.554  19.141  0.00  0.00    +0.000 C 
ENDBRANCH  31  32
ENDBRANCH  30  31
ENDBRANCH  23  30
ENDBRANCH   1  27
TORSDOF 6
ENDMDL
MODEL 3
REMARK VINA RESULT:      -8.9      7.537      9.739
REMARK  Name = 
REMARK  9 active torsions:
REMARK  status: ('A' for Active; 'I' for Inactive)
REMARK    1  A    between atoms: C_1  and  C_2
REMARK    2  A    between atoms: C_2  and  C_3
REMARK    3  A    between atoms: C_2  and  C_10
REMARK    4  A    between atoms: C_3  and  C_4
REMARK    5  A    between atoms: N_8  and  C_9
REMARK    6  A    between atoms: C_14  and  N_15
REMARK    7  A    between atoms: C_16  and  C_18
REMARK    8  A    between atoms: C_22  and  N_23
REMARK    9  A    between atoms: N_26  and  C_27
REMARK                            x       y       z     vdW  Elec       q    Type
REMARK                         _______ _______ _______ _____ _____    ______ ____
ROOT
ATOM      1  N   UNL     1       7.095   8.007  17.250  0.00  0.00    +0.000 N 
ATOM      2  C   UNL     1       8.090   8.208  18.184  0.00  0.00    +0.000 C 
ATOM      3  O   UNL     1       8.538   7.341  18.931  0.00  0.00    +0.000 OA
ATOM      4  H   UNL     1       6.805   8.832  16.736  0.00  0.00    +0.000 HD
ENDROOT
BRANCH   2   5
ATOM      5  C   UNL     1       8.618   9.609  18.301  0.00  0.00    +0.000 A 
ATOM      6  C   UNL     1       9.245   9.917  19.496  0.00  0.00    +0.000 A 
ATOM      7  C   UNL     1       9.306  11.249  19.865  0.00  0.00    +0.000 A 
ATOM      8  C   UNL     1       9.380  11.580  21.221  0.00  0.00    +0.000 A 
ATOM      9  C   UNL     1       9.190  12.898  21.639  0.00  0.00    +0.000 A 
ATOM     10  C   UNL     1       9.294  13.896  20.660  0.00  0.00    +0.000 A 
ATOM     11  C   UNL     1       9.255  13.583  19.297  0.00  0.00    +0.000 A 
ATOM     12  C   UNL     1       9.094  12.247  18.907  0.00  0.00    +0.000 A 
ATOM     13  C   UNL     1       8.636  11.820  17.649  0.00  0.00    +0.000 A 
ATOM     14  N   UNL     1       8.309  10.531  17.346  0.00  0.00    +0.000 NA
BRANCH   9  15
ATOM     15  N   UNL     1       8.748  13.180  22.919  0.00  0.00    +0.000 N 
ATOM     16  C   UNL     1       7.975  12.179  23.660  0.00  0.00    +0.000 C 
ATOM     17  C   UNL     1       8.433  12.177  25.119  0.00  0.00    +0.000 C 
ATOM     18  N   UNL     1       8.265  13.499  25.704  0.00  0.00    +0.000 N 
ATOM     19  C   UNL     1       7.877  13.624  27.091  0.00  0.00    +0.000 C 
ATOM     20  C   UNL     1       8.765  14.611  25.031  0.00  0.00    +0.000 C 
ATOM     21  O   UNL     1       9.039  15.659  25.620  0.00  0.00    +0.000 OA
ATOM     22  C   UNL     1       8.801  14.540  23.486  0.00  0.00    +0.000 C 
ENDBRANCH   9  15
ENDBRANCH   2   5
BRANCH   1  27
ATOM     23  C   UNL     1       4.605   5.229  17.092  0.00  0.00    +0.000 A 
ATOM     24  C   UNL     1       5.163   4.398  16.119  0.00  0.00    +0.000 A 
ATOM     25  C   UNL     1       6.407   4.731  15.560  0.00  0.00    +0.000 A 
ATOM     26  C   UNL     1       7.080   5.902  15.926  0.00  0.00    +0.000 A 
ATOM     27  C   UNL     1       6.540   6.755  16.887  0.00  0.00    +0.000 A 
ATOM     28  C   UNL     1       5.340   6.374  17.500  0.00  0.00    +0.000 A 
BRANCH  23  30
ATOM     29  C   UNL     1       2.647   3.701  17.129  0.00  0.00    +0.000 C 
ATOM     30  C   UNL     1       3.210   5.020  17.698  0.00  0.00    +0.000 C 
BRANCH  30  31
ATOM     31  C   UNL     1       3.055   5.031  19.246  0.00  0.00    +0.000 C 
BRANCH  31  32
ATOM     32  C   UNL     1       3.567   3.752  19.863  0.00  0.00    +0.000 A 
ATOM     33  N   UNL     1       4.781   3.265  19.681  0.00  0.00    +0.000 NA
ATOM     34  N   UNL     1       4.906   2.104  20.405  0.00  0.00    +0.000 NA
ATOM     35  C   UNL     1       3.768   1.894  21.018  0.00  0.00    +0.000 A 
ATOM     36  N   UNL     1       2.897   2.900  20.711  0.00  0.00    +0.000 N 
ATOM     37  C   UNL     1       1.559   2.996  21.230  0.00  0.00    +0.000 C 
ENDBRANCH  31  32
ENDBRANCH  30  31
ENDBRANCH  23  30
ENDBRANCH   1  27
TORSDOF 6
ENDMDL
MODEL 4
REMARK VINA RESULT:      -8.8      3.183      6.002
REMARK  Name = 
REMARK  9 active torsions:
REMARK  status: ('A' for Active; 'I' for Inactive)
REMARK    1  A    between atoms: C_1  and  C_2
REMARK    2  A    between atoms: C_2  and  C_3
REMARK    3  A    between atoms: C_2  and  C_10
REMARK    4  A    between atoms: C_3  and  C_4
REMARK    5  A    between atoms: N_8  and  C_9
REMARK    6  A    between atoms: C_14  and  N_15
REMARK    7  A    between atoms: C_16  and  C_18
REMARK    8  A    between atoms: C_22  and  N_23
REMARK    9  A    between atoms: N_26  and  C_27
REMARK                            x       y       z     vdW  Elec       q    Type
REMARK                         _______ _______ _______ _____ _____    ______ ____
ROOT
ATOM      1  N   UNL     1       2.051   8.125  18.707  0.00  0.00    +0.000 N 
ATOM      2  C   UNL     1       1.468   8.817  19.750  0.00  0.00    +0.000 C 
ATOM      3  O   UNL     1       1.303   8.370  20.883  0.00  0.00    +0.000 OA
ATOM      4  H   UNL     1       2.080   8.616  17.820  0.00  0.00    +0.000 HD
ENDROOT
BRANCH   2   5
ATOM      5  C   UNL     1       0.974  10.200  19.436  0.00  0.00    +0.000 A 
ATOM      6  C   UNL     1       1.712  10.902  18.500  0.00  0.00    +0.000 A 
ATOM      7  C   UNL     1       1.633  12.283  18.524  0.00  0.00    +0.000 A 
ATOM      8  C   UNL     1       2.709  13.038  18.051  0.00  0.00    +0.000 A 
ATOM      9  C   UNL     1       2.770  14.412  18.289  0.00  0.00    +0.000 A 
ATOM     10  C   UNL     1       1.579  15.042  18.676  0.00  0.00    +0.000 A 
ATOM     11  C   UNL     1       0.478  14.304  19.121  0.00  0.00    +0.000 A 
ATOM     12  C   UNL     1       0.576  12.908  19.197  0.00  0.00    +0.000 A 
ATOM     13  C   UNL     1      -0.245  12.079  19.979  0.00  0.00    +0.000 A 
ATOM     14  N   UNL     1      -0.022  10.749  20.187  0.00  0.00    +0.000 NA
BRANCH   9  15
ATOM     15  N   UNL     1       3.983  15.075  18.313  0.00  0.00    +0.000 N 
ATOM     16  C   UNL     1       4.017  16.524  18.531  0.00  0.00    +0.000 C 
ATOM     17  C   UNL     1       5.188  16.861  19.456  0.00  0.00    +0.000 C 
ATOM     18  N   UNL     1       6.439  16.394  18.879  0.00  0.00    +0.000 N 
ATOM     19  C   UNL     1       7.646  17.167  19.067  0.00  0.00    +0.000 C 
ATOM     20  C   UNL     1       6.532  15.081  18.424  0.00  0.00    +0.000 C 
ATOM     21  O   UNL     1       7.616  14.502  18.325  0.00  0.00    +0.000 OA
ATOM     22  C   UNL     1       5.237  14.434  17.878  0.00  0.00    +0.000 C 
ENDBRANCH   9  15
ENDBRANCH   2   5
BRANCH   1  27
ATOM     23  C   UNL     1       4.491   5.403  17.948  0.00  0.00    +0.000 A 
ATOM     24  C   UNL     1       4.235   4.493  18.974  0.00  0.00    +0.000 A 
ATOM     25  C   UNL     1       3.199   4.756  19.885  0.00  0.00    +0.000 A 
ATOM     26  C   UNL     1       2.446   5.933  19.813  0.00  0.00    +0.000 A 
ATOM     27  C   UNL     1       2.690   6.864  18.804  0.00  0.00    +0.000 A 
ATOM     28  C   UNL     1       3.668   6.557  17.851  0.00  0.00    +0.000 A 
BRANCH  23  30
ATOM     29  C   UNL     1       6.873   4.731  17.740  0.00  0.00    +0.000 C 
ATOM     30  C   UNL     1       5.658   5.272  16.958  0.00  0.00    +0.000 C 
BRANCH  30  31
ATOM     31  C   UNL     1       5.453   4.434  15.663  0.00  0.00    +0.000 C 
BRANCH  31  32
ATOM     32  C   UNL     1       6.488   4.772  14.617  0.00  0.00    +0.000 A 
ATOM     33  N   UNL     1       7.520   5.572  14.814  0.00  0.00    +0.000 NA
ATOM     34  N   UNL     1       8.259   5.634  13.657  0.00  0.00    +0.000 NA
ATOM     35  C   UNL     1       7.671   4.873  12.769  0.00  0.00    +0.000 A 
ATOM     36  N   UNL     1       6.556   4.310  13.322  0.00  0.00    +0.000 N 
ATOM     37  C   UNL     1       5.682   3.401  12.631  0.00  0.00    +0.000 C 
ENDBRANCH  31  32
ENDBRANCH  30  31
ENDBRANCH  23  30
ENDBRANCH   1  27
TORSDOF 6
ENDMDL
MODEL 5
REMARK VINA RESULT:      -8.7      3.496      5.793
REMARK  Name = 
REMARK  9 active torsions:
REMARK  status: ('A' for Active; 'I' for Inactive)
REMARK    1  A    between atoms: C_1  and  C_2
REMARK    2  A    between atoms: C_2  and  C_3
REMARK    3  A    between atoms: C_2  and  C_10
REMARK    4  A    between atoms: C_3  and  C_4
REMARK    5  A    between atoms: N_8  and  C_9
REMARK    6  A    between atoms: C_14  and  N_15
REMARK    7  A    between atoms: C_16  and  C_18
REMARK    8  A    between atoms: C_22  and  N_23
REMARK    9  A    between atoms: N_26  and  C_27
REMARK                            x       y       z     vdW  Elec       q    Type
REMARK                         _______ _______ _______ _____ _____    ______ ____
ROOT
ATOM      1  N   UNL     1       2.166   7.395  19.044  0.00  0.00    +0.000 N 
ATOM      2  C   UNL     1       1.984   8.523  18.269  0.00  0.00    +0.000 C 
ATOM      3  O   UNL     1       2.286   8.615  17.082  0.00  0.00    +0.000 OA
ATOM      4  H   UNL     1       1.903   7.488  20.019  0.00  0.00    +0.000 HD
ENDROOT
BRANCH   2   5
ATOM      5  C   UNL     1       1.410   9.722  18.967  0.00  0.00    +0.000 A 
ATOM      6  C   UNL     1       1.763  10.951  18.437  0.00  0.00    +0.000 A 
ATOM      7  C   UNL     1       1.697  12.052  19.271  0.00  0.00    +0.000 A 
ATOM      8  C   UNL     1       2.532  13.146  19.027  0.00  0.00    +0.000 A 
ATOM      9  C   UNL     1       2.673  14.156  19.981  0.00  0.00    +0.000 A 
ATOM     10  C   UNL     1       1.698  14.220  20.986  0.00  0.00    +0.000 A 
ATOM     11  C   UNL     1       0.830  13.151  21.225  0.00  0.00    +0.000 A 
ATOM     12  C   UNL     1       0.950  11.987  20.453  0.00  0.00    +0.000 A 
ATOM     13  C   UNL     1       0.463  10.720  20.816  0.00  0.00    +0.000 A 
ATOM     14  N   UNL     1       0.747   9.566  20.148  0.00  0.00    +0.000 NA
BRANCH   9  15
ATOM     15  N   UNL     1       3.814  14.937  20.025  0.00  0.00    +0.000 N 
ATOM     16  C   UNL     1       4.729  14.955  18.879  0.00  0.00    +0.000 C 
ATOM     17  C   UNL     1       5.217  16.388  18.657  0.00  0.00    +0.000 C 
ATOM     18  N   UNL     1       5.875  16.890  19.854  0.00  0.00    +0.000 N 
ATOM     19  C   UNL     1       7.014  17.771  19.729  0.00  0.00    +0.000 C 
ATOM     20  C   UNL     1       5.233  16.773  21.084  0.00  0.00    +0.000 C 
ATOM     21  O   UNL     1       5.503  17.514  22.031  0.00  0.00    +0.000 OA
ATOM     22  C   UNL     1       4.290  15.561  21.272  0.00  0.00    +0.000 C 
ENDBRANCH   9  15
ENDBRANCH   2   5
BRANCH   1  27
ATOM     23  C   UNL     1       4.330   4.837  17.397  0.00  0.00    +0.000 A 
ATOM     24  C   UNL     1       3.679   3.649  17.736  0.00  0.00    +0.000 A 
ATOM     25  C   UNL     1       2.478   3.704  18.460  0.00  0.00    +0.000 A 
ATOM     26  C   UNL     1       1.941   4.923  18.888  0.00  0.00    +0.000 A 
ATOM     27  C   UNL     1       2.577   6.123  18.573  0.00  0.00    +0.000 A 
ATOM     28  C   UNL     1       3.729   6.065  17.781  0.00  0.00    +0.000 A 
BRANCH  23  30
ATOM     29  C   UNL     1       6.782   4.835  17.791  0.00  0.00    +0.000 C 
ATOM     30  C   UNL     1       5.696   4.895  16.698  0.00  0.00    +0.000 C 
BRANCH  30  31
ATOM     31  C   UNL     1       6.014   3.856  15.584  0.00  0.00    +0.000 C 
BRANCH  31  32
ATOM     32  C   UNL     1       6.797   4.479  14.454  0.00  0.00    +0.000 A 
ATOM     33  N   UNL     1       7.738   5.393  14.608  0.00  0.00    +0.000 NA
ATOM     34  N   UNL     1       8.247   5.716  13.373  0.00  0.00    +0.000 NA
ATOM     35  C   UNL     1       7.612   4.999  12.481  0.00  0.00    +0.000 A 
ATOM     36  N   UNL     1       6.693   4.207  13.109  0.00  0.00    +0.000 N 
ATOM     37  C   UNL     1       5.832   3.276  12.431  0.00  0.00    +0.000 C 
ENDBRANCH  31  32
ENDBRANCH  30  31
ENDBRANCH  23  30
ENDBRANCH   1  27
TORSDOF 6
ENDMDL
MODEL 6
REMARK VINA RESULT:      -8.7      6.794      9.645
REMARK  Name = 
REMARK  9 active torsions:
REMARK  status: ('A' for Active; 'I' for Inactive)
REMARK    1  A    between atoms: C_1  and  C_2
REMARK    2  A    between atoms: C_2  and  C_3
REMARK    3  A    between atoms: C_2  and  C_10
REMARK    4  A    between atoms: C_3  and  C_4
REMARK    5  A    between atoms: N_8  and  C_9
REMARK    6  A    between atoms: C_14  and  N_15
REMARK    7  A    between atoms: C_16  and  C_18
REMARK    8  A    between atoms: C_22  and  N_23
REMARK    9  A    between atoms: N_26  and  C_27
REMARK                            x       y       z     vdW  Elec       q    Type
REMARK                         _______ _______ _______ _____ _____    ______ ____
ROOT
ATOM      1  N   UNL     1       7.024   8.208  17.433  0.00  0.00    +0.000 N 
ATOM      2  C   UNL     1       8.118   8.357  18.263  0.00  0.00    +0.000 C 
ATOM      3  O   UNL     1       8.621   7.456  18.930  0.00  0.00    +0.000 OA
ATOM      4  H   UNL     1       6.703   9.057  16.979  0.00  0.00    +0.000 HD
ENDROOT
BRANCH   2   5
ATOM      5  C   UNL     1       8.689   9.742  18.367  0.00  0.00    +0.000 A 
ATOM      6  C   UNL     1       9.315  10.045  19.564  0.00  0.00    +0.000 A 
ATOM      7  C   UNL     1       9.415  11.378  19.917  0.00  0.00    +0.000 A 
ATOM      8  C   UNL     1       9.488  11.724  21.269  0.00  0.00    +0.000 A 
ATOM      9  C   UNL     1       9.337  13.052  21.670  0.00  0.00    +0.000 A 
ATOM     10  C   UNL     1       9.480  14.034  20.679  0.00  0.00    +0.000 A 
ATOM     11  C   UNL     1       9.443  13.706  19.321  0.00  0.00    +0.000 A 
ATOM     12  C   UNL     1       9.243  12.371  18.945  0.00  0.00    +0.000 A 
ATOM     13  C   UNL     1       8.782  11.943  17.689  0.00  0.00    +0.000 A 
ATOM     14  N   UNL     1       8.417  10.661  17.398  0.00  0.00    +0.000 NA
BRANCH   9  15
ATOM     15  N   UNL     1       8.893  13.364  22.942  0.00  0.00    +0.000 N 
ATOM     16  C   UNL     1       8.911  14.756  23.400  0.00  0.00    +0.000 C 
ATOM     17  C   UNL     1       7.635  15.035  24.196  0.00  0.00    +0.000 C 
ATOM     18  N   UNL     1       7.532  14.120  25.323  0.00  0.00    +0.000 N 
ATOM     19  C   UNL     1       6.963  14.581  26.569  0.00  0.00    +0.000 C 
ATOM     20  C   UNL     1       7.692  12.753  25.108  0.00  0.00    +0.000 C 
ATOM     21  O   UNL     1       7.218  11.915  25.878  0.00  0.00    +0.000 OA
ATOM     22  C   UNL     1       8.636  12.328  23.959  0.00  0.00    +0.000 C 
ENDBRANCH   9  15
ENDBRANCH   2   5
BRANCH   1  27
ATOM     23  C   UNL     1       4.475   5.481  17.468  0.00  0.00    +0.000 A 
ATOM     24  C   UNL     1       4.897   4.681  16.405  0.00  0.00    +0.000 A 
ATOM     25  C   UNL     1       6.073   5.014  15.716  0.00  0.00    +0.000 A 
ATOM     26  C   UNL     1       6.809   6.158  16.043  0.00  0.00    +0.000 A 
ATOM     27  C   UNL     1       6.404   6.981  17.093  0.00  0.00    +0.000 A 
ATOM     28  C   UNL     1       5.276   6.597  17.828  0.00  0.00    +0.000 A 
BRANCH  23  30
ATOM     29  C   UNL     1       2.175   6.369  17.766  0.00  0.00    +0.000 C 
ATOM     30  C   UNL     1       3.156   5.272  18.226  0.00  0.00    +0.000 C 
BRANCH  30  31
ATOM     31  C   UNL     1       2.461   3.882  18.154  0.00  0.00    +0.000 C 
BRANCH  31  32
ATOM     32  C   UNL     1       2.178   3.333  19.531  0.00  0.00    +0.000 A 
ATOM     33  N   UNL     1       1.016   3.429  20.153  0.00  0.00    +0.000 NA
ATOM     34  N   UNL     1       1.114   2.803  21.372  0.00  0.00    +0.000 NA
ATOM     35  C   UNL     1       2.332   2.335  21.482  0.00  0.00    +0.000 A 
ATOM     36  N   UNL     1       3.038   2.641  20.354  0.00  0.00    +0.000 N 
ATOM     37  C   UNL     1       4.406   2.260  20.129  0.00  0.00    +0.000 C 
ENDBRANCH  31  32
ENDBRANCH  30  31
ENDBRANCH  23  30
ENDBRANCH   1  27
TORSDOF 6
ENDMDL
MODEL 7
REMARK VINA RESULT:      -8.7      3.995      5.748
REMARK  Name = 
REMARK  9 active torsions:
REMARK  status: ('A' for Active; 'I' for Inactive)
REMARK    1  A    between atoms: C_1  and  C_2
REMARK    2  A    between atoms: C_2  and  C_3
REMARK    3  A    between atoms: C_2  and  C_10
REMARK    4  A    between atoms: C_3  and  C_4
REMARK    5  A    between atoms: N_8  and  C_9
REMARK    6  A    between atoms: C_14  and  N_15
REMARK    7  A    between atoms: C_16  and  C_18
REMARK    8  A    between atoms: C_22  and  N_23
REMARK    9  A    between atoms: N_26  and  C_27
REMARK                            x       y       z     vdW  Elec       q    Type
REMARK                         _______ _______ _______ _____ _____    ______ ____
ROOT
ATOM      1  N   UNL     1       2.158   6.451  18.656  0.00  0.00    +0.000 N 
ATOM      2  C   UNL     1       2.249   7.740  18.168  0.00  0.00    +0.000 C 
ATOM      3  O   UNL     1       2.888   8.069  17.171  0.00  0.00    +0.000 OA
ATOM      4  H   UNL     1       1.623   6.346  19.512  0.00  0.00    +0.000 HD
ENDROOT
BRANCH   2   5
ATOM      5  C   UNL     1       1.535   8.800  18.956  0.00  0.00    +0.000 A 
ATOM      6  C   UNL     1       1.491  10.054  18.372  0.00  0.00    +0.000 A 
ATOM      7  C   UNL     1       1.311  11.144  19.204  0.00  0.00    +0.000 A 
ATOM      8  C   UNL     1       1.808  12.391  18.815  0.00  0.00    +0.000 A 
ATOM      9  C   UNL     1       1.868  13.445  19.728  0.00  0.00    +0.000 A 
ATOM     10  C   UNL     1       1.094  13.323  20.890  0.00  0.00    +0.000 A 
ATOM     11  C   UNL     1       0.558  12.092  21.280  0.00  0.00    +0.000 A 
ATOM     12  C   UNL     1       0.816  10.956  20.499  0.00  0.00    +0.000 A 
ATOM     13  C   UNL     1       0.713   9.628  20.944  0.00  0.00    +0.000 A 
ATOM     14  N   UNL     1       1.142   8.544  20.235  0.00  0.00    +0.000 NA
BRANCH   9  15
ATOM     15  N   UNL     1       2.782  14.471  19.569  0.00  0.00    +0.000 N 
ATOM     16  C   UNL     1       3.973  14.525  20.421  0.00  0.00    +0.000 C 
ATOM     17  C   UNL     1       5.173  14.947  19.572  0.00  0.00    +0.000 C 
ATOM     18  N   UNL     1       4.923  16.238  18.949  0.00  0.00    +0.000 N 
ATOM     19  C   UNL     1       6.012  17.174  18.778  0.00  0.00    +0.000 C 
ATOM     20  C   UNL     1       3.732  16.441  18.256  0.00  0.00    +0.000 C 
ATOM     21  O   UNL     1       3.628  17.303  17.380  0.00  0.00    +0.000 OA
ATOM     22  C   UNL     1       2.491  15.662  18.749  0.00  0.00    +0.000 C 
ENDBRANCH   9  15
ENDBRANCH   2   5
BRANCH   1  27
ATOM     23  C   UNL     1       4.464   4.292  16.666  0.00  0.00    +0.000 A 
ATOM     24  C   UNL     1       3.898   3.028  16.844  0.00  0.00    +0.000 A 
ATOM     25  C   UNL     1       2.706   2.904  17.574  0.00  0.00    +0.000 A 
ATOM     26  C   UNL     1       2.095   4.014  18.167  0.00  0.00    +0.000 A 
ATOM     27  C   UNL     1       2.645   5.286  18.014  0.00  0.00    +0.000 A 
ATOM     28  C   UNL     1       3.788   5.414  17.216  0.00  0.00    +0.000 A 
BRANCH  23  30
ATOM     29  C   UNL     1       5.596   4.368  14.457  0.00  0.00    +0.000 C 
ATOM     30  C   UNL     1       5.813   4.537  15.975  0.00  0.00    +0.000 C 
BRANCH  30  31
ATOM     31  C   UNL     1       6.568   5.868  16.253  0.00  0.00    +0.000 C 
BRANCH  31  32
ATOM     32  C   UNL     1       7.240   5.852  17.604  0.00  0.00    +0.000 A 
ATOM     33  N   UNL     1       7.385   4.776  18.356  0.00  0.00    +0.000 NA
ATOM     34  N   UNL     1       8.057   5.125  19.503  0.00  0.00    +0.000 NA
ATOM     35  C   UNL     1       8.313   6.408  19.439  0.00  0.00    +0.000 A 
ATOM     36  N   UNL     1       7.821   6.908  18.268  0.00  0.00    +0.000 N 
ATOM     37  C   UNL     1       7.944   8.283  17.862  0.00  0.00    +0.000 C 
ENDBRANCH  31  32
ENDBRANCH  30  31
ENDBRANCH  23  30
ENDBRANCH   1  27
TORSDOF 6
ENDMDL
MODEL 8
REMARK VINA RESULT:      -8.6      2.615      3.308
REMARK  Name = 
REMARK  9 active torsions:
REMARK  status: ('A' for Active; 'I' for Inactive)
REMARK    1  A    between atoms: C_1  and  C_2
REMARK    2  A    between atoms: C_2  and  C_3
REMARK    3  A    between atoms: C_2  and  C_10
REMARK    4  A    between atoms: C_3  and  C_4
REMARK    5  A    between atoms: N_8  and  C_9
REMARK    6  A    between atoms: C_14  and  N_15
REMARK    7  A    between atoms: C_16  and  C_18
REMARK    8  A    between atoms: C_22  and  N_23
REMARK    9  A    between atoms: N_26  and  C_27
REMARK                            x       y       z     vdW  Elec       q    Type
REMARK                         _______ _______ _______ _____ _____    ______ ____
ROOT
ATOM      1  N   UNL     1       1.791   7.981  20.081  0.00  0.00    +0.000 N 
ATOM      2  C   UNL     1       1.567   8.839  19.023  0.00  0.00    +0.000 C 
ATOM      3  O   UNL     1       1.585   8.512  17.838  0.00  0.00    +0.000 OA
ATOM      4  H   UNL     1       1.781   8.411  21.000  0.00  0.00    +0.000 HD
ENDROOT
BRANCH   2   5
ATOM      5  C   UNL     1       1.326  10.279  19.374  0.00  0.00    +0.000 A 
ATOM      6  C   UNL     1       0.730  10.505  20.603  0.00  0.00    +0.000 A 
ATOM      7  C   UNL     1       0.050  11.697  20.777  0.00  0.00    +0.000 A 
ATOM      8  C   UNL     1      -1.002  11.755  21.696  0.00  0.00    +0.000 A 
ATOM      9  C   UNL     1      -1.864  12.853  21.716  0.00  0.00    +0.000 A 
ATOM     10  C   UNL     1      -1.428  14.015  21.064  0.00  0.00    +0.000 A 
ATOM     11  C   UNL     1      -0.357  13.985  20.166  0.00  0.00    +0.000 A 
ATOM     12  C   UNL     1       0.281  12.765  19.903  0.00  0.00    +0.000 A 
ATOM     13  C   UNL     1       1.063  12.488  18.770  0.00  0.00    +0.000 A 
ATOM     14  N   UNL     1       1.523  11.247  18.435  0.00  0.00    +0.000 NA
BRANCH   9  15
ATOM     15  N   UNL     1      -3.153  12.734  22.203  0.00  0.00    +0.000 N 
ATOM     16  C   UNL     1      -3.372  12.316  23.591  0.00  0.00    +0.000 C 
ATOM     17  C   UNL     1      -4.515  13.140  24.184  0.00  0.00    +0.000 C 
ATOM     18  N   UNL     1      -5.725  12.969  23.394  0.00  0.00    +0.000 N 
ATOM     19  C   UNL     1      -7.013  12.950  24.052  0.00  0.00    +0.000 C 
ATOM     20  C   UNL     1      -5.666  13.131  22.013  0.00  0.00    +0.000 C 
ATOM     21  O   UNL     1      -6.664  13.418  21.348  0.00  0.00    +0.000 OA
ATOM     22  C   UNL     1      -4.332  12.766  21.319  0.00  0.00    +0.000 C 
ENDBRANCH   9  15
ENDBRANCH   2   5
BRANCH   1  27
ATOM     23  C   UNL     1       3.114   4.681  18.944  0.00  0.00    +0.000 A 
ATOM     24  C   UNL     1       2.481   3.800  19.821  0.00  0.00    +0.000 A 
ATOM     25  C   UNL     1       1.558   4.300  20.752  0.00  0.00    +0.000 A 
ATOM     26  C   UNL     1       1.291   5.670  20.850  0.00  0.00    +0.000 A 
ATOM     27  C   UNL     1       1.919   6.573  19.994  0.00  0.00    +0.000 A 
ATOM     28  C   UNL     1       2.776   6.059  19.013  0.00  0.00    +0.000 A 
BRANCH  23  30
ATOM     29  C   UNL     1       3.527   3.548  16.772  0.00  0.00    +0.000 C 
ATOM     30  C   UNL     1       4.213   4.263  17.955  0.00  0.00    +0.000 C 
BRANCH  30  31
ATOM     31  C   UNL     1       5.191   5.347  17.417  0.00  0.00    +0.000 C 
BRANCH  31  32
ATOM     32  C   UNL     1       6.358   5.551  18.352  0.00  0.00    +0.000 A 
ATOM     33  N   UNL     1       6.587   4.830  19.435  0.00  0.00    +0.000 NA
ATOM     34  N   UNL     1       7.741   5.279  20.030  0.00  0.00    +0.000 NA
ATOM     35  C   UNL     1       8.202   6.268  19.306  0.00  0.00    +0.000 A 
ATOM     36  N   UNL     1       7.371   6.476  18.243  0.00  0.00    +0.000 N 
ATOM     37  C   UNL     1       7.589   7.475  17.232  0.00  0.00    +0.000 C 
ENDBRANCH  31  32
ENDBRANCH  30  31
ENDBRANCH  23  30
ENDBRANCH   1  27
TORSDOF 6
ENDMDL
MODEL 9
REMARK VINA RESULT:      -8.6      1.825      2.641
REMARK  Name = 
REMARK  9 active torsions:
REMARK  status: ('A' for Active; 'I' for Inactive)
REMARK    1  A    between atoms: C_1  and  C_2
REMARK    2  A    between atoms: C_2  and  C_3
REMARK    3  A    between atoms: C_2  and  C_10
REMARK    4  A    between atoms: C_3  and  C_4
REMARK    5  A    between atoms: N_8  and  C_9
REMARK    6  A    between atoms: C_14  and  N_15
REMARK    7  A    between atoms: C_16  and  C_18
REMARK    8  A    between atoms: C_22  and  N_23
REMARK    9  A    between atoms: N_26  and  C_27
REMARK                            x       y       z     vdW  Elec       q    Type
REMARK                         _______ _______ _______ _____ _____    ______ ____
ROOT
ATOM      1  N   UNL     1       2.714   7.259  18.065  0.00  0.00    +0.000 N 
ATOM      2  C   UNL     1       2.081   7.801  19.166  0.00  0.00    +0.000 C 
ATOM      3  O   UNL     1       1.668   7.156  20.127  0.00  0.00    +0.000 OA
ATOM      4  H   UNL     1       2.961   7.919  17.335  0.00  0.00    +0.000 HD
ENDROOT
BRANCH   2   5
ATOM      5  C   UNL     1       1.862   9.287  19.140  0.00  0.00    +0.000 A 
ATOM      6  C   UNL     1       0.888   9.764  20.001  0.00  0.00    +0.000 A 
ATOM      7  C   UNL     1       0.301  10.979  19.696  0.00  0.00    +0.000 A 
ATOM      8  C   UNL     1      -1.000  11.238  20.136  0.00  0.00    +0.000 A 
ATOM      9  C   UNL     1      -1.709  12.334  19.640  0.00  0.00    +0.000 A 
ATOM     10  C   UNL     1      -0.965  13.334  18.999  0.00  0.00    +0.000 A 
ATOM     11  C   UNL     1       0.349  13.106  18.580  0.00  0.00    +0.000 A 
ATOM     12  C   UNL     1       0.926  11.847  18.793  0.00  0.00    +0.000 A 
ATOM     13  C   UNL     1       2.034  11.335  18.098  0.00  0.00    +0.000 A 
ATOM     14  N   UNL     1       2.469  10.045  18.184  0.00  0.00    +0.000 NA
BRANCH   9  15
ATOM     15  N   UNL     1      -3.092  12.338  19.630  0.00  0.00    +0.000 N 
ATOM     16  C   UNL     1      -3.828  12.795  20.812  0.00  0.00    +0.000 C 
ATOM     17  C   UNL     1      -5.026  13.631  20.360  0.00  0.00    +0.000 C 
ATOM     18  N   UNL     1      -5.886  12.850  19.483  0.00  0.00    +0.000 N 
ATOM     19  C   UNL     1      -7.319  13.034  19.537  0.00  0.00    +0.000 C 
ATOM     20  C   UNL     1      -5.324  12.171  18.406  0.00  0.00    +0.000 C 
ATOM     21  O   UNL     1      -5.989  11.858  17.416  0.00  0.00    +0.000 OA
ATOM     22  C   UNL     1      -3.872  11.667  18.573  0.00  0.00    +0.000 C 
ENDBRANCH   9  15
ENDBRANCH   2   5
BRANCH   1  27
ATOM     23  C   UNL     1       4.714   4.349  16.851  0.00  0.00    +0.000 A 
ATOM     24  C   UNL     1       4.250   3.320  17.671  0.00  0.00    +0.000 A 
ATOM     25  C   UNL     1       3.218   3.580  18.586  0.00  0.00    +0.000 A 
ATOM     26  C   UNL     1       2.675   4.863  18.727  0.00  0.00    +0.000 A 
ATOM     27  C   UNL     1       3.129   5.911  17.928  0.00  0.00    +0.000 A 
ATOM     28  C   UNL     1       4.100   5.625  16.961  0.00  0.00    +0.000 A 
BRANCH  23  30
ATOM     29  C   UNL     1       5.335   4.169  14.453  0.00  0.00    +0.000 C 
ATOM     30  C   UNL     1       5.901   4.207  15.888  0.00  0.00    +0.000 C 
BRANCH  30  31
ATOM     31  C   UNL     1       7.061   5.242  15.967  0.00  0.00    +0.000 C 
BRANCH  31  32
ATOM     32  C   UNL     1       7.505   5.467  17.392  0.00  0.00    +0.000 A 
ATOM     33  N   UNL     1       7.791   4.504  18.249  0.00  0.00    +0.000 NA
ATOM     34  N   UNL     1       8.177   5.071  19.439  0.00  0.00    +0.000 NA
ATOM     35  C   UNL     1       8.120   6.372  19.296  0.00  0.00    +0.000 A 
ATOM     36  N   UNL     1       7.705   6.670  18.030  0.00  0.00    +0.000 N 
ATOM     37  C   UNL     1       7.550   8.007  17.525  0.00  0.00    +0.000 C 
ENDBRANCH  31  32
ENDBRANCH  30  31
ENDBRANCH  23  30
ENDBRANCH   1  27
TORSDOF 6
ENDMDL
