MODEL 1
REMARK VINA RESULT:      -9.3      0.000      0.000
REMARK  Name = 
REMARK  7 active torsions:
REMARK  status: ('A' for Active; 'I' for Inactive)
REMARK    1  A    between atoms: C_1  and  C_2
REMARK    2  A    between atoms: C_2  and  C_3
REMARK    3  A    between atoms: C_2  and  C_10
REMARK    4  A    between atoms: C_3  and  C_4
REMARK    5  A    between atoms: N_8  and  C_9
REMARK    6  A    between atoms: C_12  and  C_13
REMARK    7  A    between atoms: C_27  and  C_28
REMARK                            x       y       z     vdW  Elec       q    Type
REMARK                         _______ _______ _______ _____ _____    ______ ____
ROOT
ATOM      1  C   UNL     1       4.544   5.400  17.155  0.00  0.00    +0.000 A 
ATOM      2  C   UNL     1       4.330   4.105  17.636  0.00  0.00    +0.000 A 
ATOM      3  C   UNL     1       3.466   3.901  18.712  0.00  0.00    +0.000 A 
ATOM      4  N   UNL     1       2.809   4.924  19.296  0.00  0.00    +0.000 NA
ATOM      5  C   UNL     1       2.976   6.175  18.830  0.00  0.00    +0.000 A 
ATOM      6  N   UNL     1       2.271   7.232  19.429  0.00  0.00    +0.000 N 
ATOM      7  C   UNL     1       2.294   8.584  18.905  0.00  0.00    +0.000 C 
ATOM      8  C   UNL     1       1.369   9.325  19.811  0.00  0.00    +0.000 A 
ATOM      9  C   UNL     1       0.900   8.453  20.792  0.00  0.00    +0.000 A 
ATOM     10  C   UNL     1       0.041   8.855  21.796  0.00  0.00    +0.000 A 
ATOM     11  C   UNL     1      -0.361  10.189  21.798  0.00  0.00    +0.000 A 
ATOM     12  C   UNL     1       0.089  11.078  20.806  0.00  0.00    +0.000 A 
ATOM     13  C   UNL     1       0.968  10.656  19.784  0.00  0.00    +0.000 A 
ATOM     14  C   UNL     1       1.457   7.115  20.548  0.00  0.00    +0.000 C 
ATOM     15  O   UNL     1       1.183   6.168  21.262  0.00  0.00    +0.000 OA
ATOM     16  C   UNL     1       3.826   6.433  17.761  0.00  0.00    +0.000 A 
ENDROOT
BRANCH   3  17
ATOM     17  C   UNL     1       3.178   2.495  19.205  0.00  0.00    +0.000 C 
ATOM     18  C   UNL     1       1.767   2.273  19.724  0.00  0.00    +0.000 C 
ATOM     19  C   UNL     1       1.864   2.669  21.182  0.00  0.00    +0.000 C 
ATOM     20  O   UNL     1       3.216   2.421  21.598  0.00  0.00    +0.000 OA
ATOM     21  C   UNL     1       4.000   2.124  20.435  0.00  0.00    +0.000 C 
ENDBRANCH   3  17
BRANCH  13  22
ATOM     22  C   UNL     1       1.421  11.626  18.724  0.00  0.00    +0.000 C 
ATOM     23  F   UNL     1       2.326  12.542  19.171  0.00  0.00    +0.000 F 
ATOM     24  F   UNL     1       2.014  11.000  17.672  0.00  0.00    +0.000 F 
ATOM     25  F   UNL     1       0.393  12.350  18.202  0.00  0.00    +0.000 F 
ENDBRANCH  13  22
BRANCH   1  27
ATOM     26  C   UNL     1       5.276   4.864  14.736  0.00  0.00    +0.000 C 
ATOM     27  C   UNL     1       5.538   5.663  16.028  0.00  0.00    +0.000 C 
BRANCH  27  28
ATOM     28  C   UNL     1       7.007   5.525  16.490  0.00  0.00    +0.000 C 
BRANCH  28  29
ATOM     29  C   UNL     1       7.478   6.691  17.294  0.00  0.00    +0.000 A 
ATOM     30  N   UNL     1       7.531   7.944  16.889  0.00  0.00    +0.000 NA
ATOM     31  N   UNL     1       8.102   8.698  17.881  0.00  0.00    +0.000 NA
ATOM     32  C   UNL     1       8.354   7.898  18.889  0.00  0.00    +0.000 A 
ATOM     33  N   UNL     1       7.954   6.636  18.578  0.00  0.00    +0.000 N 
ATOM     34  C   UNL     1       8.003   5.497  19.454  0.00  0.00    +0.000 C 
ENDBRANCH  28  29
ENDBRANCH  27  28
ENDBRANCH   1  27
TORSDOF 5
ENDMDL
MODEL 2
REMARK VINA RESULT:      -9.3      0.721      1.367
REMARK  Name = 
REMARK  7 active torsions:
REMARK  status: ('A' for Active; 'I' for Inactive)
REMARK    1  A    between atoms: C_1  and  C_2
REMARK    2  A    between atoms: C_2  and  C_3
REMARK    3  A    between atoms: C_2  and  C_10
REMARK    4  A    between atoms: C_3  and  C_4
REMARK    5  A    between atoms: N_8  and  C_9
REMARK    6  A    between atoms: C_12  and  C_13
REMARK    7  A    between atoms: C_27  and  C_28
REMARK                            x       y       z     vdW  Elec       q    Type
REMARK                         _______ _______ _______ _____ _____    ______ ____
ROOT
ATOM      1  C   UNL     1       4.617   5.163  16.853  0.00  0.00    +0.000 A 
ATOM      2  C   UNL     1       4.464   3.872  17.368  0.00  0.00    +0.000 A 
ATOM      3  C   UNL     1       3.679   3.669  18.502  0.00  0.00    +0.000 A 
ATOM      4  N   UNL     1       3.040   4.689  19.113  0.00  0.00    +0.000 NA
ATOM      5  C   UNL     1       3.149   5.934  18.617  0.00  0.00    +0.000 A 
ATOM      6  N   UNL     1       2.463   6.987  19.245  0.00  0.00    +0.000 N 
ATOM      7  C   UNL     1       2.422   8.330  18.699  0.00  0.00    +0.000 C 
ATOM      8  C   UNL     1       1.544   9.067  19.654  0.00  0.00    +0.000 A 
ATOM      9  C   UNL     1       1.160   8.203  20.678  0.00  0.00    +0.000 A 
ATOM     10  C   UNL     1       0.361   8.605  21.730  0.00  0.00    +0.000 A 
ATOM     11  C   UNL     1      -0.068   9.930  21.739  0.00  0.00    +0.000 A 
ATOM     12  C   UNL     1       0.296  10.811  20.704  0.00  0.00    +0.000 A 
ATOM     13  C   UNL     1       1.113  10.390  19.633  0.00  0.00    +0.000 A 
ATOM     14  C   UNL     1       1.728   6.873  20.418  0.00  0.00    +0.000 C 
ATOM     15  O   UNL     1       1.522   5.932  21.164  0.00  0.00    +0.000 OA
ATOM     16  C   UNL     1       3.920   6.191  17.490  0.00  0.00    +0.000 A 
ENDROOT
BRANCH   3  17
ATOM     17  C   UNL     1       3.454   2.267  19.036  0.00  0.00    +0.000 C 
ATOM     18  C   UNL     1       2.066   2.007  19.598  0.00  0.00    +0.000 C 
ATOM     19  C   UNL     1       2.188   2.442  21.044  0.00  0.00    +0.000 C 
ATOM     20  O   UNL     1       3.558   2.251  21.428  0.00  0.00    +0.000 OA
ATOM     21  C   UNL     1       4.321   1.954  20.251  0.00  0.00    +0.000 C 
ENDBRANCH   3  17
BRANCH  13  22
ATOM     22  C   UNL     1       1.474  11.350  18.530  0.00  0.00    +0.000 C 
ATOM     23  F   UNL     1       0.427  12.109  18.101  0.00  0.00    +0.000 F 
ATOM     24  F   UNL     1       2.440  12.231  18.908  0.00  0.00    +0.000 F 
ATOM     25  F   UNL     1       1.950  10.721  17.421  0.00  0.00    +0.000 F 
ENDBRANCH  13  22
BRANCH   1  27
ATOM     26  C   UNL     1       5.048   4.807  14.331  0.00  0.00    +0.000 C 
ATOM     27  C   UNL     1       5.528   5.426  15.658  0.00  0.00    +0.000 C 
BRANCH  27  28
ATOM     28  C   UNL     1       7.004   5.068  15.948  0.00  0.00    +0.000 C 
BRANCH  28  29
ATOM     29  C   UNL     1       7.406   5.347  17.358  0.00  0.00    +0.000 A 
ATOM     30  N   UNL     1       7.647   4.446  18.290  0.00  0.00    +0.000 NA
ATOM     31  N   UNL     1       7.898   5.098  19.470  0.00  0.00    +0.000 NA
ATOM     32  C   UNL     1       7.841   6.386  19.229  0.00  0.00    +0.000 A 
ATOM     33  N   UNL     1       7.563   6.590  17.913  0.00  0.00    +0.000 N 
ATOM     34  C   UNL     1       7.489   7.866  17.256  0.00  0.00    +0.000 C 
ENDBRANCH  28  29
ENDBRANCH  27  28
ENDBRANCH   1  27
TORSDOF 5
ENDMDL
MODEL 3
REMARK VINA RESULT:      -9.2      4.396      9.354
REMARK  Name = 
REMARK  7 active torsions:
REMARK  status: ('A' for Active; 'I' for Inactive)
REMARK    1  A    between atoms: C_1  and  C_2
REMARK    2  A    between atoms: C_2  and  C_3
REMARK    3  A    between atoms: C_2  and  C_10
REMARK    4  A    between atoms: C_3  and  C_4
REMARK    5  A    between atoms: N_8  and  C_9
REMARK    6  A    between atoms: C_12  and  C_13
REMARK    7  A    between atoms: C_27  and  C_28
REMARK                            x       y       z     vdW  Elec       q    Type
REMARK                         _______ _______ _______ _____ _____    ______ ____
ROOT
ATOM      1  C   UNL     1       0.349  10.465  21.292  0.00  0.00    +0.000 A 
ATOM      2  C   UNL     1       0.493  11.533  20.403  0.00  0.00    +0.000 A 
ATOM      3  C   UNL     1       1.175  11.346  19.201  0.00  0.00    +0.000 A 
ATOM      4  N   UNL     1       1.689  10.146  18.859  0.00  0.00    +0.000 NA
ATOM      5  C   UNL     1       1.536   9.096  19.685  0.00  0.00    +0.000 A 
ATOM      6  N   UNL     1       2.054   7.845  19.312  0.00  0.00    +0.000 N 
ATOM      7  C   UNL     1       1.818   6.639  20.082  0.00  0.00    +0.000 C 
ATOM      8  C   UNL     1       2.493   5.577  19.281  0.00  0.00    +0.000 A 
ATOM      9  C   UNL     1       3.095   6.160  18.168  0.00  0.00    +0.000 A 
ATOM     10  C   UNL     1       3.821   5.432  17.246  0.00  0.00    +0.000 A 
ATOM     11  C   UNL     1       3.933   4.060  17.460  0.00  0.00    +0.000 A 
ATOM     12  C   UNL     1       3.318   3.452  18.569  0.00  0.00    +0.000 A 
ATOM     13  C   UNL     1       2.578   4.206  19.506  0.00  0.00    +0.000 A 
ATOM     14  C   UNL     1       2.808   7.602  18.171  0.00  0.00    +0.000 C 
ATOM     15  O   UNL     1       3.211   8.337  17.288  0.00  0.00    +0.000 OA
ATOM     16  C   UNL     1       0.866   9.230  20.896  0.00  0.00    +0.000 A 
ENDROOT
BRANCH   3  17
ATOM     17  C   UNL     1       1.287  12.480  18.199  0.00  0.00    +0.000 C 
ATOM     18  C   UNL     1       2.696  13.005  17.976  0.00  0.00    +0.000 C 
ATOM     19  C   UNL     1       2.849  14.059  19.053  0.00  0.00    +0.000 C 
ATOM     20  O   UNL     1       1.538  14.576  19.327  0.00  0.00    +0.000 OA
ATOM     21  C   UNL     1       0.576  13.746  18.664  0.00  0.00    +0.000 C 
ENDBRANCH   3  17
BRANCH  13  22
ATOM     22  C   UNL     1       1.916   3.526  20.675  0.00  0.00    +0.000 C 
ATOM     23  F   UNL     1       0.567   3.713  20.725  0.00  0.00    +0.000 F 
ATOM     24  F   UNL     1       2.104   2.178  20.662  0.00  0.00    +0.000 F 
ATOM     25  F   UNL     1       2.393   3.961  21.873  0.00  0.00    +0.000 F 
ENDBRANCH  13  22
BRANCH   1  27
ATOM     26  C   UNL     1      -0.535   9.362  23.455  0.00  0.00    +0.000 C 
ATOM     27  C   UNL     1      -0.327  10.658  22.646  0.00  0.00    +0.000 C 
BRANCH  27  28
ATOM     28  C   UNL     1      -1.635  11.476  22.544  0.00  0.00    +0.000 C 
BRANCH  28  29
ATOM     29  C   UNL     1      -1.533  12.820  23.185  0.00  0.00    +0.000 A 
ATOM     30  N   UNL     1      -0.451  13.570  23.252  0.00  0.00    +0.000 NA
ATOM     31  N   UNL     1      -0.741  14.685  23.996  0.00  0.00    +0.000 NA
ATOM     32  C   UNL     1      -2.004  14.614  24.338  0.00  0.00    +0.000 A 
ATOM     33  N   UNL     1      -2.550  13.476  23.829  0.00  0.00    +0.000 N 
ATOM     34  C   UNL     1      -3.929  13.083  23.934  0.00  0.00    +0.000 C 
ENDBRANCH  28  29
ENDBRANCH  27  28
ENDBRANCH   1  27
TORSDOF 5
ENDMDL
MODEL 4
REMARK VINA RESULT:      -9.2      0.653      1.027
REMARK  Name = 
REMARK  7 active torsions:
REMARK  status: ('A' for Active; 'I' for Inactive)
REMARK    1  A    between atoms: C_1  and  C_2
REMARK    2  A    between atoms: C_2  and  C_3
REMARK    3  A    between atoms: C_2  and  C_10
REMARK    4  A    between atoms: C_3  and  C_4
REMARK    5  A    between atoms: N_8  and  C_9
REMARK    6  A    between atoms: C_12  and  C_13
REMARK    7  A    between atoms: C_27  and  C_28
REMARK                            x       y       z     vdW  Elec       q    Type
REMARK                         _______ _______ _______ _____ _____    ______ ____
ROOT
ATOM      1  C   UNL     1       4.470   5.688  17.210  0.00  0.00    +0.000 A 
ATOM      2  C   UNL     1       4.257   4.394  17.696  0.00  0.00    +0.000 A 
ATOM      3  C   UNL     1       3.395   4.193  18.773  0.00  0.00    +0.000 A 
ATOM      4  N   UNL     1       2.738   5.218  19.355  0.00  0.00    +0.000 NA
ATOM      5  C   UNL     1       2.905   6.467  18.886  0.00  0.00    +0.000 A 
ATOM      6  N   UNL     1       2.201   7.526  19.482  0.00  0.00    +0.000 N 
ATOM      7  C   UNL     1       2.223   8.877  18.954  0.00  0.00    +0.000 C 
ATOM      8  C   UNL     1       1.300   9.621  19.859  0.00  0.00    +0.000 A 
ATOM      9  C   UNL     1       0.832   8.752  20.844  0.00  0.00    +0.000 A 
ATOM     10  C   UNL     1      -0.026   9.157  21.847  0.00  0.00    +0.000 A 
ATOM     11  C   UNL     1      -0.428  10.491  21.846  0.00  0.00    +0.000 A 
ATOM     12  C   UNL     1       0.021  11.377  20.850  0.00  0.00    +0.000 A 
ATOM     13  C   UNL     1       0.899  10.952  19.829  0.00  0.00    +0.000 A 
ATOM     14  C   UNL     1       1.389   7.413  20.602  0.00  0.00    +0.000 C 
ATOM     15  O   UNL     1       1.115   6.468  21.320  0.00  0.00    +0.000 OA
ATOM     16  C   UNL     1       3.753   6.722  17.815  0.00  0.00    +0.000 A 
ENDROOT
BRANCH   3  17
ATOM     17  C   UNL     1       3.107   2.789  19.271  0.00  0.00    +0.000 C 
ATOM     18  C   UNL     1       2.261   1.937  18.339  0.00  0.00    +0.000 C 
ATOM     19  C   UNL     1       0.843   2.277  18.747  0.00  0.00    +0.000 C 
ATOM     20  O   UNL     1       0.878   2.644  20.135  0.00  0.00    +0.000 OA
ATOM     21  C   UNL     1       2.249   2.777  20.533  0.00  0.00    +0.000 C 
ENDBRANCH   3  17
BRANCH  13  22
ATOM     22  C   UNL     1       1.350  11.919  18.766  0.00  0.00    +0.000 C 
ATOM     23  F   UNL     1       2.113  11.346  17.793  0.00  0.00    +0.000 F 
ATOM     24  F   UNL     1       0.303  12.503  18.121  0.00  0.00    +0.000 F 
ATOM     25  F   UNL     1       2.100  12.938  19.268  0.00  0.00    +0.000 F 
ENDBRANCH  13  22
BRANCH   1  27
ATOM     26  C   UNL     1       5.150   5.211  14.764  0.00  0.00    +0.000 C 
ATOM     27  C   UNL     1       5.463   5.947  16.082  0.00  0.00    +0.000 C 
BRANCH  27  28
ATOM     28  C   UNL     1       6.929   5.724  16.519  0.00  0.00    +0.000 C 
BRANCH  28  29
ATOM     29  C   UNL     1       7.475   6.855  17.325  0.00  0.00    +0.000 A 
ATOM     30  N   UNL     1       7.586   8.109  16.932  0.00  0.00    +0.000 NA
ATOM     31  N   UNL     1       8.215   8.821  17.920  0.00  0.00    +0.000 NA
ATOM     32  C   UNL     1       8.444   7.997  18.915  0.00  0.00    +0.000 A 
ATOM     33  N   UNL     1       7.973   6.761  18.599  0.00  0.00    +0.000 N 
ATOM     34  C   UNL     1       7.979   5.611  19.462  0.00  0.00    +0.000 C 
ENDBRANCH  28  29
ENDBRANCH  27  28
ENDBRANCH   1  27
TORSDOF 5
ENDMDL
MODEL 5
REMARK VINA RESULT:      -9.1      1.851      2.723
REMARK  Name = 
REMARK  7 active torsions:
REMARK  status: ('A' for Active; 'I' for Inactive)
REMARK    1  A    between atoms: C_1  and  C_2
REMARK    2  A    between atoms: C_2  and  C_3
REMARK    3  A    between atoms: C_2  and  C_10
REMARK    4  A    between atoms: C_3  and  C_4
REMARK    5  A    between atoms: N_8  and  C_9
REMARK    6  A    between atoms: C_12  and  C_13
REMARK    7  A    between atoms: C_27  and  C_28
REMARK                            x       y       z     vdW  Elec       q    Type
REMARK                         _______ _______ _______ _____ _____    ______ ____
ROOT
ATOM      1  C   UNL     1       4.361   5.637  17.304  0.00  0.00    +0.000 A 
ATOM      2  C   UNL     1       4.149   4.352  17.812  0.00  0.00    +0.000 A 
ATOM      3  C   UNL     1       3.300   4.171  18.903  0.00  0.00    +0.000 A 
ATOM      4  N   UNL     1       2.654   5.207  19.477  0.00  0.00    +0.000 NA
ATOM      5  C   UNL     1       2.819   6.448  18.986  0.00  0.00    +0.000 A 
ATOM      6  N   UNL     1       2.126   7.519  19.575  0.00  0.00    +0.000 N 
ATOM      7  C   UNL     1       2.146   8.861  19.025  0.00  0.00    +0.000 C 
ATOM      8  C   UNL     1       1.236   9.622  19.930  0.00  0.00    +0.000 A 
ATOM      9  C   UNL     1       0.778   8.770  20.934  0.00  0.00    +0.000 A 
ATOM     10  C   UNL     1      -0.067   9.194  21.941  0.00  0.00    +0.000 A 
ATOM     11  C   UNL     1      -0.464  10.529  21.924  0.00  0.00    +0.000 A 
ATOM     12  C   UNL     1      -0.024  11.397  20.910  0.00  0.00    +0.000 A 
ATOM     13  C   UNL     1       0.839  10.954  19.884  0.00  0.00    +0.000 A 
ATOM     14  C   UNL     1       1.327   7.426  20.706  0.00  0.00    +0.000 C 
ATOM     15  O   UNL     1       1.059   6.493  21.442  0.00  0.00    +0.000 OA
ATOM     16  C   UNL     1       3.655   6.684  17.901  0.00  0.00    +0.000 A 
ENDROOT
BRANCH   3  17
ATOM     17  C   UNL     1       3.014   2.776  19.426  0.00  0.00    +0.000 C 
ATOM     18  C   UNL     1       2.188   1.899  18.500  0.00  0.00    +0.000 C 
ATOM     19  C   UNL     1       0.761   2.237  18.880  0.00  0.00    +0.000 C 
ATOM     20  O   UNL     1       0.774   2.634  20.260  0.00  0.00    +0.000 OA
ATOM     21  C   UNL     1       2.138   2.785  20.675  0.00  0.00    +0.000 C 
ENDBRANCH   3  17
BRANCH  13  22
ATOM     22  C   UNL     1       1.281  11.903  18.800  0.00  0.00    +0.000 C 
ATOM     23  F   UNL     1       0.256  12.592  18.225  0.00  0.00    +0.000 F 
ATOM     24  F   UNL     1       2.149  12.844  19.261  0.00  0.00    +0.000 F 
ATOM     25  F   UNL     1       1.918  11.270  17.778  0.00  0.00    +0.000 F 
ENDBRANCH  13  22
BRANCH   1  27
ATOM     26  C   UNL     1       4.927   6.990  15.177  0.00  0.00    +0.000 C 
ATOM     27  C   UNL     1       5.340   5.876  16.159  0.00  0.00    +0.000 C 
BRANCH  27  28
ATOM     28  C   UNL     1       5.708   4.573  15.413  0.00  0.00    +0.000 C 
BRANCH  28  29
ATOM     29  C   UNL     1       6.705   4.788  14.322  0.00  0.00    +0.000 A 
ATOM     30  N   UNL     1       7.799   5.518  14.402  0.00  0.00    +0.000 NA
ATOM     31  N   UNL     1       8.399   5.538  13.169  0.00  0.00    +0.000 NA
ATOM     32  C   UNL     1       7.680   4.789  12.368  0.00  0.00    +0.000 A 
ATOM     33  N   UNL     1       6.624   4.275  13.054  0.00  0.00    +0.000 N 
ATOM     34  C   UNL     1       5.650   3.354  12.534  0.00  0.00    +0.000 C 
ENDBRANCH  28  29
ENDBRANCH  27  28
ENDBRANCH   1  27
TORSDOF 5
ENDMDL
MODEL 6
REMARK VINA RESULT:      -8.8      1.871      2.696
REMARK  Name = 
REMARK  7 active torsions:
REMARK  status: ('A' for Active; 'I' for Inactive)
REMARK    1  A    between atoms: C_1  and  C_2
REMARK    2  A    between atoms: C_2  and  C_3
REMARK    3  A    between atoms: C_2  and  C_10
REMARK    4  A    between atoms: C_3  and  C_4
REMARK    5  A    between atoms: N_8  and  C_9
REMARK    6  A    between atoms: C_12  and  C_13
REMARK    7  A    between atoms: C_27  and  C_28
REMARK                            x       y       z     vdW  Elec       q    Type
REMARK                         _______ _______ _______ _____ _____    ______ ____
ROOT
ATOM      1  C   UNL     1       4.183   5.774  17.268  0.00  0.00    +0.000 A 
ATOM      2  C   UNL     1       3.868   4.493  17.731  0.00  0.00    +0.000 A 
ATOM      3  C   UNL     1       2.971   4.341  18.788  0.00  0.00    +0.000 A 
ATOM      4  N   UNL     1       2.377   5.403  19.371  0.00  0.00    +0.000 NA
ATOM      5  C   UNL     1       2.643   6.642  18.923  0.00  0.00    +0.000 A 
ATOM      6  N   UNL     1       2.004   7.741  19.521  0.00  0.00    +0.000 N 
ATOM      7  C   UNL     1       2.133   9.093  19.013  0.00  0.00    +0.000 C 
ATOM      8  C   UNL     1       1.246   9.890  19.910  0.00  0.00    +0.000 A 
ATOM      9  C   UNL     1       0.697   9.044  20.872  0.00  0.00    +0.000 A 
ATOM     10  C   UNL     1      -0.151   9.496  21.864  0.00  0.00    +0.000 A 
ATOM     11  C   UNL     1      -0.457  10.855  21.874  0.00  0.00    +0.000 A 
ATOM     12  C   UNL     1       0.075  11.720  20.900  0.00  0.00    +0.000 A 
ATOM     13  C   UNL     1       0.942  11.247  19.890  0.00  0.00    +0.000 A 
ATOM     14  C   UNL     1       1.162   7.672  20.623  0.00  0.00    +0.000 C 
ATOM     15  O   UNL     1       0.806   6.739  21.321  0.00  0.00    +0.000 OA
ATOM     16  C   UNL     1       3.530   6.850  17.873  0.00  0.00    +0.000 A 
ENDROOT
BRANCH   3  17
ATOM     17  C   UNL     1       2.573   2.955  19.260  0.00  0.00    +0.000 C 
ATOM     18  C   UNL     1       2.828   2.679  20.733  0.00  0.00    +0.000 C 
ATOM     19  C   UNL     1       4.257   2.178  20.752  0.00  0.00    +0.000 C 
ATOM     20  O   UNL     1       4.504   1.556  19.481  0.00  0.00    +0.000 OA
ATOM     21  C   UNL     1       3.404   1.852  18.611  0.00  0.00    +0.000 C 
ENDBRANCH   3  17
BRANCH  13  22
ATOM     22  C   UNL     1       1.484  12.192  18.851  0.00  0.00    +0.000 C 
ATOM     23  F   UNL     1       2.201  11.576  17.871  0.00  0.00    +0.000 F 
ATOM     24  F   UNL     1       0.496  12.878  18.213  0.00  0.00    +0.000 F 
ATOM     25  F   UNL     1       2.315  13.132  19.379  0.00  0.00    +0.000 F 
ENDBRANCH  13  22
BRANCH   1  27
ATOM     26  C   UNL     1       4.821   7.013  15.093  0.00  0.00    +0.000 C 
ATOM     27  C   UNL     1       5.215   5.977  16.164  0.00  0.00    +0.000 C 
BRANCH  27  28
ATOM     28  C   UNL     1       5.665   4.644  15.522  0.00  0.00    +0.000 C 
BRANCH  28  29
ATOM     29  C   UNL     1       6.684   4.830  14.447  0.00  0.00    +0.000 A 
ATOM     30  N   UNL     1       7.795   5.533  14.541  0.00  0.00    +0.000 NA
ATOM     31  N   UNL     1       8.415   5.534  13.318  0.00  0.00    +0.000 NA
ATOM     32  C   UNL     1       7.690   4.801  12.508  0.00  0.00    +0.000 A 
ATOM     33  N   UNL     1       6.610   4.316  13.179  0.00  0.00    +0.000 N 
ATOM     34  C   UNL     1       5.622   3.418  12.646  0.00  0.00    +0.000 C 
ENDBRANCH  28  29
ENDBRANCH  27  28
ENDBRANCH   1  27
TORSDOF 5
ENDMDL
MODEL 7
REMARK VINA RESULT:      -8.7      0.949      1.478
REMARK  Name = 
REMARK  7 active torsions:
REMARK  status: ('A' for Active; 'I' for Inactive)
REMARK    1  A    between atoms: C_1  and  C_2
REMARK    2  A    between atoms: C_2  and  C_3
REMARK    3  A    between atoms: C_2  and  C_10
REMARK    4  A    between atoms: C_3  and  C_4
REMARK    5  A    between atoms: N_8  and  C_9
REMARK    6  A    between atoms: C_12  and  C_13
REMARK    7  A    between atoms: C_27  and  C_28
REMARK                            x       y       z     vdW  Elec       q    Type
REMARK                         _______ _______ _______ _____ _____    ______ ____
ROOT
ATOM      1  C   UNL     1       4.248   5.871  17.026  0.00  0.00    +0.000 A 
ATOM      2  C   UNL     1       4.123   4.565  17.508  0.00  0.00    +0.000 A 
ATOM      3  C   UNL     1       3.356   4.318  18.646  0.00  0.00    +0.000 A 
ATOM      4  N   UNL     1       2.708   5.310  19.292  0.00  0.00    +0.000 NA
ATOM      5  C   UNL     1       2.789   6.570  18.829  0.00  0.00    +0.000 A 
ATOM      6  N   UNL     1       2.094   7.593  19.494  0.00  0.00    +0.000 N 
ATOM      7  C   UNL     1       2.023   8.949  18.985  0.00  0.00    +0.000 C 
ATOM      8  C   UNL     1       1.146   9.646  19.970  0.00  0.00    +0.000 A 
ATOM      9  C   UNL     1       0.790   8.748  20.975  0.00  0.00    +0.000 A 
ATOM     10  C   UNL     1      -0.002   9.108  22.048  0.00  0.00    +0.000 A 
ATOM     11  C   UNL     1      -0.454  10.425  22.097  0.00  0.00    +0.000 A 
ATOM     12  C   UNL     1      -0.118  11.339  21.083  0.00  0.00    +0.000 A 
ATOM     13  C   UNL     1       0.693  10.961  19.990  0.00  0.00    +0.000 A 
ATOM     14  C   UNL     1       1.377   7.435  20.672  0.00  0.00    +0.000 C 
ATOM     15  O   UNL     1       1.196   6.472  21.395  0.00  0.00    +0.000 OA
ATOM     16  C   UNL     1       3.541   6.870  17.699  0.00  0.00    +0.000 A 
ENDROOT
BRANCH   3  17
ATOM     17  C   UNL     1       3.162   2.898  19.145  0.00  0.00    +0.000 C 
ATOM     18  C   UNL     1       2.311   2.013  18.249  0.00  0.00    +0.000 C 
ATOM     19  C   UNL     1       0.901   2.281  18.732  0.00  0.00    +0.000 C 
ATOM     20  O   UNL     1       0.990   2.639  20.120  0.00  0.00    +0.000 OA
ATOM     21  C   UNL     1       2.372   2.836  20.448  0.00  0.00    +0.000 C 
ENDBRANCH   3  17
BRANCH  13  22
ATOM     22  C   UNL     1       1.022  11.957  18.909  0.00  0.00    +0.000 C 
ATOM     23  F   UNL     1       2.240  11.756  18.333  0.00  0.00    +0.000 F 
ATOM     24  F   UNL     1       0.120  11.930  17.891  0.00  0.00    +0.000 F 
ATOM     25  F   UNL     1       1.038  13.239  19.366  0.00  0.00    +0.000 F 
ENDBRANCH  13  22
BRANCH   1  27
ATOM     26  C   UNL     1       5.416   4.983  14.900  0.00  0.00    +0.000 C 
ATOM     27  C   UNL     1       5.138   6.183  15.828  0.00  0.00    +0.000 C 
BRANCH  27  28
ATOM     28  C   UNL     1       6.447   6.899  16.233  0.00  0.00    +0.000 C 
BRANCH  28  29
ATOM     29  C   UNL     1       7.148   6.234  17.371  0.00  0.00    +0.000 A 
ATOM     30  N   UNL     1       7.150   4.943  17.635  0.00  0.00    +0.000 NA
ATOM     31  N   UNL     1       7.828   4.740  18.810  0.00  0.00    +0.000 NA
ATOM     32  C   UNL     1       8.259   5.908  19.223  0.00  0.00    +0.000 A 
ATOM     33  N   UNL     1       7.881   6.870  18.339  0.00  0.00    +0.000 N 
ATOM     34  C   UNL     1       8.224   8.264  18.413  0.00  0.00    +0.000 C 
ENDBRANCH  28  29
ENDBRANCH  27  28
ENDBRANCH   1  27
TORSDOF 5
ENDMDL
MODEL 8
REMARK VINA RESULT:      -8.5      1.888      2.842
REMARK  Name = 
REMARK  7 active torsions:
REMARK  status: ('A' for Active; 'I' for Inactive)
REMARK    1  A    between atoms: C_1  and  C_2
REMARK    2  A    between atoms: C_2  and  C_3
REMARK    3  A    between atoms: C_2  and  C_10
REMARK    4  A    between atoms: C_3  and  C_4
REMARK    5  A    between atoms: N_8  and  C_9
REMARK    6  A    between atoms: C_12  and  C_13
REMARK    7  A    between atoms: C_27  and  C_28
REMARK                            x       y       z     vdW  Elec       q    Type
REMARK                         _______ _______ _______ _____ _____    ______ ____
ROOT
ATOM      1  C   UNL     1       2.953   6.665  18.767  0.00  0.00    +0.000 A 
ATOM      2  C   UNL     1       2.539   5.438  19.294  0.00  0.00    +0.000 A 
ATOM      3  C   UNL     1       1.608   5.410  20.332  0.00  0.00    +0.000 A 
ATOM      4  N   UNL     1       1.075   6.543  20.835  0.00  0.00    +0.000 NA
ATOM      5  C   UNL     1       1.436   7.733  20.323  0.00  0.00    +0.000 A 
ATOM      6  N   UNL     1       0.860   8.906  20.837  0.00  0.00    +0.000 N 
ATOM      7  C   UNL     1       1.095  10.213  20.254  0.00  0.00    +0.000 C 
ATOM      8  C   UNL     1       0.243  11.120  21.078  0.00  0.00    +0.000 A 
ATOM      9  C   UNL     1      -0.387  10.373  22.072  0.00  0.00    +0.000 A 
ATOM     10  C   UNL     1      -1.226  10.940  23.010  0.00  0.00    +0.000 A 
ATOM     11  C   UNL     1      -1.437  12.315  22.932  0.00  0.00    +0.000 A 
ATOM     12  C   UNL     1      -0.823  13.081  21.926  0.00  0.00    +0.000 A 
ATOM     13  C   UNL     1       0.033  12.491  20.970  0.00  0.00    +0.000 A 
ATOM     14  C   UNL     1      -0.012   8.960  21.916  0.00  0.00    +0.000 C 
ATOM     15  O   UNL     1      -0.448   8.097  22.657  0.00  0.00    +0.000 OA
ATOM     16  C   UNL     1       2.361   7.816  19.289  0.00  0.00    +0.000 A 
ENDROOT
BRANCH   3  17
ATOM     17  C   UNL     1       1.104   4.085  20.872  0.00  0.00    +0.000 C 
ATOM     18  C   UNL     1       2.071   3.356  21.791  0.00  0.00    +0.000 C 
ATOM     19  C   UNL     1       2.916   2.543  20.833  0.00  0.00    +0.000 C 
ATOM     20  O   UNL     1       2.101   2.260  19.685  0.00  0.00    +0.000 OA
ATOM     21  C   UNL     1       0.903   3.042  19.777  0.00  0.00    +0.000 C 
ENDBRANCH   3  17
BRANCH  13  22
ATOM     22  C   UNL     1       0.665  13.334  19.893  0.00  0.00    +0.000 C 
ATOM     23  F   UNL     1       2.026  13.289  19.891  0.00  0.00    +0.000 F 
ATOM     24  F   UNL     1       0.278  12.951  18.646  0.00  0.00    +0.000 F 
ATOM     25  F   UNL     1       0.340  14.651  20.001  0.00  0.00    +0.000 F 
ENDBRANCH  13  22
BRANCH   1  27
ATOM     26  C   UNL     1       3.707   7.691  16.519  0.00  0.00    +0.000 C 
ATOM     27  C   UNL     1       4.024   6.731  17.682  0.00  0.00    +0.000 C 
BRANCH  27  28
ATOM     28  C   UNL     1       4.430   5.332  17.165  0.00  0.00    +0.000 C 
BRANCH  28  29
ATOM     29  C   UNL     1       5.827   4.957  17.534  0.00  0.00    +0.000 A 
ATOM     30  N   UNL     1       6.322   4.906  18.754  0.00  0.00    +0.000 NA
ATOM     31  N   UNL     1       7.658   4.610  18.670  0.00  0.00    +0.000 NA
ATOM     32  C   UNL     1       7.947   4.449  17.401  0.00  0.00    +0.000 A 
ATOM     33  N   UNL     1       6.825   4.629  16.653  0.00  0.00    +0.000 N 
ATOM     34  C   UNL     1       6.728   4.468  15.228  0.00  0.00    +0.000 C 
ENDBRANCH  28  29
ENDBRANCH  27  28
ENDBRANCH   1  27
TORSDOF 5
ENDMDL
MODEL 9
REMARK VINA RESULT:      -8.5      1.964      2.772
REMARK  Name = 
REMARK  7 active torsions:
REMARK  status: ('A' for Active; 'I' for Inactive)
REMARK    1  A    between atoms: C_1  and  C_2
REMARK    2  A    between atoms: C_2  and  C_3
REMARK    3  A    between atoms: C_2  and  C_10
REMARK    4  A    between atoms: C_3  and  C_4
REMARK    5  A    between atoms: N_8  and  C_9
REMARK    6  A    between atoms: C_12  and  C_13
REMARK    7  A    between atoms: C_27  and  C_28
REMARK                            x       y       z     vdW  Elec       q    Type
REMARK                         _______ _______ _______ _____ _____    ______ ____
ROOT
ATOM      1  C   UNL     1       3.892   6.255  17.863  0.00  0.00    +0.000 A 
ATOM      2  C   UNL     1       3.608   5.035  18.483  0.00  0.00    +0.000 A 
ATOM      3  C   UNL     1       2.718   4.994  19.556  0.00  0.00    +0.000 A 
ATOM      4  N   UNL     1       2.101   6.106  20.006  0.00  0.00    +0.000 NA
ATOM      5  C   UNL     1       2.335   7.287  19.406  0.00  0.00    +0.000 A 
ATOM      6  N   UNL     1       1.672   8.436  19.866  0.00  0.00    +0.000 N 
ATOM      7  C   UNL     1       1.768   9.717  19.192  0.00  0.00    +0.000 C 
ATOM      8  C   UNL     1       0.865  10.598  19.988  0.00  0.00    +0.000 A 
ATOM      9  C   UNL     1       0.339   9.867  21.051  0.00  0.00    +0.000 A 
ATOM     10  C   UNL     1      -0.517  10.419  21.984  0.00  0.00    +0.000 A 
ATOM     11  C   UNL     1      -0.855  11.761  21.827  0.00  0.00    +0.000 A 
ATOM     12  C   UNL     1      -0.346  12.510  20.750  0.00  0.00    +0.000 A 
ATOM     13  C   UNL     1       0.529  11.935  19.802  0.00  0.00    +0.000 A 
ATOM     14  C   UNL     1       0.835   8.485  20.972  0.00  0.00    +0.000 C 
ATOM     15  O   UNL     1       0.504   7.639  21.783  0.00  0.00    +0.000 OA
ATOM     16  C   UNL     1       3.214   7.382  18.333  0.00  0.00    +0.000 A 
ENDROOT
BRANCH   3  17
ATOM     17  C   UNL     1       2.354   3.669  20.199  0.00  0.00    +0.000 C 
ATOM     18  C   UNL     1       2.916   2.440  19.502  0.00  0.00    +0.000 C 
ATOM     19  C   UNL     1       1.866   2.121  18.458  0.00  0.00    +0.000 C 
ATOM     20  O   UNL     1       0.608   2.589  18.967  0.00  0.00    +0.000 OA
ATOM     21  C   UNL     1       0.858   3.377  20.138  0.00  0.00    +0.000 C 
ENDBRANCH   3  17
BRANCH  13  22
ATOM     22  C   UNL     1       1.045  12.756  18.650  0.00  0.00    +0.000 C 
ATOM     23  F   UNL     1       2.066  12.164  17.970  0.00  0.00    +0.000 F 
ATOM     24  F   UNL     1       0.081  13.010  17.724  0.00  0.00    +0.000 F 
ATOM     25  F   UNL     1       1.520  13.970  19.043  0.00  0.00    +0.000 F 
ENDBRANCH  13  22
BRANCH   1  27
ATOM     26  C   UNL     1       4.521   7.278  15.576  0.00  0.00    +0.000 C 
ATOM     27  C   UNL     1       4.916   6.343  16.736  0.00  0.00    +0.000 C 
BRANCH  27  28
ATOM     28  C   UNL     1       5.347   4.951  16.218  0.00  0.00    +0.000 C 
BRANCH  28  29
ATOM     29  C   UNL     1       6.380   5.024  15.143  0.00  0.00    +0.000 A 
ATOM     30  N   UNL     1       7.545   5.636  15.225  0.00  0.00    +0.000 NA
ATOM     31  N   UNL     1       8.165   5.553  14.005  0.00  0.00    +0.000 NA
ATOM     32  C   UNL     1       7.385   4.860  13.211  0.00  0.00    +0.000 A 
ATOM     33  N   UNL     1       6.267   4.483  13.889  0.00  0.00    +0.000 N 
ATOM     34  C   UNL     1       5.210   3.655  13.376  0.00  0.00    +0.000 C 
ENDBRANCH  28  29
ENDBRANCH  27  28
ENDBRANCH   1  27
TORSDOF 5
ENDMDL
