MODEL 1
REMARK VINA RESULT:      -7.8      0.000      0.000
REMARK  Name = 
REMARK  11 active torsions:
REMARK  status: ('A' for Active; 'I' for Inactive)
REMARK    1  A    between atoms: C_1  and  C_2
REMARK    2  A    between atoms: C_2  and  N_3
REMARK    3  A    between atoms: C_5  and  C_6
REMARK    4  A    between atoms: C_6  and  N_7
REMARK    5  A    between atoms: N_7  and  C_8
REMARK    6  A    between atoms: N_11  and  C_12
REMARK    7  A    between atoms: C_16  and  C_17
REMARK    8  A    between atoms: C_17  and  C_18
REMARK    9  A    between atoms: C_17  and  S_19
REMARK   10  A    between atoms: S_19  and  C_20
REMARK   11  A    between atoms: N_24  and  C_25
REMARK                            x       y       z     vdW  Elec       q    Type
REMARK                         _______ _______ _______ _____ _____    ______ ____
ROOT
ATOM      1  C   UNL     1       2.531   5.721  18.289  0.00  0.00    +0.000 A 
ATOM      2  C   UNL     1       1.928   4.464  18.340  0.00  0.00    +0.000 A 
ATOM      3  C   UNL     1       2.492   3.375  17.672  0.00  0.00    +0.000 A 
ATOM      4  C   UNL     1       3.660   3.535  16.936  0.00  0.00    +0.000 A 
ATOM      5  C   UNL     1       4.288   4.787  16.852  0.00  0.00    +0.000 A 
ATOM      6  C   UNL     1       3.707   5.877  17.534  0.00  0.00    +0.000 A 
ENDROOT
BRANCH   1  11
ATOM      7  N   UNL     1       1.488   9.110  19.337  0.00  0.00    +0.000 N 
ATOM      8  C   UNL     1       1.272   8.881  20.759  0.00  0.00    +0.000 C 
ATOM      9  C   UNL     1       1.974   8.151  18.448  0.00  0.00    +0.000 C 
ATOM     10  O   UNL     1       2.319   8.464  17.310  0.00  0.00    +0.000 OA
ATOM     11  N   UNL     1       1.994   6.858  18.938  0.00  0.00    +0.000 N 
ATOM     12  H   UNL     1       1.367   6.663  19.702  0.00  0.00    +0.000 HD
BRANCH   7  13
ATOM     13  C   UNL     1       1.244  10.458  18.825  0.00  0.00    +0.000 C 
BRANCH  13  16
ATOM     14  N   UNL     1      -2.194  10.665  17.587  0.00  0.00    +0.000 N 
ATOM     15  C   UNL     1      -1.052   9.932  17.749  0.00  0.00    +0.000 A 
ATOM     16  C   UNL     1      -0.190  10.709  18.503  0.00  0.00    +0.000 A 
ATOM     17  C   UNL     1      -0.949  11.867  18.791  0.00  0.00    +0.000 A 
ATOM     18  N   UNL     1      -2.169  11.836  18.245  0.00  0.00    +0.000 NA
BRANCH  14  20
ATOM     19  C   UNL     1      -3.145  10.897  15.321  0.00  0.00    +0.000 C 
ATOM     20  C   UNL     1      -3.314  10.343  16.722  0.00  0.00    +0.000 C 
ENDBRANCH  14  20
ENDBRANCH  13  16
ENDBRANCH   7  13
ENDBRANCH   1  11
BRANCH   5  21
ATOM     21  C   UNL     1       5.555   4.978  16.030  0.00  0.00    +0.000 C 
ATOM     22  C   UNL     1       5.551   4.058  14.803  0.00  0.00    +0.000 C 
BRANCH  21  23
ATOM     23  S   UNL     1       7.078   4.620  16.983  0.00  0.00    +0.000 S 
BRANCH  23  24
ATOM     24  C   UNL     1       7.552   6.209  17.452  0.00  0.00    +0.000 A 
ATOM     25  N   UNL     1       7.587   7.279  16.693  0.00  0.00    +0.000 NA
ATOM     26  N   UNL     1       8.056   8.320  17.468  0.00  0.00    +0.000 NA
ATOM     27  C   UNL     1       8.288   7.849  18.674  0.00  0.00    +0.000 A 
ATOM     28  N   UNL     1       7.984   6.520  18.709  0.00  0.00    +0.000 N 
ATOM     29  C   UNL     1       8.081   5.658  19.852  0.00  0.00    +0.000 C 
ENDBRANCH  23  24
ENDBRANCH  21  23
ENDBRANCH   5  21
TORSDOF 7
ENDMDL
MODEL 2
REMARK VINA RESULT:      -7.5      0.839      1.546
REMARK  Name = 
REMARK  11 active torsions:
REMARK  status: ('A' for Active; 'I' for Inactive)
REMARK    1  A    between atoms: C_1  and  C_2
REMARK    2  A    between atoms: C_2  and  N_3
REMARK    3  A    between atoms: C_5  and  C_6
REMARK    4  A    between atoms: C_6  and  N_7
REMARK    5  A    between atoms: N_7  and  C_8
REMARK    6  A    between atoms: N_11  and  C_12
REMARK    7  A    between atoms: C_16  and  C_17
REMARK    8  A    between atoms: C_17  and  C_18
REMARK    9  A    between atoms: C_17  and  S_19
REMARK   10  A    between atoms: S_19  and  C_20
REMARK   11  A    between atoms: N_24  and  C_25
REMARK                            x       y       z     vdW  Elec       q    Type
REMARK                         _______ _______ _______ _____ _____    ______ ____
ROOT
ATOM      1  C   UNL     1       2.498   5.790  18.266  0.00  0.00    +0.000 A 
ATOM      2  C   UNL     1       1.873   4.543  18.313  0.00  0.00    +0.000 A 
ATOM      3  C   UNL     1       2.426   3.444  17.651  0.00  0.00    +0.000 A 
ATOM      4  C   UNL     1       3.603   3.584  16.926  0.00  0.00    +0.000 A 
ATOM      5  C   UNL     1       4.252   4.826  16.845  0.00  0.00    +0.000 A 
ATOM      6  C   UNL     1       3.682   5.925  17.521  0.00  0.00    +0.000 A 
ENDROOT
BRANCH   1  11
ATOM      7  N   UNL     1       1.498   9.197  19.300  0.00  0.00    +0.000 N 
ATOM      8  C   UNL     1       1.268   8.974  20.720  0.00  0.00    +0.000 C 
ATOM      9  C   UNL     1       1.977   8.229  18.415  0.00  0.00    +0.000 C 
ATOM     10  O   UNL     1       2.336   8.534  17.280  0.00  0.00    +0.000 OA
ATOM     11  N   UNL     1       1.972   6.936  18.908  0.00  0.00    +0.000 N 
ATOM     12  H   UNL     1       1.337   6.752  19.667  0.00  0.00    +0.000 HD
BRANCH   7  13
ATOM     13  C   UNL     1       1.280  10.547  18.783  0.00  0.00    +0.000 C 
BRANCH  13  16
ATOM     14  N   UNL     1      -2.166  11.728  19.147  0.00  0.00    +0.000 N 
ATOM     15  C   UNL     1      -0.837  11.896  19.420  0.00  0.00    +0.000 A 
ATOM     16  C   UNL     1      -0.163  10.917  18.712  0.00  0.00    +0.000 A 
ATOM     17  C   UNL     1      -1.189  10.257  17.995  0.00  0.00    +0.000 A 
ATOM     18  N   UNL     1      -2.403  10.755  18.250  0.00  0.00    +0.000 NA
BRANCH  14  20
ATOM     19  C   UNL     1      -2.879  13.042  21.111  0.00  0.00    +0.000 C 
ATOM     20  C   UNL     1      -3.275  12.402  19.795  0.00  0.00    +0.000 C 
ENDBRANCH  14  20
ENDBRANCH  13  16
ENDBRANCH   7  13
ENDBRANCH   1  11
BRANCH   5  21
ATOM     21  C   UNL     1       5.529   4.995  16.035  0.00  0.00    +0.000 C 
ATOM     22  C   UNL     1       5.538   4.047  14.830  0.00  0.00    +0.000 C 
BRANCH  21  23
ATOM     23  S   UNL     1       7.040   4.656  17.015  0.00  0.00    +0.000 S 
BRANCH  23  24
ATOM     24  C   UNL     1       7.495   6.252  17.479  0.00  0.00    +0.000 A 
ATOM     25  N   UNL     1       7.447   7.334  16.739  0.00  0.00    +0.000 NA
ATOM     26  N   UNL     1       7.933   8.378  17.499  0.00  0.00    +0.000 NA
ATOM     27  C   UNL     1       8.257   7.896  18.680  0.00  0.00    +0.000 A 
ATOM     28  N   UNL     1       7.997   6.558  18.712  0.00  0.00    +0.000 N 
ATOM     29  C   UNL     1       8.194   5.682  19.831  0.00  0.00    +0.000 C 
ENDBRANCH  23  24
ENDBRANCH  21  23
ENDBRANCH   5  21
TORSDOF 7
ENDMDL
MODEL 3
REMARK VINA RESULT:      -7.3      2.039      2.964
REMARK  Name = 
REMARK  11 active torsions:
REMARK  status: ('A' for Active; 'I' for Inactive)
REMARK    1  A    between atoms: C_1  and  C_2
REMARK    2  A    between atoms: C_2  and  N_3
REMARK    3  A    between atoms: C_5  and  C_6
REMARK    4  A    between atoms: C_6  and  N_7
REMARK    5  A    between atoms: N_7  and  C_8
REMARK    6  A    between atoms: N_11  and  C_12
REMARK    7  A    between atoms: C_16  and  C_17
REMARK    8  A    between atoms: C_17  and  C_18
REMARK    9  A    between atoms: C_17  and  S_19
REMARK   10  A    between atoms: S_19  and  C_20
REMARK   11  A    between atoms: N_24  and  C_25
REMARK                            x       y       z     vdW  Elec       q    Type
REMARK                         _______ _______ _______ _____ _____    ______ ____
ROOT
ATOM      1  C   UNL     1       2.897   5.990  19.395  0.00  0.00    +0.000 A 
ATOM      2  C   UNL     1       2.860   4.737  20.007  0.00  0.00    +0.000 A 
ATOM      3  C   UNL     1       3.702   3.709  19.577  0.00  0.00    +0.000 A 
ATOM      4  C   UNL     1       4.583   3.921  18.524  0.00  0.00    +0.000 A 
ATOM      5  C   UNL     1       4.640   5.164  17.876  0.00  0.00    +0.000 A 
ATOM      6  C   UNL     1       3.784   6.193  18.322  0.00  0.00    +0.000 A 
ENDROOT
BRANCH   1  11
ATOM      7  N   UNL     1       1.148   9.219  19.831  0.00  0.00    +0.000 N 
ATOM      8  C   UNL     1       0.621   9.043  21.177  0.00  0.00    +0.000 C 
ATOM      9  C   UNL     1       1.974   8.301  19.179  0.00  0.00    +0.000 C 
ATOM     10  O   UNL     1       2.542   8.598  18.130  0.00  0.00    +0.000 OA
ATOM     11  N   UNL     1       2.057   7.061  19.784  0.00  0.00    +0.000 N 
ATOM     12  H   UNL     1       1.295   6.811  20.393  0.00  0.00    +0.000 HD
BRANCH   7  13
ATOM     13  C   UNL     1       0.848  10.476  19.146  0.00  0.00    +0.000 C 
BRANCH  13  16
ATOM     14  N   UNL     1      -2.645  10.802  18.103  0.00  0.00    +0.000 N 
ATOM     15  C   UNL     1      -1.444  10.160  17.984  0.00  0.00    +0.000 A 
ATOM     16  C   UNL     1      -0.614  10.697  18.950  0.00  0.00    +0.000 A 
ATOM     17  C   UNL     1      -1.447  11.613  19.635  0.00  0.00    +0.000 A 
ATOM     18  N   UNL     1      -2.683  11.668  19.129  0.00  0.00    +0.000 NA
BRANCH  14  20
ATOM     19  C   UNL     1      -4.999  11.435  17.707  0.00  0.00    +0.000 C 
ATOM     20  C   UNL     1      -3.772  10.705  17.194  0.00  0.00    +0.000 C 
ENDBRANCH  14  20
ENDBRANCH  13  16
ENDBRANCH   7  13
ENDBRANCH   1  11
BRANCH   5  21
ATOM     21  C   UNL     1       5.584   5.400  16.706  0.00  0.00    +0.000 C 
ATOM     22  C   UNL     1       5.164   6.642  15.910  0.00  0.00    +0.000 C 
BRANCH  21  23
ATOM     23  S   UNL     1       5.631   3.988  15.538  0.00  0.00    +0.000 S 
BRANCH  23  24
ATOM     24  C   UNL     1       6.698   4.597  14.331  0.00  0.00    +0.000 A 
ATOM     25  N   UNL     1       7.659   5.475  14.495  0.00  0.00    +0.000 NA
ATOM     26  N   UNL     1       8.235   5.695  13.261  0.00  0.00    +0.000 NA
ATOM     27  C   UNL     1       7.607   4.939  12.386  0.00  0.00    +0.000 A 
ATOM     28  N   UNL     1       6.629   4.229  13.017  0.00  0.00    +0.000 N 
ATOM     29  C   UNL     1       5.743   3.278  12.408  0.00  0.00    +0.000 C 
ENDBRANCH  23  24
ENDBRANCH  21  23
ENDBRANCH   5  21
TORSDOF 7
ENDMDL
MODEL 4
REMARK VINA RESULT:      -7.3      5.430      8.544
REMARK  Name = 
REMARK  11 active torsions:
REMARK  status: ('A' for Active; 'I' for Inactive)
REMARK    1  A    between atoms: C_1  and  C_2
REMARK    2  A    between atoms: C_2  and  N_3
REMARK    3  A    between atoms: C_5  and  C_6
REMARK    4  A    between atoms: C_6  and  N_7
REMARK    5  A    between atoms: N_7  and  C_8
REMARK    6  A    between atoms: N_11  and  C_12
REMARK    7  A    between atoms: C_16  and  C_17
REMARK    8  A    between atoms: C_17  and  C_18
REMARK    9  A    between atoms: C_17  and  S_19
REMARK   10  A    between atoms: S_19  and  C_20
REMARK   11  A    between atoms: N_24  and  C_25
REMARK                            x       y       z     vdW  Elec       q    Type
REMARK                         _______ _______ _______ _____ _____    ______ ____
ROOT
ATOM      1  C   UNL     1       7.759   8.043  17.995  0.00  0.00    +0.000 A 
ATOM      2  C   UNL     1       8.373   7.215  18.935  0.00  0.00    +0.000 A 
ATOM      3  C   UNL     1       8.003   5.873  19.053  0.00  0.00    +0.000 A 
ATOM      4  C   UNL     1       7.007   5.349  18.238  0.00  0.00    +0.000 A 
ATOM      5  C   UNL     1       6.358   6.154  17.290  0.00  0.00    +0.000 A 
ATOM      6  C   UNL     1       6.744   7.507  17.182  0.00  0.00    +0.000 A 
ENDROOT
BRANCH   1  11
ATOM      7  N   UNL     1       8.934  11.527  18.386  0.00  0.00    +0.000 N 
ATOM      8  C   UNL     1       8.082  12.193  17.410  0.00  0.00    +0.000 C 
ATOM      9  C   UNL     1       8.855  10.171  18.708  0.00  0.00    +0.000 C 
ATOM     10  O   UNL     1       9.462   9.717  19.676  0.00  0.00    +0.000 OA
ATOM     11  N   UNL     1       8.089   9.411  17.844  0.00  0.00    +0.000 N 
ATOM     12  H   UNL     1       7.957   9.787  16.919  0.00  0.00    +0.000 HD
BRANCH   7  13
ATOM     13  C   UNL     1       9.886  12.353  19.128  0.00  0.00    +0.000 C 
BRANCH  13  16
ATOM     14  N   UNL     1      10.738  15.410  17.306  0.00  0.00    +0.000 N 
ATOM     15  C   UNL     1      10.095  14.815  18.355  0.00  0.00    +0.000 A 
ATOM     16  C   UNL     1      10.439  13.475  18.318  0.00  0.00    +0.000 A 
ATOM     17  C   UNL     1      11.348  13.393  17.237  0.00  0.00    +0.000 A 
ATOM     18  N   UNL     1      11.539  14.569  16.629  0.00  0.00    +0.000 NA
BRANCH  14  20
ATOM     19  C   UNL     1      11.466  17.760  17.516  0.00  0.00    +0.000 C 
ATOM     20  C   UNL     1      10.547  16.768  16.831  0.00  0.00    +0.000 C 
ENDBRANCH  14  20
ENDBRANCH  13  16
ENDBRANCH   7  13
ENDBRANCH   1  11
BRANCH   5  21
ATOM     21  C   UNL     1       5.250   5.596  16.409  0.00  0.00    +0.000 C 
ATOM     22  C   UNL     1       3.988   5.318  17.234  0.00  0.00    +0.000 C 
BRANCH  21  23
ATOM     23  S   UNL     1       5.724   4.030  15.582  0.00  0.00    +0.000 S 
BRANCH  23  24
ATOM     24  C   UNL     1       6.784   4.616  14.357  0.00  0.00    +0.000 A 
ATOM     25  N   UNL     1       7.784   5.451  14.510  0.00  0.00    +0.000 NA
ATOM     26  N   UNL     1       8.337   5.668  13.265  0.00  0.00    +0.000 NA
ATOM     27  C   UNL     1       7.657   4.952  12.395  0.00  0.00    +0.000 A 
ATOM     28  N   UNL     1       6.667   4.272  13.040  0.00  0.00    +0.000 N 
ATOM     29  C   UNL     1       5.728   3.368  12.439  0.00  0.00    +0.000 C 
ENDBRANCH  23  24
ENDBRANCH  21  23
ENDBRANCH   5  21
TORSDOF 7
ENDMDL
MODEL 5
REMARK VINA RESULT:      -7.3      2.933      9.155
REMARK  Name = 
REMARK  11 active torsions:
REMARK  status: ('A' for Active; 'I' for Inactive)
REMARK    1  A    between atoms: C_1  and  C_2
REMARK    2  A    between atoms: C_2  and  N_3
REMARK    3  A    between atoms: C_5  and  C_6
REMARK    4  A    between atoms: C_6  and  N_7
REMARK    5  A    between atoms: N_7  and  C_8
REMARK    6  A    between atoms: N_11  and  C_12
REMARK    7  A    between atoms: C_16  and  C_17
REMARK    8  A    between atoms: C_17  and  C_18
REMARK    9  A    between atoms: C_17  and  S_19
REMARK   10  A    between atoms: S_19  and  C_20
REMARK   11  A    between atoms: N_24  and  C_25
REMARK                            x       y       z     vdW  Elec       q    Type
REMARK                         _______ _______ _______ _____ _____    ______ ____
ROOT
ATOM      1  C   UNL     1       1.921   7.900  19.904  0.00  0.00    +0.000 A 
ATOM      2  C   UNL     1       1.261   7.671  21.112  0.00  0.00    +0.000 A 
ATOM      3  C   UNL     1       0.203   8.490  21.513  0.00  0.00    +0.000 A 
ATOM      4  C   UNL     1      -0.198   9.554  20.715  0.00  0.00    +0.000 A 
ATOM      5  C   UNL     1       0.450   9.823  19.499  0.00  0.00    +0.000 A 
ATOM      6  C   UNL     1       1.516   8.986  19.108  0.00  0.00    +0.000 A 
ENDROOT
BRANCH   1  11
ATOM      7  N   UNL     1       4.137   5.332  18.431  0.00  0.00    +0.000 N 
ATOM      8  C   UNL     1       5.337   5.546  19.228  0.00  0.00    +0.000 C 
ATOM      9  C   UNL     1       2.931   6.007  18.624  0.00  0.00    +0.000 C 
ATOM     10  O   UNL     1       1.905   5.642  18.052  0.00  0.00    +0.000 OA
ATOM     11  N   UNL     1       3.005   7.107  19.459  0.00  0.00    +0.000 N 
ATOM     12  H   UNL     1       3.916   7.524  19.564  0.00  0.00    +0.000 HD
BRANCH   7  13
ATOM     13  C   UNL     1       4.182   4.290  17.406  0.00  0.00    +0.000 C 
BRANCH  13  16
ATOM     14  N   UNL     1       6.457   4.580  14.554  0.00  0.00    +0.000 N 
ATOM     15  C   UNL     1       5.176   4.563  15.031  0.00  0.00    +0.000 A 
ATOM     16  C   UNL     1       5.271   4.499  16.410  0.00  0.00    +0.000 A 
ATOM     17  C   UNL     1       6.664   4.548  16.652  0.00  0.00    +0.000 A 
ATOM     18  N   UNL     1       7.384   4.608  15.527  0.00  0.00    +0.000 NA
BRANCH  14  20
ATOM     19  C   UNL     1       6.128   3.362  12.432  0.00  0.00    +0.000 C 
ATOM     20  C   UNL     1       6.866   4.464  13.167  0.00  0.00    +0.000 C 
ENDBRANCH  14  20
ENDBRANCH  13  16
ENDBRANCH   7  13
ENDBRANCH   1  11
BRANCH   5  21
ATOM     21  C   UNL     1       0.034  11.000  18.628  0.00  0.00    +0.000 C 
ATOM     22  C   UNL     1       0.938  12.212  18.884  0.00  0.00    +0.000 C 
BRANCH  21  23
ATOM     23  S   UNL     1      -1.695  11.528  18.931  0.00  0.00    +0.000 S 
BRANCH  23  24
ATOM     24  C   UNL     1      -2.472  10.932  17.514  0.00  0.00    +0.000 A 
ATOM     25  N   UNL     1      -1.956  10.143  16.602  0.00  0.00    +0.000 NA
ATOM     26  N   UNL     1      -2.917   9.947  15.632  0.00  0.00    +0.000 NA
ATOM     27  C   UNL     1      -3.989  10.621  15.989  0.00  0.00    +0.000 A 
ATOM     28  N   UNL     1      -3.753  11.258  17.171  0.00  0.00    +0.000 N 
ATOM     29  C   UNL     1      -4.686  12.073  17.896  0.00  0.00    +0.000 C 
ENDBRANCH  23  24
ENDBRANCH  21  23
ENDBRANCH   5  21
TORSDOF 7
ENDMDL
MODEL 6
REMARK VINA RESULT:      -7.2      3.876      9.503
REMARK  Name = 
REMARK  11 active torsions:
REMARK  status: ('A' for Active; 'I' for Inactive)
REMARK    1  A    between atoms: C_1  and  C_2
REMARK    2  A    between atoms: C_2  and  N_3
REMARK    3  A    between atoms: C_5  and  C_6
REMARK    4  A    between atoms: C_6  and  N_7
REMARK    5  A    between atoms: N_7  and  C_8
REMARK    6  A    between atoms: N_11  and  C_12
REMARK    7  A    between atoms: C_16  and  C_17
REMARK    8  A    between atoms: C_17  and  C_18
REMARK    9  A    between atoms: C_17  and  S_19
REMARK   10  A    between atoms: S_19  and  C_20
REMARK   11  A    between atoms: N_24  and  C_25
REMARK                            x       y       z     vdW  Elec       q    Type
REMARK                         _______ _______ _______ _____ _____    ______ ____
ROOT
ATOM      1  C   UNL     1       1.662   8.089  20.041  0.00  0.00    +0.000 A 
ATOM      2  C   UNL     1       1.793   8.693  18.790  0.00  0.00    +0.000 A 
ATOM      3  C   UNL     1       1.368  10.007  18.585  0.00  0.00    +0.000 A 
ATOM      4  C   UNL     1       0.795  10.727  19.627  0.00  0.00    +0.000 A 
ATOM      5  C   UNL     1       0.635  10.148  20.896  0.00  0.00    +0.000 A 
ATOM      6  C   UNL     1       1.072   8.821  21.087  0.00  0.00    +0.000 A 
ENDROOT
BRANCH   1  11
ATOM      7  N   UNL     1       2.546   4.502  19.885  0.00  0.00    +0.000 N 
ATOM      8  C   UNL     1       2.392   4.141  21.288  0.00  0.00    +0.000 C 
ATOM      9  C   UNL     1       2.259   5.761  19.357  0.00  0.00    +0.000 C 
ATOM     10  O   UNL     1       2.220   5.942  18.142  0.00  0.00    +0.000 OA
ATOM     11  N   UNL     1       2.066   6.757  20.298  0.00  0.00    +0.000 N 
ATOM     12  H   UNL     1       2.475   6.597  21.204  0.00  0.00    +0.000 HD
BRANCH   7  13
ATOM     13  C   UNL     1       2.964   3.450  18.959  0.00  0.00    +0.000 C 
BRANCH  13  16
ATOM     14  N   UNL     1       6.280   4.498  17.818  0.00  0.00    +0.000 N 
ATOM     15  C   UNL     1       5.437   4.209  18.855  0.00  0.00    +0.000 A 
ATOM     16  C   UNL     1       4.263   3.745  18.289  0.00  0.00    +0.000 A 
ATOM     17  C   UNL     1       4.540   3.739  16.902  0.00  0.00    +0.000 A 
ATOM     18  N   UNL     1       5.767   4.185  16.616  0.00  0.00    +0.000 NA
BRANCH  14  20
ATOM     19  C   UNL     1       7.807   5.778  19.276  0.00  0.00    +0.000 C 
ATOM     20  C   UNL     1       7.559   5.177  17.906  0.00  0.00    +0.000 C 
ENDBRANCH  14  20
ENDBRANCH  13  16
ENDBRANCH   7  13
ENDBRANCH   1  11
BRANCH   5  21
ATOM     21  C   UNL     1      -0.012  10.920  22.037  0.00  0.00    +0.000 C 
ATOM     22  C   UNL     1      -0.636   9.960  23.057  0.00  0.00    +0.000 C 
BRANCH  21  23
ATOM     23  S   UNL     1      -1.333  12.054  21.466  0.00  0.00    +0.000 S 
BRANCH  23  24
ATOM     24  C   UNL     1      -1.216  13.311  22.639  0.00  0.00    +0.000 A 
ATOM     25  N   UNL     1      -0.241  14.178  22.774  0.00  0.00    +0.000 NA
ATOM     26  N   UNL     1      -0.544  14.977  23.857  0.00  0.00    +0.000 NA
ATOM     27  C   UNL     1      -1.697  14.570  24.344  0.00  0.00    +0.000 A 
ATOM     28  N   UNL     1      -2.157  13.520  23.606  0.00  0.00    +0.000 N 
ATOM     29  C   UNL     1      -3.392  12.818  23.808  0.00  0.00    +0.000 C 
ENDBRANCH  23  24
ENDBRANCH  21  23
ENDBRANCH   5  21
TORSDOF 7
ENDMDL
MODEL 7
REMARK VINA RESULT:      -7.2      3.648     10.064
REMARK  Name = 
REMARK  11 active torsions:
REMARK  status: ('A' for Active; 'I' for Inactive)
REMARK    1  A    between atoms: C_1  and  C_2
REMARK    2  A    between atoms: C_2  and  N_3
REMARK    3  A    between atoms: C_5  and  C_6
REMARK    4  A    between atoms: C_6  and  N_7
REMARK    5  A    between atoms: N_7  and  C_8
REMARK    6  A    between atoms: N_11  and  C_12
REMARK    7  A    between atoms: C_16  and  C_17
REMARK    8  A    between atoms: C_17  and  C_18
REMARK    9  A    between atoms: C_17  and  S_19
REMARK   10  A    between atoms: S_19  and  C_20
REMARK   11  A    between atoms: N_24  and  C_25
REMARK                            x       y       z     vdW  Elec       q    Type
REMARK                         _______ _______ _______ _____ _____    ______ ____
ROOT
ATOM      1  C   UNL     1      -0.056  10.192  18.951  0.00  0.00    +0.000 A 
ATOM      2  C   UNL     1       0.130  11.526  19.314  0.00  0.00    +0.000 A 
ATOM      3  C   UNL     1      -0.848  12.484  19.034  0.00  0.00    +0.000 A 
ATOM      4  C   UNL     1      -2.017  12.118  18.379  0.00  0.00    +0.000 A 
ATOM      5  C   UNL     1      -2.234  10.788  17.988  0.00  0.00    +0.000 A 
ATOM      6  C   UNL     1      -1.238   9.832  18.279  0.00  0.00    +0.000 A 
ENDROOT
BRANCH   1  11
ATOM      7  N   UNL     1       2.594   7.620  18.763  0.00  0.00    +0.000 N 
ATOM      8  C   UNL     1       2.298   6.861  19.970  0.00  0.00    +0.000 C 
ATOM      9  C   UNL     1       1.833   8.694  18.298  0.00  0.00    +0.000 C 
ATOM     10  O   UNL     1       2.021   9.161  17.176  0.00  0.00    +0.000 OA
ATOM     11  N   UNL     1       0.908   9.186  19.200  0.00  0.00    +0.000 N 
ATOM     12  H   UNL     1       1.088   8.993  20.172  0.00  0.00    +0.000 HD
BRANCH   7  13
ATOM     13  C   UNL     1       3.727   7.181  17.950  0.00  0.00    +0.000 C 
BRANCH  13  16
ATOM     14  N   UNL     1       4.222   3.629  18.682  0.00  0.00    +0.000 N 
ATOM     15  C   UNL     1       3.491   4.605  18.063  0.00  0.00    +0.000 A 
ATOM     16  C   UNL     1       4.170   5.793  18.267  0.00  0.00    +0.000 A 
ATOM     17  C   UNL     1       5.332   5.398  18.970  0.00  0.00    +0.000 A 
ATOM     18  N   UNL     1       5.370   4.084  19.212  0.00  0.00    +0.000 NA
BRANCH  14  20
ATOM     19  C   UNL     1       2.716   1.815  17.951  0.00  0.00    +0.000 C 
ATOM     20  C   UNL     1       3.822   2.251  18.893  0.00  0.00    +0.000 C 
ENDBRANCH  14  20
ENDBRANCH  13  16
ENDBRANCH   7  13
ENDBRANCH   1  11
BRANCH   5  21
ATOM     21  C   UNL     1      -3.501  10.381  17.249  0.00  0.00    +0.000 C 
ATOM     22  C   UNL     1      -3.185   9.999  15.798  0.00  0.00    +0.000 C 
BRANCH  21  23
ATOM     23  S   UNL     1      -4.756  11.716  17.207  0.00  0.00    +0.000 S 
BRANCH  23  24
ATOM     24  C   UNL     1      -5.738  11.285  18.555  0.00  0.00    +0.000 A 
ATOM     25  N   UNL     1      -6.511  10.230  18.665  0.00  0.00    +0.000 NA
ATOM     26  N   UNL     1      -7.134  10.300  19.894  0.00  0.00    +0.000 NA
ATOM     27  C   UNL     1      -6.716  11.394  20.493  0.00  0.00    +0.000 A 
ATOM     28  N   UNL     1      -5.834  12.047  19.685  0.00  0.00    +0.000 N 
ATOM     29  C   UNL     1      -5.142  13.266  19.993  0.00  0.00    +0.000 C 
ENDBRANCH  23  24
ENDBRANCH  21  23
ENDBRANCH   5  21
TORSDOF 7
ENDMDL
MODEL 8
REMARK VINA RESULT:      -7.2      2.889      3.922
REMARK  Name = 
REMARK  11 active torsions:
REMARK  status: ('A' for Active; 'I' for Inactive)
REMARK    1  A    between atoms: C_1  and  C_2
REMARK    2  A    between atoms: C_2  and  N_3
REMARK    3  A    between atoms: C_5  and  C_6
REMARK    4  A    between atoms: C_6  and  N_7
REMARK    5  A    between atoms: N_7  and  C_8
REMARK    6  A    between atoms: N_11  and  C_12
REMARK    7  A    between atoms: C_16  and  C_17
REMARK    8  A    between atoms: C_17  and  C_18
REMARK    9  A    between atoms: C_17  and  S_19
REMARK   10  A    between atoms: S_19  and  C_20
REMARK   11  A    between atoms: N_24  and  C_25
REMARK                            x       y       z     vdW  Elec       q    Type
REMARK                         _______ _______ _______ _____ _____    ______ ____
ROOT
ATOM      1  C   UNL     1       3.084   5.719  19.732  0.00  0.00    +0.000 A 
ATOM      2  C   UNL     1       3.030   4.403  20.194  0.00  0.00    +0.000 A 
ATOM      3  C   UNL     1       3.786   3.401  19.581  0.00  0.00    +0.000 A 
ATOM      4  C   UNL     1       4.594   3.702  18.492  0.00  0.00    +0.000 A 
ATOM      5  C   UNL     1       4.663   5.012  17.991  0.00  0.00    +0.000 A 
ATOM      6  C   UNL     1       3.896   6.013  18.622  0.00  0.00    +0.000 A 
ENDROOT
BRANCH   1  11
ATOM      7  N   UNL     1       1.249   8.838  20.492  0.00  0.00    +0.000 N 
ATOM      8  C   UNL     1       1.298   8.813  21.947  0.00  0.00    +0.000 C 
ATOM      9  C   UNL     1       1.872   7.902  19.665  0.00  0.00    +0.000 C 
ATOM     10  O   UNL     1       1.959   8.091  18.453  0.00  0.00    +0.000 OA
ATOM     11  N   UNL     1       2.330   6.768  20.310  0.00  0.00    +0.000 N 
ATOM     12  H   UNL     1       1.892   6.550  21.190  0.00  0.00    +0.000 HD
BRANCH   7  13
ATOM     13  C   UNL     1       0.560   9.961  19.858  0.00  0.00    +0.000 C 
BRANCH  13  16
ATOM     14  N   UNL     1      -0.156  12.801  22.053  0.00  0.00    +0.000 N 
ATOM     15  C   UNL     1      -0.443  11.522  21.664  0.00  0.00    +0.000 A 
ATOM     16  C   UNL     1       0.508  11.176  20.721  0.00  0.00    +0.000 A 
ATOM     17  C   UNL     1       1.356  12.307  20.670  0.00  0.00    +0.000 A 
ATOM     18  N   UNL     1       0.960  13.289  21.486  0.00  0.00    +0.000 NA
BRANCH  14  20
ATOM     19  C   UNL     1      -2.323  13.965  22.266  0.00  0.00    +0.000 C 
ATOM     20  C   UNL     1      -0.977  13.655  22.891  0.00  0.00    +0.000 C 
ENDBRANCH  14  20
ENDBRANCH  13  16
ENDBRANCH   7  13
ENDBRANCH   1  11
BRANCH   5  21
ATOM     21  C   UNL     1       5.528   5.348  16.784  0.00  0.00    +0.000 C 
ATOM     22  C   UNL     1       5.022   6.618  16.091  0.00  0.00    +0.000 C 
BRANCH  21  23
ATOM     23  S   UNL     1       5.548   4.008  15.533  0.00  0.00    +0.000 S 
BRANCH  23  24
ATOM     24  C   UNL     1       6.720   4.614  14.424  0.00  0.00    +0.000 A 
ATOM     25  N   UNL     1       7.666   5.488  14.673  0.00  0.00    +0.000 NA
ATOM     26  N   UNL     1       8.349   5.707  13.495  0.00  0.00    +0.000 NA
ATOM     27  C   UNL     1       7.796   4.955  12.567  0.00  0.00    +0.000 A 
ATOM     28  N   UNL     1       6.764   4.248  13.109  0.00  0.00    +0.000 N 
ATOM     29  C   UNL     1       5.931   3.303  12.423  0.00  0.00    +0.000 C 
ENDBRANCH  23  24
ENDBRANCH  21  23
ENDBRANCH   5  21
TORSDOF 7
ENDMDL
MODEL 9
REMARK VINA RESULT:      -7.1      1.948      2.665
REMARK  Name = 
REMARK  11 active torsions:
REMARK  status: ('A' for Active; 'I' for Inactive)
REMARK    1  A    between atoms: C_1  and  C_2
REMARK    2  A    between atoms: C_2  and  N_3
REMARK    3  A    between atoms: C_5  and  C_6
REMARK    4  A    between atoms: C_6  and  N_7
REMARK    5  A    between atoms: N_7  and  C_8
REMARK    6  A    between atoms: N_11  and  C_12
REMARK    7  A    between atoms: C_16  and  C_17
REMARK    8  A    between atoms: C_17  and  C_18
REMARK    9  A    between atoms: C_17  and  S_19
REMARK   10  A    between atoms: S_19  and  C_20
REMARK   11  A    between atoms: N_24  and  C_25
REMARK                            x       y       z     vdW  Elec       q    Type
REMARK                         _______ _______ _______ _____ _____    ______ ____
ROOT
ATOM      1  C   UNL     1       1.675   5.419  20.466  0.00  0.00    +0.000 A 
ATOM      2  C   UNL     1       0.680   4.442  20.411  0.00  0.00    +0.000 A 
ATOM      3  C   UNL     1       0.975   3.148  19.974  0.00  0.00    +0.000 A 
ATOM      4  C   UNL     1       2.266   2.822  19.577  0.00  0.00    +0.000 A 
ATOM      5  C   UNL     1       3.290   3.781  19.607  0.00  0.00    +0.000 A 
ATOM      6  C   UNL     1       2.977   5.083  20.053  0.00  0.00    +0.000 A 
ENDROOT
BRANCH   1  11
ATOM      7  N   UNL     1       1.384   9.088  20.826  0.00  0.00    +0.000 N 
ATOM      8  C   UNL     1       1.285   9.193  22.275  0.00  0.00    +0.000 C 
ATOM      9  C   UNL     1       1.589   7.893  20.133  0.00  0.00    +0.000 C 
ATOM     10  O   UNL     1       1.859   7.898  18.934  0.00  0.00    +0.000 OA
ATOM     11  N   UNL     1       1.427   6.746  20.889  0.00  0.00    +0.000 N 
ATOM     12  H   UNL     1       0.861   6.836  21.717  0.00  0.00    +0.000 HD
BRANCH   7  13
ATOM     13  C   UNL     1       1.334  10.328  20.052  0.00  0.00    +0.000 C 
BRANCH  13  16
ATOM     14  N   UNL     1      -1.895  11.090  18.507  0.00  0.00    +0.000 N 
ATOM     15  C   UNL     1      -0.748  10.346  18.513  0.00  0.00    +0.000 A 
ATOM     16  C   UNL     1      -0.051  10.709  19.651  0.00  0.00    +0.000 A 
ATOM     17  C   UNL     1      -0.909  11.636  20.288  0.00  0.00    +0.000 A 
ATOM     18  N   UNL     1      -2.033  11.859  19.600  0.00  0.00    +0.000 NA
BRANCH  14  20
ATOM     19  C   UNL     1      -2.577  10.205  16.305  0.00  0.00    +0.000 C 
ATOM     20  C   UNL     1      -2.858  11.188  17.426  0.00  0.00    +0.000 C 
ENDBRANCH  14  20
ENDBRANCH  13  16
ENDBRANCH   7  13
ENDBRANCH   1  11
BRANCH   5  21
ATOM     21  C   UNL     1       4.702   3.440  19.153  0.00  0.00    +0.000 C 
ATOM     22  C   UNL     1       5.279   2.292  19.990  0.00  0.00    +0.000 C 
BRANCH  21  23
ATOM     23  S   UNL     1       5.854   4.859  19.295  0.00  0.00    +0.000 S 
BRANCH  23  24
ATOM     24  C   UNL     1       6.445   4.963  17.680  0.00  0.00    +0.000 A 
ATOM     25  N   UNL     1       7.558   4.450  17.211  0.00  0.00    +0.000 NA
ATOM     26  N   UNL     1       7.649   4.803  15.881  0.00  0.00    +0.000 NA
ATOM     27  C   UNL     1       6.584   5.517  15.583  0.00  0.00    +0.000 A 
ATOM     28  N   UNL     1       5.796   5.642  16.689  0.00  0.00    +0.000 N 
ATOM     29  C   UNL     1       4.538   6.329  16.761  0.00  0.00    +0.000 C 
ENDBRANCH  23  24
ENDBRANCH  21  23
ENDBRANCH   5  21
TORSDOF 7
ENDMDL
