MODEL 1
REMARK VINA RESULT:      -8.1      0.000      0.000
REMARK  Name = 
REMARK  7 active torsions:
REMARK  status: ('A' for Active; 'I' for Inactive)
REMARK    1  A    between atoms: C_1  and  C_2
REMARK    2  A    between atoms: C_2  and  S_3
REMARK    3  A    between atoms: C_2  and  C_10
REMARK    4  A    between atoms: S_3  and  C_4
REMARK    5  A    between atoms: N_8  and  C_9
REMARK    6  A    between atoms: C_14  and  N_15
REMARK    7  A    between atoms: N_23  and  C_24
REMARK                            x       y       z     vdW  Elec       q    Type
REMARK                         _______ _______ _______ _____ _____    ______ ____
ROOT
ATOM      1  C   UNL     1       4.307   5.368  17.116  0.00  0.00    +0.000 A 
ATOM      2  C   UNL     1       4.926   4.371  16.345  0.00  0.00    +0.000 A 
ATOM      3  C   UNL     1       6.227   4.539  15.881  0.00  0.00    +0.000 A 
ATOM      4  C   UNL     1       6.925   5.712  16.166  0.00  0.00    +0.000 A 
ATOM      5  C   UNL     1       6.327   6.745  16.891  0.00  0.00    +0.000 A 
ATOM      6  C   UNL     1       5.028   6.552  17.386  0.00  0.00    +0.000 A 
ENDROOT
BRANCH   5   7
ATOM      7  N   UNL     1       6.978   7.982  17.148  0.00  0.00    +0.000 N 
ATOM      8  C   UNL     1       7.950   8.166  18.107  0.00  0.00    +0.000 C 
ATOM      9  O   UNL     1       8.408   7.268  18.813  0.00  0.00    +0.000 OA
ATOM     10  N   UNL     1       8.429   9.446  18.248  0.00  0.00    +0.000 N 
ATOM     11  C   UNL     1       9.539   9.639  19.228  0.00  0.00    +0.000 C 
ATOM     12  C   UNL     1       9.745  11.081  19.122  0.00  0.00    +0.000 A 
ATOM     13  C   UNL     1      10.540  12.116  19.592  0.00  0.00    +0.000 A 
ATOM     14  N   UNL     1      10.158  13.292  19.066  0.00  0.00    +0.000 NA
ATOM     15  N   UNL     1       9.110  12.979  18.257  0.00  0.00    +0.000 N 
ATOM     16  C   UNL     1       8.416  14.021  17.547  0.00  0.00    +0.000 C 
ATOM     17  C   UNL     1       8.857  11.652  18.266  0.00  0.00    +0.000 A 
ATOM     18  C   UNL     1       7.920  10.712  17.644  0.00  0.00    +0.000 C 
ATOM     19  H   UNL     1       6.938   8.668  16.410  0.00  0.00    +0.000 HD
ENDBRANCH   5   7
BRANCH   1  21
ATOM     20  C   UNL     1       2.572   5.777  18.984  0.00  0.00    +0.000 C 
ATOM     21  C   UNL     1       2.901   5.116  17.645  0.00  0.00    +0.000 C 
BRANCH  21  22
ATOM     22  S   UNL     1       2.454   3.335  17.634  0.00  0.00    +0.000 S 
BRANCH  22  23
ATOM     23  C   UNL     1       2.133   3.045  19.302  0.00  0.00    +0.000 A 
ATOM     24  N   UNL     1       0.979   3.175  19.917  0.00  0.00    +0.000 NA
ATOM     25  N   UNL     1       1.199   2.980  21.263  0.00  0.00    +0.000 NA
ATOM     26  C   UNL     1       2.475   2.710  21.419  0.00  0.00    +0.000 A 
ATOM     27  N   UNL     1       3.096   2.703  20.205  0.00  0.00    +0.000 N 
ATOM     28  C   UNL     1       4.482   2.412  19.962  0.00  0.00    +0.000 C 
ENDBRANCH  22  23
ENDBRANCH  21  22
ENDBRANCH   1  21
TORSDOF 4
ENDMDL
MODEL 2
REMARK VINA RESULT:      -7.9      4.513      7.082
REMARK  Name = 
REMARK  7 active torsions:
REMARK  status: ('A' for Active; 'I' for Inactive)
REMARK    1  A    between atoms: C_1  and  C_2
REMARK    2  A    between atoms: C_2  and  S_3
REMARK    3  A    between atoms: C_2  and  C_10
REMARK    4  A    between atoms: S_3  and  C_4
REMARK    5  A    between atoms: N_8  and  C_9
REMARK    6  A    between atoms: C_14  and  N_15
REMARK    7  A    between atoms: N_23  and  C_24
REMARK                            x       y       z     vdW  Elec       q    Type
REMARK                         _______ _______ _______ _____ _____    ______ ____
ROOT
ATOM      1  C   UNL     1       4.362   4.901  16.887  0.00  0.00    +0.000 A 
ATOM      2  C   UNL     1       3.743   3.692  17.243  0.00  0.00    +0.000 A 
ATOM      3  C   UNL     1       2.588   3.688  18.019  0.00  0.00    +0.000 A 
ATOM      4  C   UNL     1       2.042   4.890  18.466  0.00  0.00    +0.000 A 
ATOM      5  C   UNL     1       2.654   6.110  18.171  0.00  0.00    +0.000 A 
ATOM      6  C   UNL     1       3.798   6.107  17.357  0.00  0.00    +0.000 A 
ENDROOT
BRANCH   5   7
ATOM      7  N   UNL     1       2.168   7.353  18.660  0.00  0.00    +0.000 N 
ATOM      8  C   UNL     1       1.668   7.548  19.930  0.00  0.00    +0.000 C 
ATOM      9  O   UNL     1       1.638   6.684  20.805  0.00  0.00    +0.000 OA
ATOM     10  N   UNL     1       1.193   8.808  20.208  0.00  0.00    +0.000 N 
ATOM     11  C   UNL     1       0.725   9.051  21.605  0.00  0.00    +0.000 C 
ATOM     12  C   UNL     1       0.282  10.438  21.503  0.00  0.00    +0.000 A 
ATOM     13  C   UNL     1      -0.240  11.484  22.251  0.00  0.00    +0.000 A 
ATOM     14  N   UNL     1      -0.447  12.567  21.482  0.00  0.00    +0.000 NA
ATOM     15  N   UNL     1      -0.046  12.185  20.240  0.00  0.00    +0.000 N 
ATOM     16  C   UNL     1      -0.163  13.101  19.136  0.00  0.00    +0.000 C 
ATOM     17  C   UNL     1       0.410  10.914  20.236  0.00  0.00    +0.000 A 
ATOM     18  C   UNL     1       0.964   9.953  19.279  0.00  0.00    +0.000 C 
ATOM     19  H   UNL     1       2.472   8.176  18.164  0.00  0.00    +0.000 HD
ENDBRANCH   5   7
BRANCH   1  21
ATOM     20  C   UNL     1       5.505   3.911  14.794  0.00  0.00    +0.000 C 
ATOM     21  C   UNL     1       5.593   4.857  15.992  0.00  0.00    +0.000 C 
BRANCH  21  22
ATOM     22  S   UNL     1       7.146   4.614  16.942  0.00  0.00    +0.000 S 
BRANCH  22  23
ATOM     23  C   UNL     1       7.498   6.221  17.453  0.00  0.00    +0.000 A 
ATOM     24  N   UNL     1       7.449   7.310  16.720  0.00  0.00    +0.000 NA
ATOM     25  N   UNL     1       7.939   8.348  17.482  0.00  0.00    +0.000 NA
ATOM     26  C   UNL     1       8.246   7.860  18.662  0.00  0.00    +0.000 A 
ATOM     27  N   UNL     1       7.949   6.531  18.703  0.00  0.00    +0.000 N 
ATOM     28  C   UNL     1       8.108   5.659  19.834  0.00  0.00    +0.000 C 
ENDBRANCH  22  23
ENDBRANCH  21  22
ENDBRANCH   1  21
TORSDOF 4
ENDMDL
MODEL 3
REMARK VINA RESULT:      -7.8      6.869      8.529
REMARK  Name = 
REMARK  7 active torsions:
REMARK  status: ('A' for Active; 'I' for Inactive)
REMARK    1  A    between atoms: C_1  and  C_2
REMARK    2  A    between atoms: C_2  and  S_3
REMARK    3  A    between atoms: C_2  and  C_10
REMARK    4  A    between atoms: S_3  and  C_4
REMARK    5  A    between atoms: N_8  and  C_9
REMARK    6  A    between atoms: C_14  and  N_15
REMARK    7  A    between atoms: N_23  and  C_24
REMARK                            x       y       z     vdW  Elec       q    Type
REMARK                         _______ _______ _______ _____ _____    ______ ____
ROOT
ATOM      1  C   UNL     1       2.071   7.597  19.564  0.00  0.00    +0.000 A 
ATOM      2  C   UNL     1       2.309   7.959  18.229  0.00  0.00    +0.000 A 
ATOM      3  C   UNL     1       1.803   9.149  17.716  0.00  0.00    +0.000 A 
ATOM      4  C   UNL     1       1.037   9.989  18.523  0.00  0.00    +0.000 A 
ATOM      5  C   UNL     1       0.741   9.641  19.844  0.00  0.00    +0.000 A 
ATOM      6  C   UNL     1       1.286   8.457  20.364  0.00  0.00    +0.000 A 
ENDROOT
BRANCH   5   7
ATOM      7  N   UNL     1      -0.089  10.435  20.680  0.00  0.00    +0.000 N 
ATOM      8  C   UNL     1       0.271  11.661  21.197  0.00  0.00    +0.000 C 
ATOM      9  O   UNL     1       1.329  12.237  20.946  0.00  0.00    +0.000 OA
ATOM     10  N   UNL     1      -0.642  12.260  22.031  0.00  0.00    +0.000 N 
ATOM     11  C   UNL     1      -0.296  13.624  22.529  0.00  0.00    +0.000 C 
ATOM     12  C   UNL     1      -1.451  13.902  23.379  0.00  0.00    +0.000 A 
ATOM     13  C   UNL     1      -2.012  14.881  24.185  0.00  0.00    +0.000 A 
ATOM     14  N   UNL     1      -3.166  14.454  24.727  0.00  0.00    +0.000 NA
ATOM     15  N   UNL     1      -3.319  13.190  24.247  0.00  0.00    +0.000 N 
ATOM     16  C   UNL     1      -4.451  12.401  24.657  0.00  0.00    +0.000 C 
ATOM     17  C   UNL     1      -2.306  12.847  23.422  0.00  0.00    +0.000 A 
ATOM     18  C   UNL     1      -1.894  11.696  22.615  0.00  0.00    +0.000 C 
ATOM     19  H   UNL     1      -1.076  10.231  20.652  0.00  0.00    +0.000 HD
ENDBRANCH   5   7
BRANCH   1  21
ATOM     20  C   UNL     1       3.951   5.836  19.369  0.00  0.00    +0.000 C 
ATOM     21  C   UNL     1       2.691   6.311  20.095  0.00  0.00    +0.000 C 
BRANCH  21  22
ATOM     22  S   UNL     1       1.461   4.962  20.283  0.00  0.00    +0.000 S 
BRANCH  22  23
ATOM     23  C   UNL     1       1.936   3.878  19.031  0.00  0.00    +0.000 A 
ATOM     24  N   UNL     1       1.543   3.902  17.777  0.00  0.00    +0.000 NA
ATOM     25  N   UNL     1       2.052   2.781  17.159  0.00  0.00    +0.000 NA
ATOM     26  C   UNL     1       2.760   2.125  18.052  0.00  0.00    +0.000 A 
ATOM     27  N   UNL     1       2.746   2.800  19.236  0.00  0.00    +0.000 N 
ATOM     28  C   UNL     1       3.434   2.419  20.438  0.00  0.00    +0.000 C 
ENDBRANCH  22  23
ENDBRANCH  21  22
ENDBRANCH   1  21
TORSDOF 4
ENDMDL
MODEL 4
REMARK VINA RESULT:      -7.8      0.667      1.246
REMARK  Name = 
REMARK  7 active torsions:
REMARK  status: ('A' for Active; 'I' for Inactive)
REMARK    1  A    between atoms: C_1  and  C_2
REMARK    2  A    between atoms: C_2  and  S_3
REMARK    3  A    between atoms: C_2  and  C_10
REMARK    4  A    between atoms: S_3  and  C_4
REMARK    5  A    between atoms: N_8  and  C_9
REMARK    6  A    between atoms: C_14  and  N_15
REMARK    7  A    between atoms: N_23  and  C_24
REMARK                            x       y       z     vdW  Elec       q    Type
REMARK                         _______ _______ _______ _____ _____    ______ ____
ROOT
ATOM      1  C   UNL     1       4.384   5.427  17.074  0.00  0.00    +0.000 A 
ATOM      2  C   UNL     1       5.016   4.452  16.284  0.00  0.00    +0.000 A 
ATOM      3  C   UNL     1       6.313   4.646  15.822  0.00  0.00    +0.000 A 
ATOM      4  C   UNL     1       6.996   5.823  16.126  0.00  0.00    +0.000 A 
ATOM      5  C   UNL     1       6.385   6.835  16.870  0.00  0.00    +0.000 A 
ATOM      6  C   UNL     1       5.089   6.616  17.363  0.00  0.00    +0.000 A 
ENDROOT
BRANCH   5   7
ATOM      7  N   UNL     1       7.019   8.076  17.147  0.00  0.00    +0.000 N 
ATOM      8  C   UNL     1       7.993   8.256  18.106  0.00  0.00    +0.000 C 
ATOM      9  O   UNL     1       8.468   7.352  18.792  0.00  0.00    +0.000 OA
ATOM     10  N   UNL     1       8.455   9.540  18.269  0.00  0.00    +0.000 N 
ATOM     11  C   UNL     1       9.567   9.730  19.246  0.00  0.00    +0.000 C 
ATOM     12  C   UNL     1       9.751  11.177  19.167  0.00  0.00    +0.000 A 
ATOM     13  C   UNL     1      10.534  12.214  19.653  0.00  0.00    +0.000 A 
ATOM     14  N   UNL     1      10.132  13.394  19.151  0.00  0.00    +0.000 NA
ATOM     15  N   UNL     1       9.085  13.081  18.342  0.00  0.00    +0.000 N 
ATOM     16  C   UNL     1       8.373  14.127  17.655  0.00  0.00    +0.000 C 
ATOM     17  C   UNL     1       8.851  11.751  18.326  0.00  0.00    +0.000 A 
ATOM     18  C   UNL     1       7.925  10.810  17.691  0.00  0.00    +0.000 C 
ATOM     19  H   UNL     1       6.966   8.775  16.422  0.00  0.00    +0.000 HD
ENDBRANCH   5   7
BRANCH   1  21
ATOM     20  C   UNL     1       2.616   5.851  18.908  0.00  0.00    +0.000 C 
ATOM     21  C   UNL     1       2.983   5.146  17.601  0.00  0.00    +0.000 C 
BRANCH  21  22
ATOM     22  S   UNL     1       2.600   3.352  17.661  0.00  0.00    +0.000 S 
BRANCH  22  23
ATOM     23  C   UNL     1       3.335   2.887  19.148  0.00  0.00    +0.000 A 
ATOM     24  N   UNL     1       4.604   2.611  19.347  0.00  0.00    +0.000 NA
ATOM     25  N   UNL     1       4.733   2.152  20.640  0.00  0.00    +0.000 NA
ATOM     26  C   UNL     1       3.542   2.189  21.193  0.00  0.00    +0.000 A 
ATOM     27  N   UNL     1       2.637   2.682  20.301  0.00  0.00    +0.000 N 
ATOM     28  C   UNL     1       1.239   2.907  20.548  0.00  0.00    +0.000 C 
ENDBRANCH  22  23
ENDBRANCH  21  22
ENDBRANCH   1  21
TORSDOF 4
ENDMDL
MODEL 5
REMARK VINA RESULT:      -7.7      5.008      7.842
REMARK  Name = 
REMARK  7 active torsions:
REMARK  status: ('A' for Active; 'I' for Inactive)
REMARK    1  A    between atoms: C_1  and  C_2
REMARK    2  A    between atoms: C_2  and  S_3
REMARK    3  A    between atoms: C_2  and  C_10
REMARK    4  A    between atoms: S_3  and  C_4
REMARK    5  A    between atoms: N_8  and  C_9
REMARK    6  A    between atoms: C_14  and  N_15
REMARK    7  A    between atoms: N_23  and  C_24
REMARK                            x       y       z     vdW  Elec       q    Type
REMARK                         _______ _______ _______ _____ _____    ______ ____
ROOT
ATOM      1  C   UNL     1       4.535   5.573  17.778  0.00  0.00    +0.000 A 
ATOM      2  C   UNL     1       4.612   4.373  18.503  0.00  0.00    +0.000 A 
ATOM      3  C   UNL     1       3.787   4.155  19.601  0.00  0.00    +0.000 A 
ATOM      4  C   UNL     1       2.883   5.138  20.004  0.00  0.00    +0.000 A 
ATOM      5  C   UNL     1       2.810   6.362  19.335  0.00  0.00    +0.000 A 
ATOM      6  C   UNL     1       3.620   6.560  18.206  0.00  0.00    +0.000 A 
ENDROOT
BRANCH   5   7
ATOM      7  N   UNL     1       1.950   7.415  19.751  0.00  0.00    +0.000 N 
ATOM      8  C   UNL     1       1.658   8.528  18.992  0.00  0.00    +0.000 C 
ATOM      9  O   UNL     1       2.060   8.711  17.844  0.00  0.00    +0.000 OA
ATOM     10  N   UNL     1       0.847   9.468  19.582  0.00  0.00    +0.000 N 
ATOM     11  C   UNL     1       0.459  10.637  18.738  0.00  0.00    +0.000 C 
ATOM     12  C   UNL     1      -0.345  11.400  19.688  0.00  0.00    +0.000 A 
ATOM     13  C   UNL     1      -1.116  12.548  19.804  0.00  0.00    +0.000 A 
ATOM     14  N   UNL     1      -1.595  12.680  21.053  0.00  0.00    +0.000 NA
ATOM     15  N   UNL     1      -1.113  11.597  21.719  0.00  0.00    +0.000 N 
ATOM     16  C   UNL     1      -1.403  11.430  23.119  0.00  0.00    +0.000 C 
ATOM     17  C   UNL     1      -0.372  10.808  20.911  0.00  0.00    +0.000 A 
ATOM     18  C   UNL     1       0.384   9.556  20.998  0.00  0.00    +0.000 C 
ATOM     19  H   UNL     1       1.308   7.196  20.497  0.00  0.00    +0.000 HD
ENDBRANCH   5   7
BRANCH   1  21
ATOM     20  C   UNL     1       4.992   6.840  15.573  0.00  0.00    +0.000 C 
ATOM     21  C   UNL     1       5.422   5.745  16.551  0.00  0.00    +0.000 C 
BRANCH  21  22
ATOM     22  S   UNL     1       5.752   4.155  15.694  0.00  0.00    +0.000 S 
BRANCH  22  23
ATOM     23  C   UNL     1       6.825   4.651  14.439  0.00  0.00    +0.000 A 
ATOM     24  N   UNL     1       7.838   5.479  14.551  0.00  0.00    +0.000 NA
ATOM     25  N   UNL     1       8.335   5.703  13.285  0.00  0.00    +0.000 NA
ATOM     26  C   UNL     1       7.624   4.981  12.449  0.00  0.00    +0.000 A 
ATOM     27  N   UNL     1       6.685   4.272  13.137  0.00  0.00    +0.000 N 
ATOM     28  C   UNL     1       5.744   3.342  12.575  0.00  0.00    +0.000 C 
ENDBRANCH  22  23
ENDBRANCH  21  22
ENDBRANCH   1  21
TORSDOF 4
ENDMDL
MODEL 6
REMARK VINA RESULT:      -7.7      4.723      7.467
REMARK  Name = 
REMARK  7 active torsions:
REMARK  status: ('A' for Active; 'I' for Inactive)
REMARK    1  A    between atoms: C_1  and  C_2
REMARK    2  A    between atoms: C_2  and  S_3
REMARK    3  A    between atoms: C_2  and  C_10
REMARK    4  A    between atoms: S_3  and  C_4
REMARK    5  A    between atoms: N_8  and  C_9
REMARK    6  A    between atoms: C_14  and  N_15
REMARK    7  A    between atoms: N_23  and  C_24
REMARK                            x       y       z     vdW  Elec       q    Type
REMARK                         _______ _______ _______ _____ _____    ______ ____
ROOT
ATOM      1  C   UNL     1       5.342   4.917  19.047  0.00  0.00    +0.000 A 
ATOM      2  C   UNL     1       4.988   3.589  19.334  0.00  0.00    +0.000 A 
ATOM      3  C   UNL     1       3.735   3.287  19.857  0.00  0.00    +0.000 A 
ATOM      4  C   UNL     1       2.821   4.307  20.117  0.00  0.00    +0.000 A 
ATOM      5  C   UNL     1       3.153   5.644  19.887  0.00  0.00    +0.000 A 
ATOM      6  C   UNL     1       4.406   5.937  19.326  0.00  0.00    +0.000 A 
ENDROOT
BRANCH   5   7
ATOM      7  N   UNL     1       2.277   6.719  20.199  0.00  0.00    +0.000 N 
ATOM      8  C   UNL     1       2.022   7.784  19.362  0.00  0.00    +0.000 C 
ATOM      9  O   UNL     1       2.478   7.899  18.225  0.00  0.00    +0.000 OA
ATOM     10  N   UNL     1       1.187   8.757  19.855  0.00  0.00    +0.000 N 
ATOM     11  C   UNL     1       0.840   9.873  18.926  0.00  0.00    +0.000 C 
ATOM     12  C   UNL     1      -0.006  10.691  19.790  0.00  0.00    +0.000 A 
ATOM     13  C   UNL     1      -0.780  11.842  19.801  0.00  0.00    +0.000 A 
ATOM     14  N   UNL     1      -1.316  12.049  21.015  0.00  0.00    +0.000 NA
ATOM     15  N   UNL     1      -0.868  11.008  21.767  0.00  0.00    +0.000 N 
ATOM     16  C   UNL     1      -1.223  10.925  23.160  0.00  0.00    +0.000 C 
ATOM     17  C   UNL     1      -0.091  10.173  21.044  0.00  0.00    +0.000 A 
ATOM     18  C   UNL     1       0.658   8.929  21.240  0.00  0.00    +0.000 C 
ATOM     19  H   UNL     1       1.600   6.545  20.926  0.00  0.00    +0.000 HD
ENDBRANCH   5   7
BRANCH   1  21
ATOM     20  C   UNL     1       7.827   5.518  19.414  0.00  0.00    +0.000 C 
ATOM     21  C   UNL     1       6.706   5.193  18.426  0.00  0.00    +0.000 C 
BRANCH  21  22
ATOM     22  S   UNL     1       6.623   6.416  17.060  0.00  0.00    +0.000 S 
BRANCH  22  23
ATOM     23  C   UNL     1       6.677   5.395  15.673  0.00  0.00    +0.000 A 
ATOM     24  N   UNL     1       7.652   5.306  14.798  0.00  0.00    +0.000 NA
ATOM     25  N   UNL     1       7.227   4.479  13.781  0.00  0.00    +0.000 NA
ATOM     26  C   UNL     1       6.015   4.072  14.085  0.00  0.00    +0.000 A 
ATOM     27  N   UNL     1       5.643   4.593  15.288  0.00  0.00    +0.000 N 
ATOM     28  C   UNL     1       4.404   4.347  15.973  0.00  0.00    +0.000 C 
ENDBRANCH  22  23
ENDBRANCH  21  22
ENDBRANCH   1  21
TORSDOF 4
ENDMDL
MODEL 7
REMARK VINA RESULT:      -7.7      0.785      1.181
REMARK  Name = 
REMARK  7 active torsions:
REMARK  status: ('A' for Active; 'I' for Inactive)
REMARK    1  A    between atoms: C_1  and  C_2
REMARK    2  A    between atoms: C_2  and  S_3
REMARK    3  A    between atoms: C_2  and  C_10
REMARK    4  A    between atoms: S_3  and  C_4
REMARK    5  A    between atoms: N_8  and  C_9
REMARK    6  A    between atoms: C_14  and  N_15
REMARK    7  A    between atoms: N_23  and  C_24
REMARK                            x       y       z     vdW  Elec       q    Type
REMARK                         _______ _______ _______ _____ _____    ______ ____
ROOT
ATOM      1  C   UNL     1       4.879   5.054  17.345  0.00  0.00    +0.000 A 
ATOM      2  C   UNL     1       5.387   4.238  16.321  0.00  0.00    +0.000 A 
ATOM      3  C   UNL     1       6.510   4.626  15.597  0.00  0.00    +0.000 A 
ATOM      4  C   UNL     1       7.134   5.842  15.871  0.00  0.00    +0.000 A 
ATOM      5  C   UNL     1       6.632   6.701  16.851  0.00  0.00    +0.000 A 
ATOM      6  C   UNL     1       5.521   6.286  17.602  0.00  0.00    +0.000 A 
ENDROOT
BRANCH   5   7
ATOM      7  N   UNL     1       7.198   7.977  17.119  0.00  0.00    +0.000 N 
ATOM      8  C   UNL     1       8.102   8.232  18.128  0.00  0.00    +0.000 C 
ATOM      9  O   UNL     1       8.568   7.374  18.877  0.00  0.00    +0.000 OA
ATOM     10  N   UNL     1       8.500   9.540  18.269  0.00  0.00    +0.000 N 
ATOM     11  C   UNL     1       9.540   9.812  19.305  0.00  0.00    +0.000 C 
ATOM     12  C   UNL     1       9.671  11.261  19.182  0.00  0.00    +0.000 A 
ATOM     13  C   UNL     1      10.380  12.347  19.674  0.00  0.00    +0.000 A 
ATOM     14  N   UNL     1       9.964  13.490  19.103  0.00  0.00    +0.000 NA
ATOM     15  N   UNL     1       8.983  13.105  18.244  0.00  0.00    +0.000 N 
ATOM     16  C   UNL     1       8.275  14.094  17.475  0.00  0.00    +0.000 C 
ATOM     17  C   UNL     1       8.804  11.766  18.266  0.00  0.00    +0.000 A 
ATOM     18  C   UNL     1       7.958  10.764  17.611  0.00  0.00    +0.000 C 
ATOM     19  H   UNL     1       7.163   8.647  16.366  0.00  0.00    +0.000 HD
ENDBRANCH   5   7
BRANCH   1  21
ATOM     20  C   UNL     1       3.194   5.502  19.250  0.00  0.00    +0.000 C 
ATOM     21  C   UNL     1       3.680   4.563  18.145  0.00  0.00    +0.000 C 
BRANCH  21  22
ATOM     22  S   UNL     1       3.897   2.845  18.755  0.00  0.00    +0.000 S 
BRANCH  22  23
ATOM     23  C   UNL     1       2.842   2.822  20.117  0.00  0.00    +0.000 A 
ATOM     24  N   UNL     1       3.190   2.855  21.384  0.00  0.00    +0.000 NA
ATOM     25  N   UNL     1       2.048   2.677  22.134  0.00  0.00    +0.000 NA
ATOM     26  C   UNL     1       1.040   2.568  21.299  0.00  0.00    +0.000 A 
ATOM     27  N   UNL     1       1.489   2.691  20.018  0.00  0.00    +0.000 N 
ATOM     28  C   UNL     1       0.681   2.664  18.830  0.00  0.00    +0.000 C 
ENDBRANCH  22  23
ENDBRANCH  21  22
ENDBRANCH   1  21
TORSDOF 4
ENDMDL
MODEL 8
REMARK VINA RESULT:      -7.6      5.198      7.858
REMARK  Name = 
REMARK  7 active torsions:
REMARK  status: ('A' for Active; 'I' for Inactive)
REMARK    1  A    between atoms: C_1  and  C_2
REMARK    2  A    between atoms: C_2  and  S_3
REMARK    3  A    between atoms: C_2  and  C_10
REMARK    4  A    between atoms: S_3  and  C_4
REMARK    5  A    between atoms: N_8  and  C_9
REMARK    6  A    between atoms: C_14  and  N_15
REMARK    7  A    between atoms: N_23  and  C_24
REMARK                            x       y       z     vdW  Elec       q    Type
REMARK                         _______ _______ _______ _____ _____    ______ ____
ROOT
ATOM      1  C   UNL     1       4.257   5.765  17.445  0.00  0.00    +0.000 A 
ATOM      2  C   UNL     1       3.925   4.497  17.947  0.00  0.00    +0.000 A 
ATOM      3  C   UNL     1       2.934   4.352  18.911  0.00  0.00    +0.000 A 
ATOM      4  C   UNL     1       2.268   5.475  19.403  0.00  0.00    +0.000 A 
ATOM      5  C   UNL     1       2.601   6.758  18.961  0.00  0.00    +0.000 A 
ATOM      6  C   UNL     1       3.577   6.890  17.961  0.00  0.00    +0.000 A 
ENDROOT
BRANCH   5   7
ATOM      7  N   UNL     1       1.993   7.932  19.482  0.00  0.00    +0.000 N 
ATOM      8  C   UNL     1       1.267   7.980  20.653  0.00  0.00    +0.000 C 
ATOM      9  O   UNL     1       1.110   7.025  21.412  0.00  0.00    +0.000 OA
ATOM     10  N   UNL     1       0.708   9.194  20.971  0.00  0.00    +0.000 N 
ATOM     11  C   UNL     1      -0.010   9.276  22.277  0.00  0.00    +0.000 C 
ATOM     12  C   UNL     1      -0.474  10.660  22.243  0.00  0.00    +0.000 A 
ATOM     13  C   UNL     1      -1.157  11.610  22.989  0.00  0.00    +0.000 A 
ATOM     14  N   UNL     1      -1.259  12.768  22.315  0.00  0.00    +0.000 NA
ATOM     15  N   UNL     1      -0.629  12.530  21.133  0.00  0.00    +0.000 N 
ATOM     16  C   UNL     1      -0.577  13.560  20.129  0.00  0.00    +0.000 C 
ATOM     17  C   UNL     1      -0.137  11.273  21.078  0.00  0.00    +0.000 A 
ATOM     18  C   UNL     1       0.611  10.431  20.142  0.00  0.00    +0.000 C 
ATOM     19  H   UNL     1       2.353   8.809  19.139  0.00  0.00    +0.000 HD
ENDBRANCH   5   7
BRANCH   1  21
ATOM     20  C   UNL     1       5.045   6.917  15.272  0.00  0.00    +0.000 C 
ATOM     21  C   UNL     1       5.312   5.867  16.351  0.00  0.00    +0.000 C 
BRANCH  21  22
ATOM     22  S   UNL     1       5.734   4.234  15.626  0.00  0.00    +0.000 S 
BRANCH  22  23
ATOM     23  C   UNL     1       6.831   4.680  14.375  0.00  0.00    +0.000 A 
ATOM     24  N   UNL     1       7.855   5.496  14.479  0.00  0.00    +0.000 NA
ATOM     25  N   UNL     1       8.373   5.678  13.215  0.00  0.00    +0.000 NA
ATOM     26  C   UNL     1       7.663   4.945  12.388  0.00  0.00    +0.000 A 
ATOM     27  N   UNL     1       6.704   4.268  13.081  0.00  0.00    +0.000 N 
ATOM     28  C   UNL     1       5.757   3.337  12.531  0.00  0.00    +0.000 C 
ENDBRANCH  22  23
ENDBRANCH  21  22
ENDBRANCH   1  21
TORSDOF 4
ENDMDL
MODEL 9
REMARK VINA RESULT:      -7.6      1.583      1.950
REMARK  Name = 
REMARK  7 active torsions:
REMARK  status: ('A' for Active; 'I' for Inactive)
REMARK    1  A    between atoms: C_1  and  C_2
REMARK    2  A    between atoms: C_2  and  S_3
REMARK    3  A    between atoms: C_2  and  C_10
REMARK    4  A    between atoms: S_3  and  C_4
REMARK    5  A    between atoms: N_8  and  C_9
REMARK    6  A    between atoms: C_14  and  N_15
REMARK    7  A    between atoms: N_23  and  C_24
REMARK                            x       y       z     vdW  Elec       q    Type
REMARK                         _______ _______ _______ _____ _____    ______ ____
ROOT
ATOM      1  C   UNL     1       5.111   4.043  16.769  0.00  0.00    +0.000 A 
ATOM      2  C   UNL     1       5.445   3.480  15.527  0.00  0.00    +0.000 A 
ATOM      3  C   UNL     1       6.381   4.093  14.700  0.00  0.00    +0.000 A 
ATOM      4  C   UNL     1       6.987   5.286  15.092  0.00  0.00    +0.000 A 
ATOM      5  C   UNL     1       6.647   5.900  16.300  0.00  0.00    +0.000 A 
ATOM      6  C   UNL     1       5.729   5.256  17.145  0.00  0.00    +0.000 A 
ENDROOT
BRANCH   5   7
ATOM      7  N   UNL     1       7.191   7.147  16.708  0.00  0.00    +0.000 N 
ATOM      8  C   UNL     1       7.852   7.357  17.899  0.00  0.00    +0.000 C 
ATOM      9  O   UNL     1       8.100   6.475  18.721  0.00  0.00    +0.000 OA
ATOM     10  N   UNL     1       8.263   8.645  18.147  0.00  0.00    +0.000 N 
ATOM     11  C   UNL     1       9.052   8.865  19.396  0.00  0.00    +0.000 C 
ATOM     12  C   UNL     1       9.268  10.307  19.327  0.00  0.00    +0.000 A 
ATOM     13  C   UNL     1       9.892  11.358  19.984  0.00  0.00    +0.000 A 
ATOM     14  N   UNL     1       9.664  12.522  19.352  0.00  0.00    +0.000 NA
ATOM     15  N   UNL     1       8.888  12.185  18.287  0.00  0.00    +0.000 N 
ATOM     16  C   UNL     1       8.415  13.209  17.393  0.00  0.00    +0.000 C 
ATOM     17  C   UNL     1       8.652  10.855  18.247  0.00  0.00    +0.000 A 
ATOM     18  C   UNL     1       7.935   9.896  17.403  0.00  0.00    +0.000 C 
ATOM     19  H   UNL     1       7.355   7.822  15.977  0.00  0.00    +0.000 HD
ENDBRANCH   5   7
BRANCH   1  21
ATOM     20  C   UNL     1       2.646   3.472  17.290  0.00  0.00    +0.000 C 
ATOM     21  C   UNL     1       4.121   3.307  17.663  0.00  0.00    +0.000 C 
BRANCH  21  22
ATOM     22  S   UNL     1       4.413   3.623  19.447  0.00  0.00    +0.000 S 
BRANCH  22  23
ATOM     23  C   UNL     1       3.250   4.849  19.782  0.00  0.00    +0.000 A 
ATOM     24  N   UNL     1       3.273   6.093  19.360  0.00  0.00    +0.000 NA
ATOM     25  N   UNL     1       2.234   6.760  19.972  0.00  0.00    +0.000 NA
ATOM     26  C   UNL     1       1.598   5.892  20.725  0.00  0.00    +0.000 A 
ATOM     27  N   UNL     1       2.180   4.665  20.606  0.00  0.00    +0.000 N 
ATOM     28  C   UNL     1       1.746   3.454  21.247  0.00  0.00    +0.000 C 
ENDBRANCH  22  23
ENDBRANCH  21  22
ENDBRANCH   1  21
TORSDOF 4
ENDMDL
