MODEL 1
REMARK VINA RESULT:     -10.3      0.000      0.000
REMARK  Name = 
REMARK  8 active torsions:
REMARK  status: ('A' for Active; 'I' for Inactive)
REMARK    1  A    between atoms: C_1  and  N_2
REMARK    2  A    between atoms: C_6  and  C_7
REMARK    3  A    between atoms: C_7  and  C_8
REMARK    4  A    between atoms: C_8  and  C_9
REMARK    5  A    between atoms: C_13  and  N_14
REMARK    6  A    between atoms: C_19  and  C_20
REMARK    7  A    between atoms: C_20  and  N_21
REMARK    8  A    between atoms: C_32  and  C_33
REMARK                            x       y       z     vdW  Elec       q    Type
REMARK                         _______ _______ _______ _____ _____    ______ ____
ROOT
ATOM      1  N   UNL     1       2.241   7.291  19.233  0.00  0.00    +0.000 N 
ATOM      2  C   UNL     1       1.535   7.650  20.444  0.00  0.00    +0.000 C 
ATOM      3  C   UNL     1       1.094   9.045  20.213  0.00  0.00    +0.000 A 
ATOM      4  C   UNL     1       1.423   9.432  18.920  0.00  0.00    +0.000 A 
ATOM      5  C   UNL     1       1.104  10.689  18.440  0.00  0.00    +0.000 A 
ATOM      6  C   UNL     1       0.464  11.588  19.316  0.00  0.00    +0.000 A 
ATOM      7  C   UNL     1       0.169  11.192  20.646  0.00  0.00    +0.000 A 
ATOM      8  C   UNL     1       0.475   9.904  21.112  0.00  0.00    +0.000 A 
ATOM      9  C   UNL     1       2.163   8.317  18.285  0.00  0.00    +0.000 C 
ATOM     10  O   UNL     1       2.597   8.380  17.149  0.00  0.00    +0.000 OA
ENDROOT
BRANCH   1  15
ATOM     11  C   UNL     1       4.656   4.729  17.916  0.00  0.00    +0.000 A 
ATOM     12  C   UNL     1       4.445   3.706  18.852  0.00  0.00    +0.000 A 
ATOM     13  C   UNL     1       3.572   3.873  19.942  0.00  0.00    +0.000 A 
ATOM     14  C   UNL     1       2.857   5.052  20.121  0.00  0.00    +0.000 A 
ATOM     15  C   UNL     1       3.010   6.088  19.197  0.00  0.00    +0.000 A 
ATOM     16  C   UNL     1       3.927   5.911  18.145  0.00  0.00    +0.000 A 
BRANCH  11  17
ATOM     17  C   UNL     1       5.660   4.615  16.651  0.00  0.00    +0.000 C 
ATOM     18  C   UNL     1       5.321   5.528  15.442  0.00  0.00    +0.000 C 
ATOM     19  O   UNL     1       5.195   4.409  14.543  0.00  0.00    +0.000 OA
ATOM     20  C   UNL     1       5.406   3.472  15.620  0.00  0.00    +0.000 C 
BRANCH  17  21
ATOM     21  C   UNL     1       7.144   4.746  17.081  0.00  0.00    +0.000 C 
BRANCH  21  27
ATOM     22  C   UNL     1       8.093   5.713  19.917  0.00  0.00    +0.000 C 
ATOM     23  N   UNL     1       7.986   6.528  18.742  0.00  0.00    +0.000 N 
ATOM     24  C   UNL     1       8.253   7.849  18.651  0.00  0.00    +0.000 A 
ATOM     25  N   UNL     1       8.012   8.270  17.432  0.00  0.00    +0.000 NA
ATOM     26  N   UNL     1       7.570   7.198  16.695  0.00  0.00    +0.000 NA
ATOM     27  C   UNL     1       7.574   6.133  17.474  0.00  0.00    +0.000 A 
ENDBRANCH  21  27
ENDBRANCH  17  21
ENDBRANCH  11  17
ENDBRANCH   1  15
BRANCH   8  28
ATOM     28  C   UNL     1       0.147   9.493  22.526  0.00  0.00    +0.000 C 
ATOM     29  F   UNL     1      -0.416  10.480  23.275  0.00  0.00    +0.000 F 
ATOM     30  F   UNL     1      -0.719   8.445  22.572  0.00  0.00    +0.000 F 
ATOM     31  F   UNL     1       1.249   9.098  23.219  0.00  0.00    +0.000 F 
ENDBRANCH   8  28
BRANCH   6  32
ATOM     32  C   UNL     1      -0.026  12.927  18.819  0.00  0.00    +0.000 C 
BRANCH  32  33
ATOM     33  N   UNL     1       0.538  14.153  19.422  0.00  0.00    +0.000 NA
ATOM     34  C   UNL     1      -0.604  15.096  19.519  0.00  0.00    +0.000 C 
ATOM     35  C   UNL     1      -0.193  16.528  19.758  0.00  0.00    +0.000 C 
ATOM     36  C   UNL     1       0.566  16.925  18.538  0.00  0.00    +0.000 A 
ATOM     37  C   UNL     1       0.176  17.962  17.692  0.00  0.00    +0.000 A 
ATOM     38  C   UNL     1       1.050  18.392  16.702  0.00  0.00    +0.000 A 
ATOM     39  C   UNL     1       2.328  17.841  16.627  0.00  0.00    +0.000 A 
ATOM     40  C   UNL     1       2.643  16.702  17.376  0.00  0.00    +0.000 A 
ATOM     41  C   UNL     1       1.684  16.150  18.231  0.00  0.00    +0.000 A 
ATOM     42  C   UNL     1       1.749  14.707  18.736  0.00  0.00    +0.000 C 
ENDBRANCH  32  33
ENDBRANCH   6  32
TORSDOF 7
ENDMDL
MODEL 2
REMARK VINA RESULT:     -10.3      1.636      2.715
REMARK  Name = 
REMARK  8 active torsions:
REMARK  status: ('A' for Active; 'I' for Inactive)
REMARK    1  A    between atoms: C_1  and  N_2
REMARK    2  A    between atoms: C_6  and  C_7
REMARK    3  A    between atoms: C_7  and  C_8
REMARK    4  A    between atoms: C_8  and  C_9
REMARK    5  A    between atoms: C_13  and  N_14
REMARK    6  A    between atoms: C_19  and  C_20
REMARK    7  A    between atoms: C_20  and  N_21
REMARK    8  A    between atoms: C_32  and  C_33
REMARK                            x       y       z     vdW  Elec       q    Type
REMARK                         _______ _______ _______ _____ _____    ______ ____
ROOT
ATOM      1  N   UNL     1       2.233   7.409  19.474  0.00  0.00    +0.000 N 
ATOM      2  C   UNL     1       1.458   7.710  20.659  0.00  0.00    +0.000 C 
ATOM      3  C   UNL     1       0.915   9.064  20.408  0.00  0.00    +0.000 A 
ATOM      4  C   UNL     1       1.257   9.477  19.126  0.00  0.00    +0.000 A 
ATOM      5  C   UNL     1       0.855  10.704  18.633  0.00  0.00    +0.000 A 
ATOM      6  C   UNL     1       0.115  11.549  19.483  0.00  0.00    +0.000 A 
ATOM      7  C   UNL     1      -0.194  11.130  20.802  0.00  0.00    +0.000 A 
ATOM      8  C   UNL     1       0.197   9.871  21.282  0.00  0.00    +0.000 A 
ATOM      9  C   UNL     1       2.107   8.425  18.521  0.00  0.00    +0.000 C 
ATOM     10  O   UNL     1       2.575   8.524  17.401  0.00  0.00    +0.000 OA
ENDROOT
BRANCH   1  15
ATOM     11  C   UNL     1       5.322   5.373  18.800  0.00  0.00    +0.000 A 
ATOM     12  C   UNL     1       4.856   4.108  19.187  0.00  0.00    +0.000 A 
ATOM     13  C   UNL     1       3.570   3.929  19.727  0.00  0.00    +0.000 A 
ATOM     14  C   UNL     1       2.692   4.998  19.870  0.00  0.00    +0.000 A 
ATOM     15  C   UNL     1       3.098   6.272  19.468  0.00  0.00    +0.000 A 
ATOM     16  C   UNL     1       4.408   6.428  18.979  0.00  0.00    +0.000 A 
BRANCH  11  17
ATOM     17  C   UNL     1       6.795   5.657  18.193  0.00  0.00    +0.000 C 
ATOM     18  C   UNL     1       7.871   6.096  19.223  0.00  0.00    +0.000 C 
ATOM     19  O   UNL     1       8.121   7.338  18.538  0.00  0.00    +0.000 OA
ATOM     20  C   UNL     1       7.072   7.067  17.585  0.00  0.00    +0.000 C 
BRANCH  17  21
ATOM     21  C   UNL     1       7.285   4.488  17.302  0.00  0.00    +0.000 C 
BRANCH  21  27
ATOM     22  C   UNL     1       4.715   3.425  15.836  0.00  0.00    +0.000 C 
ATOM     23  N   UNL     1       5.803   4.130  15.223  0.00  0.00    +0.000 N 
ATOM     24  C   UNL     1       5.925   4.443  13.915  0.00  0.00    +0.000 A 
ATOM     25  N   UNL     1       7.063   5.059  13.707  0.00  0.00    +0.000 NA
ATOM     26  N   UNL     1       7.717   5.155  14.911  0.00  0.00    +0.000 NA
ATOM     27  C   UNL     1       6.950   4.617  15.840  0.00  0.00    +0.000 A 
ENDBRANCH  21  27
ENDBRANCH  17  21
ENDBRANCH  11  17
ENDBRANCH   1  15
BRANCH   8  28
ATOM     28  C   UNL     1      -0.146   9.434  22.685  0.00  0.00    +0.000 C 
ATOM     29  F   UNL     1      -0.872   8.284  22.746  0.00  0.00    +0.000 F 
ATOM     30  F   UNL     1       0.961   9.221  23.445  0.00  0.00    +0.000 F 
ATOM     31  F   UNL     1      -0.885  10.362  23.350  0.00  0.00    +0.000 F 
ENDBRANCH   8  28
BRANCH   6  32
ATOM     32  C   UNL     1      -0.464  12.844  18.965  0.00  0.00    +0.000 C 
BRANCH  32  33
ATOM     33  N   UNL     1       0.020  14.114  19.545  0.00  0.00    +0.000 NA
ATOM     34  C   UNL     1      -0.048  15.097  18.435  0.00  0.00    +0.000 C 
ATOM     35  C   UNL     1       0.739  16.359  18.689  0.00  0.00    +0.000 C 
ATOM     36  C   UNL     1       2.163  15.923  18.763  0.00  0.00    +0.000 A 
ATOM     37  C   UNL     1       3.152  16.370  17.891  0.00  0.00    +0.000 A 
ATOM     38  C   UNL     1       4.481  16.071  18.163  0.00  0.00    +0.000 A 
ATOM     39  C   UNL     1       4.807  15.408  19.345  0.00  0.00    +0.000 A 
ATOM     40  C   UNL     1       3.797  14.832  20.125  0.00  0.00    +0.000 A 
ATOM     41  C   UNL     1       2.461  14.967  19.735  0.00  0.00    +0.000 A 
ATOM     42  C   UNL     1       1.350  14.040  20.233  0.00  0.00    +0.000 C 
ENDBRANCH  32  33
ENDBRANCH   6  32
TORSDOF 7
ENDMDL
MODEL 3
REMARK VINA RESULT:     -10.2      1.936      3.109
REMARK  Name = 
REMARK  8 active torsions:
REMARK  status: ('A' for Active; 'I' for Inactive)
REMARK    1  A    between atoms: C_1  and  N_2
REMARK    2  A    between atoms: C_6  and  C_7
REMARK    3  A    between atoms: C_7  and  C_8
REMARK    4  A    between atoms: C_8  and  C_9
REMARK    5  A    between atoms: C_13  and  N_14
REMARK    6  A    between atoms: C_19  and  C_20
REMARK    7  A    between atoms: C_20  and  N_21
REMARK    8  A    between atoms: C_32  and  C_33
REMARK                            x       y       z     vdW  Elec       q    Type
REMARK                         _______ _______ _______ _____ _____    ______ ____
ROOT
ATOM      1  N   UNL     1       2.284   7.334  19.413  0.00  0.00    +0.000 N 
ATOM      2  C   UNL     1       1.546   7.713  20.599  0.00  0.00    +0.000 C 
ATOM      3  C   UNL     1       0.982   9.043  20.271  0.00  0.00    +0.000 A 
ATOM      4  C   UNL     1       1.279   9.365  18.952  0.00  0.00    +0.000 A 
ATOM      5  C   UNL     1       0.850  10.551  18.386  0.00  0.00    +0.000 A 
ATOM      6  C   UNL     1       0.131  11.450  19.198  0.00  0.00    +0.000 A 
ATOM      7  C   UNL     1      -0.132  11.124  20.554  0.00  0.00    +0.000 A 
ATOM      8  C   UNL     1       0.286   9.905  21.109  0.00  0.00    +0.000 A 
ATOM      9  C   UNL     1       2.118   8.279  18.395  0.00  0.00    +0.000 C 
ATOM     10  O   UNL     1       2.548   8.300  17.256  0.00  0.00    +0.000 OA
ENDROOT
BRANCH   1  15
ATOM     11  C   UNL     1       5.401   5.305  18.859  0.00  0.00    +0.000 A 
ATOM     12  C   UNL     1       4.939   4.049  19.281  0.00  0.00    +0.000 A 
ATOM     13  C   UNL     1       3.646   3.876  19.804  0.00  0.00    +0.000 A 
ATOM     14  C   UNL     1       2.756   4.941  19.897  0.00  0.00    +0.000 A 
ATOM     15  C   UNL     1       3.158   6.205  19.460  0.00  0.00    +0.000 A 
ATOM     16  C   UNL     1       4.475   6.357  18.988  0.00  0.00    +0.000 A 
BRANCH  11  17
ATOM     17  C   UNL     1       6.882   5.581  18.268  0.00  0.00    +0.000 C 
ATOM     18  C   UNL     1       7.963   5.958  19.317  0.00  0.00    +0.000 C 
ATOM     19  O   UNL     1       8.240   7.220  18.681  0.00  0.00    +0.000 OA
ATOM     20  C   UNL     1       7.190   7.007  17.715  0.00  0.00    +0.000 C 
BRANCH  17  21
ATOM     21  C   UNL     1       7.351   4.438  17.333  0.00  0.00    +0.000 C 
BRANCH  21  27
ATOM     22  C   UNL     1       4.731   3.413  15.930  0.00  0.00    +0.000 C 
ATOM     23  N   UNL     1       5.801   4.129  15.297  0.00  0.00    +0.000 N 
ATOM     24  C   UNL     1       5.881   4.470  13.993  0.00  0.00    +0.000 A 
ATOM     25  N   UNL     1       7.014   5.088  13.761  0.00  0.00    +0.000 NA
ATOM     26  N   UNL     1       7.707   5.156  14.945  0.00  0.00    +0.000 NA
ATOM     27  C   UNL     1       6.969   4.599  15.887  0.00  0.00    +0.000 A 
ENDBRANCH  21  27
ENDBRANCH  17  21
ENDBRANCH  11  17
ENDBRANCH   1  15
BRANCH   8  28
ATOM     28  C   UNL     1      -0.007   9.567  22.550  0.00  0.00    +0.000 C 
ATOM     29  F   UNL     1      -0.598  10.575  23.247  0.00  0.00    +0.000 F 
ATOM     30  F   UNL     1      -0.832   8.492  22.671  0.00  0.00    +0.000 F 
ATOM     31  F   UNL     1       1.118   9.257  23.248  0.00  0.00    +0.000 F 
ENDBRANCH   8  28
BRANCH   6  32
ATOM     32  C   UNL     1      -0.476  12.701  18.609  0.00  0.00    +0.000 C 
BRANCH  32  33
ATOM     33  N   UNL     1       0.360  13.915  18.520  0.00  0.00    +0.000 NA
ATOM     34  C   UNL     1       1.730  13.421  18.230  0.00  0.00    +0.000 C 
ATOM     35  C   UNL     1       2.810  14.448  18.463  0.00  0.00    +0.000 C 
ATOM     36  C   UNL     1       2.776  14.726  19.927  0.00  0.00    +0.000 A 
ATOM     37  C   UNL     1       3.852  14.492  20.781  0.00  0.00    +0.000 A 
ATOM     38  C   UNL     1       3.799  14.971  22.084  0.00  0.00    +0.000 A 
ATOM     39  C   UNL     1       2.714  15.749  22.485  0.00  0.00    +0.000 A 
ATOM     40  C   UNL     1       1.579  15.840  21.671  0.00  0.00    +0.000 A 
ATOM     41  C   UNL     1       1.561  15.184  20.436  0.00  0.00    +0.000 A 
ATOM     42  C   UNL     1       0.267  14.846  19.691  0.00  0.00    +0.000 C 
ENDBRANCH  32  33
ENDBRANCH   6  32
TORSDOF 7
ENDMDL
MODEL 4
REMARK VINA RESULT:     -10.2      5.160     11.703
REMARK  Name = 
REMARK  8 active torsions:
REMARK  status: ('A' for Active; 'I' for Inactive)
REMARK    1  A    between atoms: C_1  and  N_2
REMARK    2  A    between atoms: C_6  and  C_7
REMARK    3  A    between atoms: C_7  and  C_8
REMARK    4  A    between atoms: C_8  and  C_9
REMARK    5  A    between atoms: C_13  and  N_14
REMARK    6  A    between atoms: C_19  and  C_20
REMARK    7  A    between atoms: C_20  and  N_21
REMARK    8  A    between atoms: C_32  and  C_33
REMARK                            x       y       z     vdW  Elec       q    Type
REMARK                         _______ _______ _______ _____ _____    ______ ____
ROOT
ATOM      1  N   UNL     1      -1.797  12.021  20.917  0.00  0.00    +0.000 N 
ATOM      2  C   UNL     1      -2.417  11.509  19.713  0.00  0.00    +0.000 C 
ATOM      3  C   UNL     1      -1.343  10.737  19.048  0.00  0.00    +0.000 A 
ATOM      4  C   UNL     1      -0.215  10.710  19.857  0.00  0.00    +0.000 A 
ATOM      5  C   UNL     1       0.930  10.035  19.476  0.00  0.00    +0.000 A 
ATOM      6  C   UNL     1       0.936   9.401  18.217  0.00  0.00    +0.000 A 
ATOM      7  C   UNL     1      -0.210   9.470  17.385  0.00  0.00    +0.000 A 
ATOM      8  C   UNL     1      -1.375  10.136  17.796  0.00  0.00    +0.000 A 
ATOM      9  C   UNL     1      -0.494  11.535  21.055  0.00  0.00    +0.000 C 
ATOM     10  O   UNL     1       0.328  11.710  21.937  0.00  0.00    +0.000 OA
ENDROOT
BRANCH   1  15
ATOM     11  C   UNL     1      -4.668  13.798  22.571  0.00  0.00    +0.000 A 
ATOM     12  C   UNL     1      -4.007  14.957  23.004  0.00  0.00    +0.000 A 
ATOM     13  C   UNL     1      -2.624  15.130  22.819  0.00  0.00    +0.000 A 
ATOM     14  C   UNL     1      -1.857  14.169  22.169  0.00  0.00    +0.000 A 
ATOM     15  C   UNL     1      -2.476  13.012  21.690  0.00  0.00    +0.000 A 
ATOM     16  C   UNL     1      -3.851  12.845  21.935  0.00  0.00    +0.000 A 
BRANCH  11  17
ATOM     17  C   UNL     1      -6.250  13.523  22.770  0.00  0.00    +0.000 C 
ATOM     18  C   UNL     1      -6.999  14.534  23.680  0.00  0.00    +0.000 C 
ATOM     19  O   UNL     1      -7.422  13.505  24.594  0.00  0.00    +0.000 OA
ATOM     20  C   UNL     1      -6.679  12.503  23.870  0.00  0.00    +0.000 C 
BRANCH  17  21
ATOM     21  C   UNL     1      -6.972  13.315  21.414  0.00  0.00    +0.000 C 
BRANCH  21  27
ATOM     22  C   UNL     1      -5.863  12.108  18.732  0.00  0.00    +0.000 C 
ATOM     23  N   UNL     1      -6.562  11.385  19.755  0.00  0.00    +0.000 N 
ATOM     24  C   UNL     1      -6.882  10.073  19.739  0.00  0.00    +0.000 A 
ATOM     25  N   UNL     1      -7.550   9.762  20.824  0.00  0.00    +0.000 NA
ATOM     26  N   UNL     1      -7.679  10.902  21.580  0.00  0.00    +0.000 NA
ATOM     27  C   UNL     1      -7.062  11.885  20.952  0.00  0.00    +0.000 A 
ENDBRANCH  21  27
ENDBRANCH  17  21
ENDBRANCH  11  17
ENDBRANCH   1  15
BRANCH   8  28
ATOM     28  C   UNL     1      -2.591  10.193  16.904  0.00  0.00    +0.000 C 
ATOM     29  F   UNL     1      -2.434   9.563  15.708  0.00  0.00    +0.000 F 
ATOM     30  F   UNL     1      -3.685   9.631  17.485  0.00  0.00    +0.000 F 
ATOM     31  F   UNL     1      -2.946  11.469  16.595  0.00  0.00    +0.000 F 
ENDBRANCH   8  28
BRANCH   6  32
ATOM     32  C   UNL     1       2.104   8.541  17.796  0.00  0.00    +0.000 C 
BRANCH  32  33
ATOM     33  N   UNL     1       2.783   7.723  18.822  0.00  0.00    +0.000 NA
ATOM     34  C   UNL     1       3.722   6.857  18.066  0.00  0.00    +0.000 C 
ATOM     35  C   UNL     1       4.248   5.689  18.863  0.00  0.00    +0.000 C 
ATOM     36  C   UNL     1       3.054   4.844  19.154  0.00  0.00    +0.000 A 
ATOM     37  C   UNL     1       2.918   3.527  18.721  0.00  0.00    +0.000 A 
ATOM     38  C   UNL     1       1.871   2.758  19.211  0.00  0.00    +0.000 A 
ATOM     39  C   UNL     1       1.031   3.287  20.189  0.00  0.00    +0.000 A 
ATOM     40  C   UNL     1       1.084   4.652  20.495  0.00  0.00    +0.000 A 
ATOM     41  C   UNL     1       2.016   5.468  19.846  0.00  0.00    +0.000 A 
ATOM     42  C   UNL     1       1.875   6.990  19.762  0.00  0.00    +0.000 C 
ENDBRANCH  32  33
ENDBRANCH   6  32
TORSDOF 7
ENDMDL
MODEL 5
REMARK VINA RESULT:     -10.0      1.428      2.397
REMARK  Name = 
REMARK  8 active torsions:
REMARK  status: ('A' for Active; 'I' for Inactive)
REMARK    1  A    between atoms: C_1  and  N_2
REMARK    2  A    between atoms: C_6  and  C_7
REMARK    3  A    between atoms: C_7  and  C_8
REMARK    4  A    between atoms: C_8  and  C_9
REMARK    5  A    between atoms: C_13  and  N_14
REMARK    6  A    between atoms: C_19  and  C_20
REMARK    7  A    between atoms: C_20  and  N_21
REMARK    8  A    between atoms: C_32  and  C_33
REMARK                            x       y       z     vdW  Elec       q    Type
REMARK                         _______ _______ _______ _____ _____    ______ ____
ROOT
ATOM      1  N   UNL     1       2.024   7.477  19.410  0.00  0.00    +0.000 N 
ATOM      2  C   UNL     1       1.316   7.817  20.626  0.00  0.00    +0.000 C 
ATOM      3  C   UNL     1       0.860   9.209  20.409  0.00  0.00    +0.000 A 
ATOM      4  C   UNL     1       1.183   9.611  19.119  0.00  0.00    +0.000 A 
ATOM      5  C   UNL     1       0.849  10.869  18.652  0.00  0.00    +0.000 A 
ATOM      6  C   UNL     1       0.202  11.754  19.538  0.00  0.00    +0.000 A 
ATOM      7  C   UNL     1      -0.087  11.342  20.864  0.00  0.00    +0.000 A 
ATOM      8  C   UNL     1       0.233  10.053  21.317  0.00  0.00    +0.000 A 
ATOM      9  C   UNL     1       1.934   8.511  18.472  0.00  0.00    +0.000 C 
ATOM     10  O   UNL     1       2.365   8.589  17.336  0.00  0.00    +0.000 OA
ENDROOT
BRANCH   1  15
ATOM     11  C   UNL     1       4.717   5.110  18.278  0.00  0.00    +0.000 A 
ATOM     12  C   UNL     1       4.328   3.960  18.981  0.00  0.00    +0.000 A 
ATOM     13  C   UNL     1       3.237   3.973  19.869  0.00  0.00    +0.000 A 
ATOM     14  C   UNL     1       2.477   5.121  20.064  0.00  0.00    +0.000 A 
ATOM     15  C   UNL     1       2.806   6.283  19.361  0.00  0.00    +0.000 A 
ATOM     16  C   UNL     1       3.933   6.253  18.519  0.00  0.00    +0.000 A 
BRANCH  11  17
ATOM     17  C   UNL     1       5.973   5.175  17.259  0.00  0.00    +0.000 C 
ATOM     18  C   UNL     1       7.334   4.709  17.842  0.00  0.00    +0.000 C 
ATOM     19  O   UNL     1       7.960   5.980  17.580  0.00  0.00    +0.000 OA
ATOM     20  C   UNL     1       6.717   6.537  17.107  0.00  0.00    +0.000 C 
BRANCH  17  21
ATOM     21  C   UNL     1       5.652   4.487  15.908  0.00  0.00    +0.000 C 
BRANCH  21  27
ATOM     22  C   UNL     1       5.542   3.421  12.953  0.00  0.00    +0.000 C 
ATOM     23  N   UNL     1       6.517   4.330  13.485  0.00  0.00    +0.000 N 
ATOM     24  C   UNL     1       7.562   4.869  12.821  0.00  0.00    +0.000 A 
ATOM     25  N   UNL     1       8.262   5.628  13.630  0.00  0.00    +0.000 NA
ATOM     26  N   UNL     1       7.665   5.588  14.867  0.00  0.00    +0.000 NA
ATOM     27  C   UNL     1       6.592   4.823  14.782  0.00  0.00    +0.000 A 
ENDBRANCH  21  27
ENDBRANCH  17  21
ENDBRANCH  11  17
ENDBRANCH   1  15
BRANCH   8  28
ATOM     28  C   UNL     1      -0.087   9.624  22.728  0.00  0.00    +0.000 C 
ATOM     29  F   UNL     1      -0.887   8.525  22.806  0.00  0.00    +0.000 F 
ATOM     30  F   UNL     1       1.030   9.328  23.444  0.00  0.00    +0.000 F 
ATOM     31  F   UNL     1      -0.736  10.592  23.428  0.00  0.00    +0.000 F 
ENDBRANCH   8  28
BRANCH   6  32
ATOM     32  C   UNL     1      -0.304  13.092  19.054  0.00  0.00    +0.000 C 
BRANCH  32  33
ATOM     33  N   UNL     1       0.316  14.318  19.598  0.00  0.00    +0.000 NA
ATOM     34  C   UNL     1      -0.766  15.334  19.590  0.00  0.00    +0.000 C 
ATOM     35  C   UNL     1      -0.272  16.750  19.752  0.00  0.00    +0.000 C 
ATOM     36  C   UNL     1       0.551  17.018  18.538  0.00  0.00    +0.000 A 
ATOM     37  C   UNL     1       0.257  18.018  17.613  0.00  0.00    +0.000 A 
ATOM     38  C   UNL     1       1.189  18.327  16.631  0.00  0.00    +0.000 A 
ATOM     39  C   UNL     1       2.431  17.695  16.641  0.00  0.00    +0.000 A 
ATOM     40  C   UNL     1       2.648  16.590  17.473  0.00  0.00    +0.000 A 
ATOM     41  C   UNL     1       1.627  16.157  18.325  0.00  0.00    +0.000 A 
ATOM     42  C   UNL     1       1.583  14.749  18.924  0.00  0.00    +0.000 C 
ENDBRANCH  32  33
ENDBRANCH   6  32
TORSDOF 7
ENDMDL
MODEL 6
REMARK VINA RESULT:      -9.8      1.002      1.605
REMARK  Name = 
REMARK  8 active torsions:
REMARK  status: ('A' for Active; 'I' for Inactive)
REMARK    1  A    between atoms: C_1  and  N_2
REMARK    2  A    between atoms: C_6  and  C_7
REMARK    3  A    between atoms: C_7  and  C_8
REMARK    4  A    between atoms: C_8  and  C_9
REMARK    5  A    between atoms: C_13  and  N_14
REMARK    6  A    between atoms: C_19  and  C_20
REMARK    7  A    between atoms: C_20  and  N_21
REMARK    8  A    between atoms: C_32  and  C_33
REMARK                            x       y       z     vdW  Elec       q    Type
REMARK                         _______ _______ _______ _____ _____    ______ ____
ROOT
ATOM      1  N   UNL     1       2.153   7.378  19.267  0.00  0.00    +0.000 N 
ATOM      2  C   UNL     1       1.411   7.699  20.467  0.00  0.00    +0.000 C 
ATOM      3  C   UNL     1       1.000   9.109  20.278  0.00  0.00    +0.000 A 
ATOM      4  C   UNL     1       1.379   9.542  19.014  0.00  0.00    +0.000 A 
ATOM      5  C   UNL     1       1.097  10.823  18.576  0.00  0.00    +0.000 A 
ATOM      6  C   UNL     1       0.441  11.697  19.466  0.00  0.00    +0.000 A 
ATOM      7  C   UNL     1       0.094  11.252  20.767  0.00  0.00    +0.000 A 
ATOM      8  C   UNL     1       0.363   9.941  21.190  0.00  0.00    +0.000 A 
ATOM      9  C   UNL     1       2.124   8.442  18.360  0.00  0.00    +0.000 C 
ATOM     10  O   UNL     1       2.599   8.544  17.243  0.00  0.00    +0.000 OA
ENDROOT
BRANCH   1  15
ATOM     11  C   UNL     1       4.546   4.814  17.911  0.00  0.00    +0.000 A 
ATOM     12  C   UNL     1       4.307   3.770  18.816  0.00  0.00    +0.000 A 
ATOM     13  C   UNL     1       3.423   3.921  19.899  0.00  0.00    +0.000 A 
ATOM     14  C   UNL     1       2.724   5.106  20.101  0.00  0.00    +0.000 A 
ATOM     15  C   UNL     1       2.904   6.164  19.208  0.00  0.00    +0.000 A 
ATOM     16  C   UNL     1       3.832   6.001  18.163  0.00  0.00    +0.000 A 
BRANCH  11  17
ATOM     17  C   UNL     1       5.564   4.719  16.656  0.00  0.00    +0.000 C 
ATOM     18  C   UNL     1       5.258   5.674  15.471  0.00  0.00    +0.000 C 
ATOM     19  O   UNL     1       5.122   4.585  14.537  0.00  0.00    +0.000 OA
ATOM     20  C   UNL     1       5.301   3.613  15.588  0.00  0.00    +0.000 C 
BRANCH  17  21
ATOM     21  C   UNL     1       7.044   4.808  17.109  0.00  0.00    +0.000 C 
BRANCH  21  27
ATOM     22  C   UNL     1       8.148   5.716  19.908  0.00  0.00    +0.000 C 
ATOM     23  N   UNL     1       7.989   6.553  18.753  0.00  0.00    +0.000 N 
ATOM     24  C   UNL     1       8.266   7.872  18.670  0.00  0.00    +0.000 A 
ATOM     25  N   UNL     1       7.968   8.317  17.473  0.00  0.00    +0.000 NA
ATOM     26  N   UNL     1       7.477   7.262  16.742  0.00  0.00    +0.000 NA
ATOM     27  C   UNL     1       7.509   6.183  17.502  0.00  0.00    +0.000 A 
ENDBRANCH  21  27
ENDBRANCH  17  21
ENDBRANCH  11  17
ENDBRANCH   1  15
BRANCH   8  28
ATOM     28  C   UNL     1      -0.020   9.478  22.574  0.00  0.00    +0.000 C 
ATOM     29  F   UNL     1      -0.822   8.378  22.590  0.00  0.00    +0.000 F 
ATOM     30  F   UNL     1       1.064   9.163  23.332  0.00  0.00    +0.000 F 
ATOM     31  F   UNL     1      -0.699  10.430  23.269  0.00  0.00    +0.000 F 
ENDBRANCH   8  28
BRANCH   6  32
ATOM     32  C   UNL     1      -0.011  13.063  19.008  0.00  0.00    +0.000 C 
BRANCH  32  33
ATOM     33  N   UNL     1       0.497  14.251  19.725  0.00  0.00    +0.000 NA
ATOM     34  C   UNL     1       0.418  15.360  18.741  0.00  0.00    +0.000 C 
ATOM     35  C   UNL     1       1.223  16.575  19.128  0.00  0.00    +0.000 C 
ATOM     36  C   UNL     1       2.643  16.122  19.122  0.00  0.00    +0.000 A 
ATOM     37  C   UNL     1       3.621  16.662  18.290  0.00  0.00    +0.000 A 
ATOM     38  C   UNL     1       4.951  16.323  18.498  0.00  0.00    +0.000 A 
ATOM     39  C   UNL     1       5.292  15.521  19.586  0.00  0.00    +0.000 A 
ATOM     40  C   UNL     1       4.291  14.864  20.312  0.00  0.00    +0.000 A 
ATOM     41  C   UNL     1       2.949  15.055  19.967  0.00  0.00    +0.000 A 
ATOM     42  C   UNL     1       1.838  14.085  20.373  0.00  0.00    +0.000 C 
ENDBRANCH  32  33
ENDBRANCH   6  32
TORSDOF 7
ENDMDL
MODEL 7
REMARK VINA RESULT:      -9.8      1.799      2.818
REMARK  Name = 
REMARK  8 active torsions:
REMARK  status: ('A' for Active; 'I' for Inactive)
REMARK    1  A    between atoms: C_1  and  N_2
REMARK    2  A    between atoms: C_6  and  C_7
REMARK    3  A    between atoms: C_7  and  C_8
REMARK    4  A    between atoms: C_8  and  C_9
REMARK    5  A    between atoms: C_13  and  N_14
REMARK    6  A    between atoms: C_19  and  C_20
REMARK    7  A    between atoms: C_20  and  N_21
REMARK    8  A    between atoms: C_32  and  C_33
REMARK                            x       y       z     vdW  Elec       q    Type
REMARK                         _______ _______ _______ _____ _____    ______ ____
ROOT
ATOM      1  N   UNL     1       2.235   7.423  19.454  0.00  0.00    +0.000 N 
ATOM      2  C   UNL     1       1.465   7.749  20.636  0.00  0.00    +0.000 C 
ATOM      3  C   UNL     1       0.936   9.106  20.366  0.00  0.00    +0.000 A 
ATOM      4  C   UNL     1       1.282   9.496  19.079  0.00  0.00    +0.000 A 
ATOM      5  C   UNL     1       0.893  10.721  18.568  0.00  0.00    +0.000 A 
ATOM      6  C   UNL     1       0.163  11.586  19.408  0.00  0.00    +0.000 A 
ATOM      7  C   UNL     1      -0.149  11.189  20.733  0.00  0.00    +0.000 A 
ATOM      8  C   UNL     1       0.229   9.933  21.230  0.00  0.00    +0.000 A 
ATOM      9  C   UNL     1       2.118   8.427  18.487  0.00  0.00    +0.000 C 
ATOM     10  O   UNL     1       2.586   8.504  17.365  0.00  0.00    +0.000 OA
ENDROOT
BRANCH   1  15
ATOM     11  C   UNL     1       5.311   5.352  18.833  0.00  0.00    +0.000 A 
ATOM     12  C   UNL     1       4.825   4.093  19.213  0.00  0.00    +0.000 A 
ATOM     13  C   UNL     1       3.528   3.928  19.730  0.00  0.00    +0.000 A 
ATOM     14  C   UNL     1       2.659   5.006  19.858  0.00  0.00    +0.000 A 
ATOM     15  C   UNL     1       3.086   6.276  19.463  0.00  0.00    +0.000 A 
ATOM     16  C   UNL     1       4.406   6.418  18.997  0.00  0.00    +0.000 A 
BRANCH  11  17
ATOM     17  C   UNL     1       6.798   5.619  18.252  0.00  0.00    +0.000 C 
ATOM     18  C   UNL     1       7.869   6.013  19.305  0.00  0.00    +0.000 C 
ATOM     19  O   UNL     1       8.152   7.265  18.651  0.00  0.00    +0.000 OA
ATOM     20  C   UNL     1       7.111   7.036  17.678  0.00  0.00    +0.000 C 
BRANCH  17  21
ATOM     21  C   UNL     1       7.275   4.460  17.340  0.00  0.00    +0.000 C 
BRANCH  21  27
ATOM     22  C   UNL     1       4.684   3.450  15.877  0.00  0.00    +0.000 C 
ATOM     23  N   UNL     1       5.777   4.150  15.266  0.00  0.00    +0.000 N 
ATOM     24  C   UNL     1       5.895   4.478  13.961  0.00  0.00    +0.000 A 
ATOM     25  N   UNL     1       7.040   5.082  13.755  0.00  0.00    +0.000 NA
ATOM     26  N   UNL     1       7.703   5.153  14.956  0.00  0.00    +0.000 NA
ATOM     27  C   UNL     1       6.934   4.613  15.883  0.00  0.00    +0.000 A 
ENDBRANCH  21  27
ENDBRANCH  17  21
ENDBRANCH  11  17
ENDBRANCH   1  15
BRANCH   8  28
ATOM     28  C   UNL     1      -0.117   9.519  22.639  0.00  0.00    +0.000 C 
ATOM     29  F   UNL     1      -0.809  10.460  23.340  0.00  0.00    +0.000 F 
ATOM     30  F   UNL     1      -0.875   8.391  22.675  0.00  0.00    +0.000 F 
ATOM     31  F   UNL     1       0.988   9.253  23.387  0.00  0.00    +0.000 F 
ENDBRANCH   8  28
BRANCH   6  32
ATOM     32  C   UNL     1      -0.402  12.880  18.872  0.00  0.00    +0.000 C 
BRANCH  32  33
ATOM     33  N   UNL     1       0.525  14.003  18.620  0.00  0.00    +0.000 NA
ATOM     34  C   UNL     1       1.626  13.822  19.600  0.00  0.00    +0.000 C 
ATOM     35  C   UNL     1       2.490  15.046  19.777  0.00  0.00    +0.000 C 
ATOM     36  C   UNL     1       1.588  16.080  20.360  0.00  0.00    +0.000 A 
ATOM     37  C   UNL     1       1.795  16.670  21.605  0.00  0.00    +0.000 A 
ATOM     38  C   UNL     1       1.024  17.765  21.972  0.00  0.00    +0.000 A 
ATOM     39  C   UNL     1       0.121  18.306  21.058  0.00  0.00    +0.000 A 
ATOM     40  C   UNL     1      -0.185  17.612  19.882  0.00  0.00    +0.000 A 
ATOM     41  C   UNL     1       0.455  16.398  19.611  0.00  0.00    +0.000 A 
ATOM     42  C   UNL     1      -0.100  15.365  18.627  0.00  0.00    +0.000 C 
ENDBRANCH  32  33
ENDBRANCH   6  32
TORSDOF 7
ENDMDL
MODEL 8
REMARK VINA RESULT:      -9.8      4.810     11.634
REMARK  Name = 
REMARK  8 active torsions:
REMARK  status: ('A' for Active; 'I' for Inactive)
REMARK    1  A    between atoms: C_1  and  N_2
REMARK    2  A    between atoms: C_6  and  C_7
REMARK    3  A    between atoms: C_7  and  C_8
REMARK    4  A    between atoms: C_8  and  C_9
REMARK    5  A    between atoms: C_13  and  N_14
REMARK    6  A    between atoms: C_19  and  C_20
REMARK    7  A    between atoms: C_20  and  N_21
REMARK    8  A    between atoms: C_32  and  C_33
REMARK                            x       y       z     vdW  Elec       q    Type
REMARK                         _______ _______ _______ _____ _____    ______ ____
ROOT
ATOM      1  N   UNL     1      -3.171  11.494  18.481  0.00  0.00    +0.000 N 
ATOM      2  C   UNL     1      -2.103  12.214  19.141  0.00  0.00    +0.000 C 
ATOM      3  C   UNL     1      -0.895  11.397  18.882  0.00  0.00    +0.000 A 
ATOM      4  C   UNL     1      -1.216  10.339  18.041  0.00  0.00    +0.000 A 
ATOM      5  C   UNL     1      -0.258   9.432  17.626  0.00  0.00    +0.000 A 
ATOM      6  C   UNL     1       1.055   9.587  18.113  0.00  0.00    +0.000 A 
ATOM      7  C   UNL     1       1.359  10.649  19.002  0.00  0.00    +0.000 A 
ATOM      8  C   UNL     1       0.384  11.579  19.394  0.00  0.00    +0.000 A 
ATOM      9  C   UNL     1      -2.673  10.389  17.782  0.00  0.00    +0.000 C 
ATOM     10  O   UNL     1      -3.245   9.568  17.088  0.00  0.00    +0.000 OA
ENDROOT
BRANCH   1  15
ATOM     11  C   UNL     1      -6.170  12.705  20.397  0.00  0.00    +0.000 A 
ATOM     12  C   UNL     1      -7.169  12.465  19.442  0.00  0.00    +0.000 A 
ATOM     13  C   UNL     1      -6.862  11.976  18.160  0.00  0.00    +0.000 A 
ATOM     14  C   UNL     1      -5.554  11.679  17.795  0.00  0.00    +0.000 A 
ATOM     15  C   UNL     1      -4.527  11.870  18.722  0.00  0.00    +0.000 A 
ATOM     16  C   UNL     1      -4.860  12.408  19.979  0.00  0.00    +0.000 A 
BRANCH  11  17
ATOM     17  C   UNL     1      -6.448  13.286  21.882  0.00  0.00    +0.000 C 
ATOM     18  C   UNL     1      -5.406  12.890  22.962  0.00  0.00    +0.000 C 
ATOM     19  O   UNL     1      -6.401  12.257  23.790  0.00  0.00    +0.000 OA
ATOM     20  C   UNL     1      -7.426  12.493  22.802  0.00  0.00    +0.000 C 
BRANCH  17  21
ATOM     21  C   UNL     1      -6.713  14.813  21.860  0.00  0.00    +0.000 C 
BRANCH  21  27
ATOM     22  C   UNL     1      -3.858  16.032  21.370  0.00  0.00    +0.000 C 
ATOM     23  N   UNL     1      -4.623  16.140  22.578  0.00  0.00    +0.000 N 
ATOM     24  C   UNL     1      -4.248  16.762  23.717  0.00  0.00    +0.000 A 
ATOM     25  N   UNL     1      -5.183  16.631  24.627  0.00  0.00    +0.000 NA
ATOM     26  N   UNL     1      -6.207  15.898  24.077  0.00  0.00    +0.000 NA
ATOM     27  C   UNL     1      -5.887  15.617  22.827  0.00  0.00    +0.000 A 
ENDBRANCH  21  27
ENDBRANCH  17  21
ENDBRANCH  11  17
ENDBRANCH   1  15
BRANCH   8  28
ATOM     28  C   UNL     1       0.723  12.711  20.333  0.00  0.00    +0.000 C 
ATOM     29  F   UNL     1       0.029  12.688  21.504  0.00  0.00    +0.000 F 
ATOM     30  F   UNL     1       2.039  12.720  20.677  0.00  0.00    +0.000 F 
ATOM     31  F   UNL     1       0.470  13.930  19.787  0.00  0.00    +0.000 F 
ENDBRANCH   8  28
BRANCH   6  32
ATOM     32  C   UNL     1       2.173   8.711  17.600  0.00  0.00    +0.000 C 
BRANCH  32  33
ATOM     33  N   UNL     1       2.911   7.872  18.567  0.00  0.00    +0.000 NA
ATOM     34  C   UNL     1       3.687   6.917  17.736  0.00  0.00    +0.000 C 
ATOM     35  C   UNL     1       4.221   5.735  18.507  0.00  0.00    +0.000 C 
ATOM     36  C   UNL     1       3.015   4.992  18.969  0.00  0.00    +0.000 A 
ATOM     37  C   UNL     1       2.733   3.677  18.604  0.00  0.00    +0.000 A 
ATOM     38  C   UNL     1       1.702   3.003  19.243  0.00  0.00    +0.000 A 
ATOM     39  C   UNL     1       1.027   3.620  20.295  0.00  0.00    +0.000 A 
ATOM     40  C   UNL     1       1.214   4.985  20.542  0.00  0.00    +0.000 A 
ATOM     41  C   UNL     1       2.116   5.711  19.756  0.00  0.00    +0.000 A 
ATOM     42  C   UNL     1       2.075   7.236  19.635  0.00  0.00    +0.000 C 
ENDBRANCH  32  33
ENDBRANCH   6  32
TORSDOF 7
ENDMDL
MODEL 9
REMARK VINA RESULT:      -9.7      4.804     11.857
REMARK  Name = 
REMARK  8 active torsions:
REMARK  status: ('A' for Active; 'I' for Inactive)
REMARK    1  A    between atoms: C_1  and  N_2
REMARK    2  A    between atoms: C_6  and  C_7
REMARK    3  A    between atoms: C_7  and  C_8
REMARK    4  A    between atoms: C_8  and  C_9
REMARK    5  A    between atoms: C_13  and  N_14
REMARK    6  A    between atoms: C_19  and  C_20
REMARK    7  A    between atoms: C_20  and  N_21
REMARK    8  A    between atoms: C_32  and  C_33
REMARK                            x       y       z     vdW  Elec       q    Type
REMARK                         _______ _______ _______ _____ _____    ______ ____
ROOT
ATOM      1  N   UNL     1      -0.691  12.918  20.965  0.00  0.00    +0.000 N 
ATOM      2  C   UNL     1      -1.655  12.282  20.093  0.00  0.00    +0.000 C 
ATOM      3  C   UNL     1      -0.862  11.291  19.330  0.00  0.00    +0.000 A 
ATOM      4  C   UNL     1       0.445  11.274  19.801  0.00  0.00    +0.000 A 
ATOM      5  C   UNL     1       1.392  10.419  19.268  0.00  0.00    +0.000 A 
ATOM      6  C   UNL     1       1.004   9.584  18.202  0.00  0.00    +0.000 A 
ATOM      7  C   UNL     1      -0.324   9.639  17.707  0.00  0.00    +0.000 A 
ATOM      8  C   UNL     1      -1.283  10.493  18.274  0.00  0.00    +0.000 A 
ATOM      9  C   UNL     1       0.566  12.317  20.845  0.00  0.00    +0.000 C 
ATOM     10  O   UNL     1       1.612  12.546  21.426  0.00  0.00    +0.000 OA
ENDROOT
BRANCH   1  15
ATOM     11  C   UNL     1      -2.881  15.289  22.893  0.00  0.00    +0.000 A 
ATOM     12  C   UNL     1      -2.032  16.404  22.941  0.00  0.00    +0.000 A 
ATOM     13  C   UNL     1      -0.731  16.364  22.410  0.00  0.00    +0.000 A 
ATOM     14  C   UNL     1      -0.241  15.223  21.784  0.00  0.00    +0.000 A 
ATOM     15  C   UNL     1      -1.061  14.097  21.682  0.00  0.00    +0.000 A 
ATOM     16  C   UNL     1      -2.339  14.151  22.268  0.00  0.00    +0.000 A 
BRANCH  11  17
ATOM     17  C   UNL     1      -4.380  15.257  23.502  0.00  0.00    +0.000 C 
ATOM     18  C   UNL     1      -5.483  15.878  22.604  0.00  0.00    +0.000 C 
ATOM     19  O   UNL     1      -5.854  16.843  23.607  0.00  0.00    +0.000 OA
ATOM     20  C   UNL     1      -4.794  16.401  24.479  0.00  0.00    +0.000 C 
BRANCH  17  21
ATOM     21  C   UNL     1      -4.766  13.842  24.004  0.00  0.00    +0.000 C 
BRANCH  21  27
ATOM     22  C   UNL     1      -7.889  13.751  24.348  0.00  0.00    +0.000 C 
ATOM     23  N   UNL     1      -7.135  13.086  23.325  0.00  0.00    +0.000 N 
ATOM     24  C   UNL     1      -7.626  12.293  22.348  0.00  0.00    +0.000 A 
ATOM     25  N   UNL     1      -6.645  11.829  21.613  0.00  0.00    +0.000 NA
ATOM     26  N   UNL     1      -5.468  12.325  22.119  0.00  0.00    +0.000 NA
ATOM     27  C   UNL     1      -5.757  13.108  23.142  0.00  0.00    +0.000 A 
ENDBRANCH  21  27
ENDBRANCH  17  21
ENDBRANCH  11  17
ENDBRANCH   1  15
BRANCH   8  28
ATOM     28  C   UNL     1      -2.695  10.536  17.743  0.00  0.00    +0.000 C 
ATOM     29  F   UNL     1      -3.202   9.315  17.416  0.00  0.00    +0.000 F 
ATOM     30  F   UNL     1      -3.566  11.078  18.635  0.00  0.00    +0.000 F 
ATOM     31  F   UNL     1      -2.800  11.285  16.613  0.00  0.00    +0.000 F 
ENDBRANCH   8  28
BRANCH   6  32
ATOM     32  C   UNL     1       1.950   8.538  17.662  0.00  0.00    +0.000 C 
BRANCH  32  33
ATOM     33  N   UNL     1       2.756   7.755  18.621  0.00  0.00    +0.000 NA
ATOM     34  C   UNL     1       3.587   6.855  17.783  0.00  0.00    +0.000 C 
ATOM     35  C   UNL     1       4.212   5.715  18.548  0.00  0.00    +0.000 C 
ATOM     36  C   UNL     1       3.065   4.890  19.026  0.00  0.00    +0.000 A 
ATOM     37  C   UNL     1       2.872   3.558  18.666  0.00  0.00    +0.000 A 
ATOM     38  C   UNL     1       1.898   2.814  19.319  0.00  0.00    +0.000 A 
ATOM     39  C   UNL     1       1.194   3.385  20.377  0.00  0.00    +0.000 A 
ATOM     40  C   UNL     1       1.289   4.761  20.620  0.00  0.00    +0.000 A 
ATOM     41  C   UNL     1       2.128   5.546  19.823  0.00  0.00    +0.000 A 
ATOM     42  C   UNL     1       1.979   7.064  19.700  0.00  0.00    +0.000 C 
ENDBRANCH  32  33
ENDBRANCH   6  32
TORSDOF 7
ENDMDL
