MODEL 1
REMARK VINA RESULT:      -8.8      0.000      0.000
REMARK  Name = 
REMARK  8 active torsions:
REMARK  status: ('A' for Active; 'I' for Inactive)
REMARK    1  A    between atoms: C_1  and  C_2
REMARK    2  A    between atoms: C_2  and  S_3
REMARK    3  A    between atoms: C_2  and  C_10
REMARK    4  A    between atoms: S_3  and  C_4
REMARK    5  A    between atoms: N_8  and  C_9
REMARK    6  A    between atoms: C_14  and  N_15
REMARK    7  A    between atoms: C_17  and  C_18
REMARK    8  A    between atoms: C_21  and  C_22
REMARK                            x       y       z     vdW  Elec       q    Type
REMARK                         _______ _______ _______ _____ _____    ______ ____
ROOT
ATOM      1  N   UNL     1       1.605   7.743  20.160  0.00  0.00    +0.000 N 
ATOM      2  C   UNL     1       2.267   7.757  18.954  0.00  0.00    +0.000 A 
ATOM      3  C   UNL     1       2.796   6.497  18.829  0.00  0.00    +0.000 A 
ATOM      4  N   UNL     1       2.441   5.749  19.915  0.00  0.00    +0.000 NA
ATOM      5  N   UNL     1       1.702   6.509  20.713  0.00  0.00    +0.000 NA
ENDROOT
BRANCH   1  10
ATOM      6  C   UNL     1      -0.185  10.993  20.646  0.00  0.00    +0.000 A 
ATOM      7  C   UNL     1      -0.402  10.927  22.034  0.00  0.00    +0.000 A 
ATOM      8  C   UNL     1       0.027   9.834  22.785  0.00  0.00    +0.000 A 
ATOM      9  C   UNL     1       0.682   8.776  22.170  0.00  0.00    +0.000 A 
ATOM     10  C   UNL     1       0.919   8.810  20.789  0.00  0.00    +0.000 A 
ATOM     11  C   UNL     1       0.482   9.913  20.033  0.00  0.00    +0.000 A 
BRANCH   6  13
ATOM     12  C   UNL     1      -0.076  13.535  20.312  0.00  0.00    +0.000 C 
ATOM     13  C   UNL     1      -0.631  12.195  19.803  0.00  0.00    +0.000 C 
BRANCH  13  14
ATOM     14  S   UNL     1      -2.470  12.258  19.756  0.00  0.00    +0.000 S 
BRANCH  14  15
ATOM     15  C   UNL     1      -2.831  11.668  18.172  0.00  0.00    +0.000 A 
ATOM     16  N   UNL     1      -1.982  11.300  17.242  0.00  0.00    +0.000 NA
ATOM     17  N   UNL     1      -2.721  10.979  16.118  0.00  0.00    +0.000 NA
ATOM     18  C   UNL     1      -3.991  11.147  16.414  0.00  0.00    +0.000 A 
ATOM     19  N   UNL     1      -4.106  11.568  17.702  0.00  0.00    +0.000 N 
ATOM     20  C   UNL     1      -5.332  11.862  18.396  0.00  0.00    +0.000 C 
ENDBRANCH  14  15
ENDBRANCH  13  14
ENDBRANCH   6  13
ENDBRANCH   1  10
BRANCH   3  21
ATOM     21  C   UNL     1       3.678   6.051  17.771  0.00  0.00    +0.000 A 
ATOM     22  C   UNL     1       3.806   4.680  17.519  0.00  0.00    +0.000 A 
ATOM     23  C   UNL     1       4.720   4.211  16.573  0.00  0.00    +0.000 A 
ATOM     24  C   UNL     1       5.514   5.109  15.851  0.00  0.00    +0.000 A 
ATOM     25  C   UNL     1       5.362   6.484  16.076  0.00  0.00    +0.000 A 
ATOM     26  C   UNL     1       4.452   6.952  17.029  0.00  0.00    +0.000 A 
BRANCH  24  27
ATOM     27  C   UNL     1       6.535   4.680  14.855  0.00  0.00    +0.000 C 
ATOM     28  N   UNL     1       6.272   3.589  14.075  0.00  0.00    +0.000 N 
ATOM     29  O   UNL     1       7.599   5.278  14.731  0.00  0.00    +0.000 OA
ATOM     30  H   UNL     1       5.436   3.031  14.114  0.00  0.00    +0.000 HD
ATOM     31  H   UNL     1       6.991   3.318  13.418  0.00  0.00    +0.000 HD
ENDBRANCH  24  27
ENDBRANCH   3  21
TORSDOF 6
ENDMDL
MODEL 2
REMARK VINA RESULT:      -8.6      2.605      3.903
REMARK  Name = 
REMARK  8 active torsions:
REMARK  status: ('A' for Active; 'I' for Inactive)
REMARK    1  A    between atoms: C_1  and  C_2
REMARK    2  A    between atoms: C_2  and  S_3
REMARK    3  A    between atoms: C_2  and  C_10
REMARK    4  A    between atoms: S_3  and  C_4
REMARK    5  A    between atoms: N_8  and  C_9
REMARK    6  A    between atoms: C_14  and  N_15
REMARK    7  A    between atoms: C_17  and  C_18
REMARK    8  A    between atoms: C_21  and  C_22
REMARK                            x       y       z     vdW  Elec       q    Type
REMARK                         _______ _______ _______ _____ _____    ______ ____
ROOT
ATOM      1  N   UNL     1       1.670   7.651  20.154  0.00  0.00    +0.000 N 
ATOM      2  C   UNL     1       2.314   7.679  18.940  0.00  0.00    +0.000 A 
ATOM      3  C   UNL     1       2.853   6.424  18.798  0.00  0.00    +0.000 A 
ATOM      4  N   UNL     1       2.519   5.666  19.884  0.00  0.00    +0.000 NA
ATOM      5  N   UNL     1       1.785   6.414  20.697  0.00  0.00    +0.000 NA
ENDROOT
BRANCH   1  10
ATOM      6  C   UNL     1       0.092  10.990  20.759  0.00  0.00    +0.000 A 
ATOM      7  C   UNL     1      -0.340  10.800  22.083  0.00  0.00    +0.000 A 
ATOM      8  C   UNL     1      -0.121   9.598  22.754  0.00  0.00    +0.000 A 
ATOM      9  C   UNL     1       0.534   8.552  22.118  0.00  0.00    +0.000 A 
ATOM     10  C   UNL     1       0.982   8.708  20.799  0.00  0.00    +0.000 A 
ATOM     11  C   UNL     1       0.757   9.921  20.125  0.00  0.00    +0.000 A 
BRANCH   6  13
ATOM     12  C   UNL     1      -1.312  12.274  19.038  0.00  0.00    +0.000 C 
ATOM     13  C   UNL     1      -0.120  12.312  20.009  0.00  0.00    +0.000 C 
BRANCH  13  14
ATOM     14  S   UNL     1       1.416  12.749  19.095  0.00  0.00    +0.000 S 
BRANCH  14  15
ATOM     15  C   UNL     1       2.344  13.586  20.289  0.00  0.00    +0.000 A 
ATOM     16  N   UNL     1       2.117  13.651  21.579  0.00  0.00    +0.000 NA
ATOM     17  N   UNL     1       3.069  14.495  22.120  0.00  0.00    +0.000 NA
ATOM     18  C   UNL     1       3.848  14.898  21.141  0.00  0.00    +0.000 A 
ATOM     19  N   UNL     1       3.435  14.339  19.972  0.00  0.00    +0.000 N 
ATOM     20  C   UNL     1       4.029  14.536  18.676  0.00  0.00    +0.000 C 
ENDBRANCH  14  15
ENDBRANCH  13  14
ENDBRANCH   6  13
ENDBRANCH   1  10
BRANCH   3  21
ATOM     21  C   UNL     1       3.724   5.994  17.725  0.00  0.00    +0.000 A 
ATOM     22  C   UNL     1       3.848   4.627  17.452  0.00  0.00    +0.000 A 
ATOM     23  C   UNL     1       4.752   4.171  16.490  0.00  0.00    +0.000 A 
ATOM     24  C   UNL     1       5.541   5.078  15.774  0.00  0.00    +0.000 A 
ATOM     25  C   UNL     1       5.393   6.450  16.022  0.00  0.00    +0.000 A 
ATOM     26  C   UNL     1       4.492   6.904  16.990  0.00  0.00    +0.000 A 
BRANCH  24  27
ATOM     27  C   UNL     1       6.552   4.663  14.762  0.00  0.00    +0.000 C 
ATOM     28  N   UNL     1       6.296   3.562  13.994  0.00  0.00    +0.000 N 
ATOM     29  O   UNL     1       7.601   5.281  14.616  0.00  0.00    +0.000 OA
ATOM     30  H   UNL     1       5.472   2.988  14.051  0.00  0.00    +0.000 HD
ATOM     31  H   UNL     1       7.008   3.302  13.325  0.00  0.00    +0.000 HD
ENDBRANCH  24  27
ENDBRANCH   3  21
TORSDOF 6
ENDMDL
MODEL 3
REMARK VINA RESULT:      -8.5      6.200      9.119
REMARK  Name = 
REMARK  8 active torsions:
REMARK  status: ('A' for Active; 'I' for Inactive)
REMARK    1  A    between atoms: C_1  and  C_2
REMARK    2  A    between atoms: C_2  and  S_3
REMARK    3  A    between atoms: C_2  and  C_10
REMARK    4  A    between atoms: S_3  and  C_4
REMARK    5  A    between atoms: N_8  and  C_9
REMARK    6  A    between atoms: C_14  and  N_15
REMARK    7  A    between atoms: C_17  and  C_18
REMARK    8  A    between atoms: C_21  and  C_22
REMARK                            x       y       z     vdW  Elec       q    Type
REMARK                         _______ _______ _______ _____ _____    ______ ____
ROOT
ATOM      1  N   UNL     1       7.166   7.021  17.798  0.00  0.00    +0.000 N 
ATOM      2  C   UNL     1       7.302   8.327  17.393  0.00  0.00    +0.000 A 
ATOM      3  C   UNL     1       8.301   8.839  18.182  0.00  0.00    +0.000 A 
ATOM      4  N   UNL     1       8.762   7.861  19.017  0.00  0.00    +0.000 NA
ATOM      5  N   UNL     1       8.077   6.752  18.766  0.00  0.00    +0.000 NA
ENDROOT
BRANCH   1  10
ATOM      6  C   UNL     1       3.984   5.100  17.362  0.00  0.00    +0.000 A 
ATOM      7  C   UNL     1       4.427   4.135  16.441  0.00  0.00    +0.000 A 
ATOM      8  C   UNL     1       5.739   4.125  15.972  0.00  0.00    +0.000 A 
ATOM      9  C   UNL     1       6.645   5.081  16.411  0.00  0.00    +0.000 A 
ATOM     10  C   UNL     1       6.240   6.056  17.332  0.00  0.00    +0.000 A 
ATOM     11  C   UNL     1       4.914   6.065  17.800  0.00  0.00    +0.000 A 
BRANCH   6  13
ATOM     12  C   UNL     1       2.432   5.777  19.290  0.00  0.00    +0.000 C 
ATOM     13  C   UNL     1       2.550   5.118  17.906  0.00  0.00    +0.000 C 
BRANCH  13  14
ATOM     14  S   UNL     1       1.902   3.397  17.975  0.00  0.00    +0.000 S 
BRANCH  14  15
ATOM     15  C   UNL     1       1.926   3.049  19.668  0.00  0.00    +0.000 A 
ATOM     16  N   UNL     1       0.942   3.178  20.526  0.00  0.00    +0.000 NA
ATOM     17  N   UNL     1       1.445   2.861  21.775  0.00  0.00    +0.000 NA
ATOM     18  C   UNL     1       2.709   2.536  21.626  0.00  0.00    +0.000 A 
ATOM     19  N   UNL     1       3.051   2.627  20.312  0.00  0.00    +0.000 N 
ATOM     20  C   UNL     1       4.345   2.353  19.747  0.00  0.00    +0.000 C 
ENDBRANCH  14  15
ENDBRANCH  13  14
ENDBRANCH   6  13
ENDBRANCH   1  10
BRANCH   3  21
ATOM     21  C   UNL     1       8.735  10.220  18.209  0.00  0.00    +0.000 A 
ATOM     22  C   UNL     1       9.773  10.594  19.070  0.00  0.00    +0.000 A 
ATOM     23  C   UNL     1      10.150  11.933  19.193  0.00  0.00    +0.000 A 
ATOM     24  C   UNL     1       9.502  12.922  18.445  0.00  0.00    +0.000 A 
ATOM     25  C   UNL     1       8.486  12.545  17.556  0.00  0.00    +0.000 A 
ATOM     26  C   UNL     1       8.105  11.205  17.439  0.00  0.00    +0.000 A 
BRANCH  24  27
ATOM     27  C   UNL     1       9.825  14.373  18.552  0.00  0.00    +0.000 C 
ATOM     28  N   UNL     1       9.479  15.198  17.519  0.00  0.00    +0.000 N 
ATOM     29  O   UNL     1      10.397  14.829  19.536  0.00  0.00    +0.000 OA
ATOM     30  H   UNL     1       9.021  14.913  16.671  0.00  0.00    +0.000 HD
ATOM     31  H   UNL     1       9.723  16.174  17.620  0.00  0.00    +0.000 HD
ENDBRANCH  24  27
ENDBRANCH   3  21
TORSDOF 6
ENDMDL
MODEL 4
REMARK VINA RESULT:      -8.3      0.994      1.031
REMARK  Name = 
REMARK  8 active torsions:
REMARK  status: ('A' for Active; 'I' for Inactive)
REMARK    1  A    between atoms: C_1  and  C_2
REMARK    2  A    between atoms: C_2  and  S_3
REMARK    3  A    between atoms: C_2  and  C_10
REMARK    4  A    between atoms: S_3  and  C_4
REMARK    5  A    between atoms: N_8  and  C_9
REMARK    6  A    between atoms: C_14  and  N_15
REMARK    7  A    between atoms: C_17  and  C_18
REMARK    8  A    between atoms: C_21  and  C_22
REMARK                            x       y       z     vdW  Elec       q    Type
REMARK                         _______ _______ _______ _____ _____    ______ ____
ROOT
ATOM      1  N   UNL     1       1.654   7.655  20.223  0.00  0.00    +0.000 N 
ATOM      2  C   UNL     1       2.280   7.666  18.999  0.00  0.00    +0.000 A 
ATOM      3  C   UNL     1       2.803   6.404  18.859  0.00  0.00    +0.000 A 
ATOM      4  N   UNL     1       2.478   5.658  19.956  0.00  0.00    +0.000 NA
ATOM      5  N   UNL     1       1.764   6.422  20.775  0.00  0.00    +0.000 NA
ENDROOT
BRANCH   1  10
ATOM      6  C   UNL     1       0.291  11.073  20.904  0.00  0.00    +0.000 A 
ATOM      7  C   UNL     1      -0.291  10.838  22.162  0.00  0.00    +0.000 A 
ATOM      8  C   UNL     1      -0.239   9.582  22.764  0.00  0.00    +0.000 A 
ATOM      9  C   UNL     1       0.394   8.525  22.124  0.00  0.00    +0.000 A 
ATOM     10  C   UNL     1       0.989   8.724  20.871  0.00  0.00    +0.000 A 
ATOM     11  C   UNL     1       0.933   9.992  20.264  0.00  0.00    +0.000 A 
BRANCH   6  13
ATOM     12  C   UNL     1       1.293  13.433  20.815  0.00  0.00    +0.000 C 
ATOM     13  C   UNL     1       0.263  12.452  20.232  0.00  0.00    +0.000 C 
BRANCH  13  14
ATOM     14  S   UNL     1      -1.427  13.165  20.371  0.00  0.00    +0.000 S 
BRANCH  14  15
ATOM     15  C   UNL     1      -2.301  12.316  19.145  0.00  0.00    +0.000 A 
ATOM     16  N   UNL     1      -1.826  11.794  18.039  0.00  0.00    +0.000 NA
ATOM     17  N   UNL     1      -2.901  11.288  17.331  0.00  0.00    +0.000 NA
ATOM     18  C   UNL     1      -3.985  11.508  18.041  0.00  0.00    +0.000 A 
ATOM     19  N   UNL     1      -3.651  12.141  19.198  0.00  0.00    +0.000 N 
ATOM     20  C   UNL     1      -4.559  12.551  20.237  0.00  0.00    +0.000 C 
ENDBRANCH  14  15
ENDBRANCH  13  14
ENDBRANCH   6  13
ENDBRANCH   1  10
BRANCH   3  21
ATOM     21  C   UNL     1       3.652   5.956  17.776  0.00  0.00    +0.000 A 
ATOM     22  C   UNL     1       3.798   4.583  17.545  0.00  0.00    +0.000 A 
ATOM     23  C   UNL     1       4.684   4.113  16.574  0.00  0.00    +0.000 A 
ATOM     24  C   UNL     1       5.432   5.012  15.805  0.00  0.00    +0.000 A 
ATOM     25  C   UNL     1       5.262   6.388  16.011  0.00  0.00    +0.000 A 
ATOM     26  C   UNL     1       4.380   6.856  16.989  0.00  0.00    +0.000 A 
BRANCH  24  27
ATOM     27  C   UNL     1       6.423   4.583  14.778  0.00  0.00    +0.000 C 
ATOM     28  N   UNL     1       7.594   5.278  14.668  0.00  0.00    +0.000 N 
ATOM     29  O   UNL     1       6.202   3.634  14.034  0.00  0.00    +0.000 OA
ATOM     30  H   UNL     1       7.856   6.074  15.224  0.00  0.00    +0.000 HD
ATOM     31  H   UNL     1       8.239   4.968  13.954  0.00  0.00    +0.000 HD
ENDBRANCH  24  27
ENDBRANCH   3  21
TORSDOF 6
ENDMDL
MODEL 5
REMARK VINA RESULT:      -8.3      5.065     10.537
REMARK  Name = 
REMARK  8 active torsions:
REMARK  status: ('A' for Active; 'I' for Inactive)
REMARK    1  A    between atoms: C_1  and  C_2
REMARK    2  A    between atoms: C_2  and  S_3
REMARK    3  A    between atoms: C_2  and  C_10
REMARK    4  A    between atoms: S_3  and  C_4
REMARK    5  A    between atoms: N_8  and  C_9
REMARK    6  A    between atoms: C_14  and  N_15
REMARK    7  A    between atoms: C_17  and  C_18
REMARK    8  A    between atoms: C_21  and  C_22
REMARK                            x       y       z     vdW  Elec       q    Type
REMARK                         _______ _______ _______ _____ _____    ______ ____
ROOT
ATOM      1  N   UNL     1       0.399   9.923  21.259  0.00  0.00    +0.000 N 
ATOM      2  C   UNL     1      -0.303  11.104  21.224  0.00  0.00    +0.000 A 
ATOM      3  C   UNL     1      -0.724  11.302  22.515  0.00  0.00    +0.000 A 
ATOM      4  N   UNL     1      -0.267  10.281  23.299  0.00  0.00    +0.000 NA
ATOM      5  N   UNL     1       0.431   9.454  22.530  0.00  0.00    +0.000 NA
ENDROOT
BRANCH   1  10
ATOM      6  C   UNL     1       2.367   7.377  19.348  0.00  0.00    +0.000 A 
ATOM      7  C   UNL     1       2.245   7.919  18.056  0.00  0.00    +0.000 A 
ATOM      8  C   UNL     1       1.525   9.090  17.824  0.00  0.00    +0.000 A 
ATOM      9  C   UNL     1       0.906   9.750  18.877  0.00  0.00    +0.000 A 
ATOM     10  C   UNL     1       1.011   9.241  20.179  0.00  0.00    +0.000 A 
ATOM     11  C   UNL     1       1.735   8.058  20.409  0.00  0.00    +0.000 A 
BRANCH   6  13
ATOM     12  C   UNL     1       4.026   5.645  18.436  0.00  0.00    +0.000 C 
ATOM     13  C   UNL     1       3.171   6.101  19.629  0.00  0.00    +0.000 C 
BRANCH  13  14
ATOM     14  S   UNL     1       2.020   4.753  20.125  0.00  0.00    +0.000 S 
BRANCH  14  15
ATOM     15  C   UNL     1       2.348   3.523  18.955  0.00  0.00    +0.000 A 
ATOM     16  N   UNL     1       1.752   3.336  17.802  0.00  0.00    +0.000 NA
ATOM     17  N   UNL     1       2.289   2.189  17.246  0.00  0.00    +0.000 NA
ATOM     18  C   UNL     1       3.201   1.733  18.074  0.00  0.00    +0.000 A 
ATOM     19  N   UNL     1       3.281   2.550  19.159  0.00  0.00    +0.000 N 
ATOM     20  C   UNL     1       4.160   2.388  20.286  0.00  0.00    +0.000 C 
ENDBRANCH  14  15
ENDBRANCH  13  14
ENDBRANCH   6  13
ENDBRANCH   1  10
BRANCH   3  21
ATOM     21  C   UNL     1      -1.601  12.362  22.967  0.00  0.00    +0.000 A 
ATOM     22  C   UNL     1      -1.148  13.686  22.930  0.00  0.00    +0.000 A 
ATOM     23  C   UNL     1      -1.929  14.721  23.447  0.00  0.00    +0.000 A 
ATOM     24  C   UNL     1      -3.185  14.451  24.001  0.00  0.00    +0.000 A 
ATOM     25  C   UNL     1      -3.655  13.131  24.007  0.00  0.00    +0.000 A 
ATOM     26  C   UNL     1      -2.869  12.094  23.495  0.00  0.00    +0.000 A 
BRANCH  24  27
ATOM     27  C   UNL     1      -4.056  15.498  24.605  0.00  0.00    +0.000 C 
ATOM     28  N   UNL     1      -5.398  15.459  24.354  0.00  0.00    +0.000 N 
ATOM     29  O   UNL     1      -3.590  16.389  25.308  0.00  0.00    +0.000 OA
ATOM     30  H   UNL     1      -5.866  14.777  23.782  0.00  0.00    +0.000 HD
ATOM     31  H   UNL     1      -5.958  16.191  24.770  0.00  0.00    +0.000 HD
ENDBRANCH  24  27
ENDBRANCH   3  21
TORSDOF 6
ENDMDL
MODEL 6
REMARK VINA RESULT:      -8.3      2.984      3.580
REMARK  Name = 
REMARK  8 active torsions:
REMARK  status: ('A' for Active; 'I' for Inactive)
REMARK    1  A    between atoms: C_1  and  C_2
REMARK    2  A    between atoms: C_2  and  S_3
REMARK    3  A    between atoms: C_2  and  C_10
REMARK    4  A    between atoms: S_3  and  C_4
REMARK    5  A    between atoms: N_8  and  C_9
REMARK    6  A    between atoms: C_14  and  N_15
REMARK    7  A    between atoms: C_17  and  C_18
REMARK    8  A    between atoms: C_21  and  C_22
REMARK                            x       y       z     vdW  Elec       q    Type
REMARK                         _______ _______ _______ _____ _____    ______ ____
ROOT
ATOM      1  N   UNL     1       1.168   9.132  19.589  0.00  0.00    +0.000 N 
ATOM      2  C   UNL     1       2.158   8.178  19.554  0.00  0.00    +0.000 A 
ATOM      3  C   UNL     1       2.488   8.061  18.226  0.00  0.00    +0.000 A 
ATOM      4  N   UNL     1       1.734   8.935  17.496  0.00  0.00    +0.000 NA
ATOM      5  N   UNL     1       0.944   9.596  18.335  0.00  0.00    +0.000 NA
ENDROOT
BRANCH   1  10
ATOM      6  C   UNL     1      -1.105  11.209  21.716  0.00  0.00    +0.000 A 
ATOM      7  C   UNL     1      -0.943  10.539  22.942  0.00  0.00    +0.000 A 
ATOM      8  C   UNL     1      -0.110   9.427  23.058  0.00  0.00    +0.000 A 
ATOM      9  C   UNL     1       0.582   8.953  21.951  0.00  0.00    +0.000 A 
ATOM     10  C   UNL     1       0.448   9.599  20.715  0.00  0.00    +0.000 A 
ATOM     11  C   UNL     1      -0.395  10.718  20.600  0.00  0.00    +0.000 A 
BRANCH   6  13
ATOM     12  C   UNL     1      -1.510  13.427  20.492  0.00  0.00    +0.000 C 
ATOM     13  C   UNL     1      -2.000  12.446  21.570  0.00  0.00    +0.000 C 
BRANCH  13  14
ATOM     14  S   UNL     1      -2.120  13.308  23.192  0.00  0.00    +0.000 S 
BRANCH  14  15
ATOM     15  C   UNL     1      -3.748  12.988  23.674  0.00  0.00    +0.000 A 
ATOM     16  N   UNL     1      -4.181  12.011  24.435  0.00  0.00    +0.000 NA
ATOM     17  N   UNL     1      -5.560  12.109  24.480  0.00  0.00    +0.000 NA
ATOM     18  C   UNL     1      -5.911  13.150  23.759  0.00  0.00    +0.000 A 
ATOM     19  N   UNL     1      -4.799  13.741  23.243  0.00  0.00    +0.000 N 
ATOM     20  C   UNL     1      -4.768  14.907  22.400  0.00  0.00    +0.000 C 
ENDBRANCH  14  15
ENDBRANCH  13  14
ENDBRANCH   6  13
ENDBRANCH   1  10
BRANCH   3  21
ATOM     21  C   UNL     1       3.410   7.097  17.666  0.00  0.00    +0.000 A 
ATOM     22  C   UNL     1       3.183   5.732  17.876  0.00  0.00    +0.000 A 
ATOM     23  C   UNL     1       4.104   4.780  17.433  0.00  0.00    +0.000 A 
ATOM     24  C   UNL     1       5.264   5.177  16.759  0.00  0.00    +0.000 A 
ATOM     25  C   UNL     1       5.476   6.541  16.517  0.00  0.00    +0.000 A 
ATOM     26  C   UNL     1       4.557   7.494  16.967  0.00  0.00    +0.000 A 
BRANCH  24  27
ATOM     27  C   UNL     1       6.307   4.221  16.292  0.00  0.00    +0.000 C 
ATOM     28  N   UNL     1       5.910   3.060  15.691  0.00  0.00    +0.000 N 
ATOM     29  O   UNL     1       7.501   4.454  16.445  0.00  0.00    +0.000 OA
ATOM     30  H   UNL     1       4.957   2.779  15.535  0.00  0.00    +0.000 HD
ATOM     31  H   UNL     1       6.643   2.429  15.397  0.00  0.00    +0.000 HD
ENDBRANCH  24  27
ENDBRANCH   3  21
TORSDOF 6
ENDMDL
MODEL 7
REMARK VINA RESULT:      -8.3      5.116     10.503
REMARK  Name = 
REMARK  8 active torsions:
REMARK  status: ('A' for Active; 'I' for Inactive)
REMARK    1  A    between atoms: C_1  and  C_2
REMARK    2  A    between atoms: C_2  and  S_3
REMARK    3  A    between atoms: C_2  and  C_10
REMARK    4  A    between atoms: S_3  and  C_4
REMARK    5  A    between atoms: N_8  and  C_9
REMARK    6  A    between atoms: C_14  and  N_15
REMARK    7  A    between atoms: C_17  and  C_18
REMARK    8  A    between atoms: C_21  and  C_22
REMARK                            x       y       z     vdW  Elec       q    Type
REMARK                         _______ _______ _______ _____ _____    ______ ____
ROOT
ATOM      1  N   UNL     1       0.235   9.929  21.333  0.00  0.00    +0.000 N 
ATOM      2  C   UNL     1      -0.365  11.165  21.388  0.00  0.00    +0.000 A 
ATOM      3  C   UNL     1      -0.864  11.258  22.663  0.00  0.00    +0.000 A 
ATOM      4  N   UNL     1      -0.552  10.122  23.353  0.00  0.00    +0.000 NA
ATOM      5  N   UNL     1       0.132   9.324  22.542  0.00  0.00    +0.000 NA
ENDROOT
BRANCH   1  10
ATOM      6  C   UNL     1       2.269   7.526  19.311  0.00  0.00    +0.000 A 
ATOM      7  C   UNL     1       2.147   8.132  18.048  0.00  0.00    +0.000 A 
ATOM      8  C   UNL     1       1.406   9.299  17.871  0.00  0.00    +0.000 A 
ATOM      9  C   UNL     1       0.765   9.891  18.951  0.00  0.00    +0.000 A 
ATOM     10  C   UNL     1       0.869   9.317  20.225  0.00  0.00    +0.000 A 
ATOM     11  C   UNL     1       1.615   8.138  20.400  0.00  0.00    +0.000 A 
BRANCH   6  13
ATOM     12  C   UNL     1       3.852   5.792  18.276  0.00  0.00    +0.000 C 
ATOM     13  C   UNL     1       3.096   6.252  19.533  0.00  0.00    +0.000 C 
BRANCH  13  14
ATOM     14  S   UNL     1       1.992   4.905  20.126  0.00  0.00    +0.000 S 
BRANCH  14  15
ATOM     15  C   UNL     1       2.243   3.662  18.952  0.00  0.00    +0.000 A 
ATOM     16  N   UNL     1       1.583   3.470  17.835  0.00  0.00    +0.000 NA
ATOM     17  N   UNL     1       2.078   2.313  17.261  0.00  0.00    +0.000 NA
ATOM     18  C   UNL     1       3.030   1.855  18.043  0.00  0.00    +0.000 A 
ATOM     19  N   UNL     1       3.176   2.681  19.113  0.00  0.00    +0.000 N 
ATOM     20  C   UNL     1       4.115   2.520  20.193  0.00  0.00    +0.000 C 
ENDBRANCH  14  15
ENDBRANCH  13  14
ENDBRANCH   6  13
ENDBRANCH   1  10
BRANCH   3  21
ATOM     21  C   UNL     1      -1.683  12.337  23.174  0.00  0.00    +0.000 A 
ATOM     22  C   UNL     1      -3.012  12.078  23.528  0.00  0.00    +0.000 A 
ATOM     23  C   UNL     1      -3.858  13.114  23.932  0.00  0.00    +0.000 A 
ATOM     24  C   UNL     1      -3.383  14.428  24.001  0.00  0.00    +0.000 A 
ATOM     25  C   UNL     1      -2.042  14.685  23.681  0.00  0.00    +0.000 A 
ATOM     26  C   UNL     1      -1.199  13.647  23.270  0.00  0.00    +0.000 A 
BRANCH  24  27
ATOM     27  C   UNL     1      -4.236  15.587  24.386  0.00  0.00    +0.000 C 
ATOM     28  N   UNL     1      -3.674  16.603  25.108  0.00  0.00    +0.000 N 
ATOM     29  O   UNL     1      -5.421  15.639  24.077  0.00  0.00    +0.000 OA
ATOM     30  H   UNL     1      -2.718  16.641  25.416  0.00  0.00    +0.000 HD
ATOM     31  H   UNL     1      -4.284  17.368  25.362  0.00  0.00    +0.000 HD
ENDBRANCH  24  27
ENDBRANCH   3  21
TORSDOF 6
ENDMDL
MODEL 8
REMARK VINA RESULT:      -8.3      1.537      2.161
REMARK  Name = 
REMARK  8 active torsions:
REMARK  status: ('A' for Active; 'I' for Inactive)
REMARK    1  A    between atoms: C_1  and  C_2
REMARK    2  A    between atoms: C_2  and  S_3
REMARK    3  A    between atoms: C_2  and  C_10
REMARK    4  A    between atoms: S_3  and  C_4
REMARK    5  A    between atoms: N_8  and  C_9
REMARK    6  A    between atoms: C_14  and  N_15
REMARK    7  A    between atoms: C_17  and  C_18
REMARK    8  A    between atoms: C_21  and  C_22
REMARK                            x       y       z     vdW  Elec       q    Type
REMARK                         _______ _______ _______ _____ _____    ______ ____
ROOT
ATOM      1  N   UNL     1       1.662   7.597  20.167  0.00  0.00    +0.000 N 
ATOM      2  C   UNL     1       2.430   7.647  19.028  0.00  0.00    +0.000 A 
ATOM      3  C   UNL     1       2.948   6.383  18.896  0.00  0.00    +0.000 A 
ATOM      4  N   UNL     1       2.484   5.598  19.913  0.00  0.00    +0.000 NA
ATOM      5  N   UNL     1       1.688   6.339  20.673  0.00  0.00    +0.000 NA
ENDROOT
BRANCH   1  10
ATOM      6  C   UNL     1      -0.375  10.709  20.577  0.00  0.00    +0.000 A 
ATOM      7  C   UNL     1      -0.454  10.745  21.980  0.00  0.00    +0.000 A 
ATOM      8  C   UNL     1       0.144   9.762  22.767  0.00  0.00    +0.000 A 
ATOM      9  C   UNL     1       0.836   8.716  22.173  0.00  0.00    +0.000 A 
ATOM     10  C   UNL     1       0.939   8.651  20.777  0.00  0.00    +0.000 A 
ATOM     11  C   UNL     1       0.332   9.641  19.985  0.00  0.00    +0.000 A 
BRANCH   6  13
ATOM     12  C   UNL     1      -0.000  12.483  18.762  0.00  0.00    +0.000 C 
ATOM     13  C   UNL     1      -1.010  11.790  19.692  0.00  0.00    +0.000 C 
BRANCH  13  14
ATOM     14  S   UNL     1      -1.840  13.040  20.756  0.00  0.00    +0.000 S 
BRANCH  14  15
ATOM     15  C   UNL     1      -3.514  12.664  20.550  0.00  0.00    +0.000 A 
ATOM     16  N   UNL     1      -4.130  12.334  19.440  0.00  0.00    +0.000 NA
ATOM     17  N   UNL     1      -5.474  12.203  19.741  0.00  0.00    +0.000 NA
ATOM     18  C   UNL     1      -5.620  12.442  21.025  0.00  0.00    +0.000 A 
ATOM     19  N   UNL     1      -4.409  12.723  21.576  0.00  0.00    +0.000 N 
ATOM     20  C   UNL     1      -4.154  13.039  22.957  0.00  0.00    +0.000 C 
ENDBRANCH  14  15
ENDBRANCH  13  14
ENDBRANCH   6  13
ENDBRANCH   1  10
BRANCH   3  21
ATOM     21  C   UNL     1       3.915   5.963  17.903  0.00  0.00    +0.000 A 
ATOM     22  C   UNL     1       4.545   6.930  17.112  0.00  0.00    +0.000 A 
ATOM     23  C   UNL     1       5.409   6.555  16.080  0.00  0.00    +0.000 A 
ATOM     24  C   UNL     1       5.667   5.202  15.831  0.00  0.00    +0.000 A 
ATOM     25  C   UNL     1       5.064   4.234  16.645  0.00  0.00    +0.000 A 
ATOM     26  C   UNL     1       4.194   4.611  17.673  0.00  0.00    +0.000 A 
BRANCH  24  27
ATOM     27  C   UNL     1       6.546   4.727  14.725  0.00  0.00    +0.000 C 
ATOM     28  N   UNL     1       6.231   3.557  14.095  0.00  0.00    +0.000 N 
ATOM     29  O   UNL     1       7.540   5.358  14.383  0.00  0.00    +0.000 OA
ATOM     30  H   UNL     1       5.446   2.968  14.314  0.00  0.00    +0.000 HD
ATOM     31  H   UNL     1       6.854   3.258  13.357  0.00  0.00    +0.000 HD
ENDBRANCH  24  27
ENDBRANCH   3  21
TORSDOF 6
ENDMDL
MODEL 9
REMARK VINA RESULT:      -8.2      2.352      3.445
REMARK  Name = 
REMARK  8 active torsions:
REMARK  status: ('A' for Active; 'I' for Inactive)
REMARK    1  A    between atoms: C_1  and  C_2
REMARK    2  A    between atoms: C_2  and  S_3
REMARK    3  A    between atoms: C_2  and  C_10
REMARK    4  A    between atoms: S_3  and  C_4
REMARK    5  A    between atoms: N_8  and  C_9
REMARK    6  A    between atoms: C_14  and  N_15
REMARK    7  A    between atoms: C_17  and  C_18
REMARK    8  A    between atoms: C_21  and  C_22
REMARK                            x       y       z     vdW  Elec       q    Type
REMARK                         _______ _______ _______ _____ _____    ______ ____
ROOT
ATOM      1  N   UNL     1       1.558   7.713  20.298  0.00  0.00    +0.000 N 
ATOM      2  C   UNL     1       2.315   7.765  19.151  0.00  0.00    +0.000 A 
ATOM      3  C   UNL     1       2.834   6.502  19.014  0.00  0.00    +0.000 A 
ATOM      4  N   UNL     1       2.381   5.716  20.034  0.00  0.00    +0.000 NA
ATOM      5  N   UNL     1       1.591   6.455  20.803  0.00  0.00    +0.000 NA
ENDROOT
BRANCH   1  10
ATOM      6  C   UNL     1      -0.382  10.883  20.741  0.00  0.00    +0.000 A 
ATOM      7  C   UNL     1      -0.545  10.855  22.138  0.00  0.00    +0.000 A 
ATOM      8  C   UNL     1      -0.033   9.813  22.909  0.00  0.00    +0.000 A 
ATOM      9  C   UNL     1       0.654   8.768  22.305  0.00  0.00    +0.000 A 
ATOM     10  C   UNL     1       0.840   8.765  20.916  0.00  0.00    +0.000 A 
ATOM     11  C   UNL     1       0.320   9.817  20.140  0.00  0.00    +0.000 A 
BRANCH   6  13
ATOM     12  C   UNL     1      -1.943  11.569  18.825  0.00  0.00    +0.000 C 
ATOM     13  C   UNL     1      -0.919  12.029  19.875  0.00  0.00    +0.000 C 
BRANCH  13  14
ATOM     14  S   UNL     1       0.487  12.880  19.048  0.00  0.00    +0.000 S 
BRANCH  14  15
ATOM     15  C   UNL     1       1.217  13.760  20.344  0.00  0.00    +0.000 A 
ATOM     16  N   UNL     1       2.208  13.377  21.114  0.00  0.00    +0.000 NA
ATOM     17  N   UNL     1       2.398  14.369  22.059  0.00  0.00    +0.000 NA
ATOM     18  C   UNL     1       1.526  15.323  21.817  0.00  0.00    +0.000 A 
ATOM     19  N   UNL     1       0.771  14.986  20.737  0.00  0.00    +0.000 N 
ATOM     20  C   UNL     1      -0.290  15.770  20.161  0.00  0.00    +0.000 C 
ENDBRANCH  14  15
ENDBRANCH  13  14
ENDBRANCH   6  13
ENDBRANCH   1  10
BRANCH   3  21
ATOM     21  C   UNL     1       3.791   6.085  18.011  0.00  0.00    +0.000 A 
ATOM     22  C   UNL     1       4.334   7.041  17.145  0.00  0.00    +0.000 A 
ATOM     23  C   UNL     1       5.184   6.659  16.105  0.00  0.00    +0.000 A 
ATOM     24  C   UNL     1       5.518   5.312  15.922  0.00  0.00    +0.000 A 
ATOM     25  C   UNL     1       5.003   4.358  16.810  0.00  0.00    +0.000 A 
ATOM     26  C   UNL     1       4.146   4.741  17.846  0.00  0.00    +0.000 A 
BRANCH  24  27
ATOM     27  C   UNL     1       6.387   4.828  14.813  0.00  0.00    +0.000 C 
ATOM     28  N   UNL     1       5.878   3.918  13.930  0.00  0.00    +0.000 N 
ATOM     29  O   UNL     1       7.542   5.222  14.688  0.00  0.00    +0.000 OA
ATOM     30  H   UNL     1       4.950   3.530  13.961  0.00  0.00    +0.000 HD
ATOM     31  H   UNL     1       6.498   3.602  13.197  0.00  0.00    +0.000 HD
ENDBRANCH  24  27
ENDBRANCH   3  21
TORSDOF 6
ENDMDL
