MODEL 1
REMARK VINA RESULT:     -10.0      0.000      0.000
REMARK  Name = 
REMARK  9 active torsions:
REMARK  status: ('A' for Active; 'I' for Inactive)
REMARK    1  A    between atoms: C_1  and  N_2
REMARK    2  A    between atoms: C_6  and  C_7
REMARK    3  A    between atoms: C_7  and  C_8
REMARK    4  A    between atoms: C_8  and  C_9
REMARK    5  A    between atoms: C_13  and  N_14
REMARK    6  A    between atoms: C_19  and  C_20
REMARK    7  A    between atoms: C_20  and  N_21
REMARK    8  A    between atoms: C_27  and  C_28
REMARK    9  A    between atoms: C_33  and  C_34
REMARK                            x       y       z     vdW  Elec       q    Type
REMARK                         _______ _______ _______ _____ _____    ______ ____
ROOT
ATOM      1  N   UNL     1       2.386   7.171  19.235  0.00  0.00    +0.000 N 
ATOM      2  C   UNL     1       1.717   7.504  20.479  0.00  0.00    +0.000 C 
ATOM      3  C   UNL     1       1.273   8.902  20.289  0.00  0.00    +0.000 A 
ATOM      4  C   UNL     1       1.574   9.322  18.998  0.00  0.00    +0.000 A 
ATOM      5  C   UNL     1       1.216  10.582  18.554  0.00  0.00    +0.000 A 
ATOM      6  C   UNL     1       0.522  11.431  19.443  0.00  0.00    +0.000 A 
ATOM      7  C   UNL     1       0.261  10.997  20.768  0.00  0.00    +0.000 A 
ATOM      8  C   UNL     1       0.645   9.724  21.219  0.00  0.00    +0.000 A 
ATOM      9  C   UNL     1       2.314   8.226  18.320  0.00  0.00    +0.000 C 
ATOM     10  O   UNL     1       2.755   8.321  17.189  0.00  0.00    +0.000 OA
ENDROOT
BRANCH   1  15
ATOM     11  C   UNL     1       4.698   4.576  17.818  0.00  0.00    +0.000 A 
ATOM     12  C   UNL     1       4.437   3.511  18.695  0.00  0.00    +0.000 A 
ATOM     13  C   UNL     1       3.546   3.650  19.769  0.00  0.00    +0.000 A 
ATOM     14  C   UNL     1       2.864   4.855  19.994  0.00  0.00    +0.000 A 
ATOM     15  C   UNL     1       3.075   5.932  19.141  0.00  0.00    +0.000 A 
ATOM     16  C   UNL     1       4.004   5.764  18.094  0.00  0.00    +0.000 A 
BRANCH  11  17
ATOM     17  C   UNL     1       5.703   4.512  16.558  0.00  0.00    +0.000 C 
ATOM     18  C   UNL     1       5.359   5.452  15.371  0.00  0.00    +0.000 C 
ATOM     19  O   UNL     1       5.178   4.352  14.459  0.00  0.00    +0.000 OA
ATOM     20  C   UNL     1       5.469   3.398  15.495  0.00  0.00    +0.000 C 
BRANCH  17  21
ATOM     21  C   UNL     1       7.173   4.629  17.022  0.00  0.00    +0.000 C 
BRANCH  21  27
ATOM     22  C   UNL     1       8.032   5.654  19.906  0.00  0.00    +0.000 C 
ATOM     23  N   UNL     1       7.924   6.428  18.698  0.00  0.00    +0.000 N 
ATOM     24  C   UNL     1       8.133   7.771  18.615  0.00  0.00    +0.000 A 
ATOM     25  N   UNL     1       7.966   8.164  17.376  0.00  0.00    +0.000 NA
ATOM     26  N   UNL     1       7.623   7.061  16.635  0.00  0.00    +0.000 NA
ATOM     27  C   UNL     1       7.588   6.010  17.432  0.00  0.00    +0.000 A 
ENDBRANCH  21  27
ENDBRANCH  17  21
ENDBRANCH  11  17
ENDBRANCH   1  15
BRANCH   8  28
ATOM     28  C   UNL     1       0.400   9.283  22.649  0.00  0.00    +0.000 C 
ATOM     29  F   UNL     1       1.540   8.940  23.318  0.00  0.00    +0.000 F 
ATOM     30  F   UNL     1      -0.190  10.257  23.385  0.00  0.00    +0.000 F 
ATOM     31  F   UNL     1      -0.410   8.200  22.715  0.00  0.00    +0.000 F 
ENDBRANCH   8  28
BRANCH   6  32
ATOM     32  C   UNL     1       0.019  12.789  18.988  0.00  0.00    +0.000 C 
BRANCH  32  33
ATOM     33  N   UNL     1      -1.360  12.810  18.518  0.00  0.00    +0.000 NA
ATOM     34  C   UNL     1      -2.317  12.950  19.646  0.00  0.00    +0.000 C 
ATOM     35  C   UNL     1      -3.572  12.301  19.148  0.00  0.00    +0.000 A 
ATOM     36  C   UNL     1      -4.845  12.319  19.691  0.00  0.00    +0.000 A 
ATOM     37  C   UNL     1      -5.878  11.732  18.959  0.00  0.00    +0.000 A 
ATOM     38  C   UNL     1      -5.630  11.190  17.686  0.00  0.00    +0.000 A 
ATOM     39  C   UNL     1      -4.329  11.152  17.162  0.00  0.00    +0.000 A 
ATOM     40  C   UNL     1      -3.298  11.650  17.942  0.00  0.00    +0.000 A 
ATOM     41  C   UNL     1      -1.809  11.629  17.756  0.00  0.00    +0.000 C 
BRANCH  39  42
ATOM     42  C   UNL     1      -4.108  10.709  15.818  0.00  0.00    +0.000 C 
ATOM     43  N   UNL     1      -3.882  10.372  14.730  0.00  0.00    +0.000 NA
ENDBRANCH  39  42
ENDBRANCH  32  33
ENDBRANCH   6  32
TORSDOF 8
ENDMDL
MODEL 2
REMARK VINA RESULT:      -9.9      2.471      4.561
REMARK  Name = 
REMARK  9 active torsions:
REMARK  status: ('A' for Active; 'I' for Inactive)
REMARK    1  A    between atoms: C_1  and  N_2
REMARK    2  A    between atoms: C_6  and  C_7
REMARK    3  A    between atoms: C_7  and  C_8
REMARK    4  A    between atoms: C_8  and  C_9
REMARK    5  A    between atoms: C_13  and  N_14
REMARK    6  A    between atoms: C_19  and  C_20
REMARK    7  A    between atoms: C_20  and  N_21
REMARK    8  A    between atoms: C_27  and  C_28
REMARK    9  A    between atoms: C_33  and  C_34
REMARK                            x       y       z     vdW  Elec       q    Type
REMARK                         _______ _______ _______ _____ _____    ______ ____
ROOT
ATOM      1  N   UNL     1       2.343   7.373  19.340  0.00  0.00    +0.000 N 
ATOM      2  C   UNL     1       1.615   7.751  20.537  0.00  0.00    +0.000 C 
ATOM      3  C   UNL     1       0.985   9.042  20.186  0.00  0.00    +0.000 A 
ATOM      4  C   UNL     1       1.246   9.348  18.854  0.00  0.00    +0.000 A 
ATOM      5  C   UNL     1       0.724  10.487  18.267  0.00  0.00    +0.000 A 
ATOM      6  C   UNL     1      -0.094  11.327  19.052  0.00  0.00    +0.000 A 
ATOM      7  C   UNL     1      -0.314  11.016  20.418  0.00  0.00    +0.000 A 
ATOM      8  C   UNL     1       0.235   9.870  21.014  0.00  0.00    +0.000 A 
ATOM      9  C   UNL     1       2.141   8.295  18.308  0.00  0.00    +0.000 C 
ATOM     10  O   UNL     1       2.582   8.319  17.174  0.00  0.00    +0.000 OA
ENDROOT
BRANCH   1  15
ATOM     11  C   UNL     1       5.459   5.342  18.835  0.00  0.00    +0.000 A 
ATOM     12  C   UNL     1       5.006   4.087  19.272  0.00  0.00    +0.000 A 
ATOM     13  C   UNL     1       3.707   3.912  19.771  0.00  0.00    +0.000 A 
ATOM     14  C   UNL     1       2.803   4.982  19.831  0.00  0.00    +0.000 A 
ATOM     15  C   UNL     1       3.198   6.239  19.391  0.00  0.00    +0.000 A 
ATOM     16  C   UNL     1       4.523   6.383  18.929  0.00  0.00    +0.000 A 
BRANCH  11  17
ATOM     17  C   UNL     1       6.930   5.641  18.247  0.00  0.00    +0.000 C 
ATOM     18  C   UNL     1       7.999   6.074  19.287  0.00  0.00    +0.000 C 
ATOM     19  O   UNL     1       8.193   7.356  18.661  0.00  0.00    +0.000 OA
ATOM     20  C   UNL     1       7.207   7.057  17.658  0.00  0.00    +0.000 C 
BRANCH  17  21
ATOM     21  C   UNL     1       7.401   4.486  17.333  0.00  0.00    +0.000 C 
BRANCH  21  27
ATOM     22  C   UNL     1       4.781   3.351  15.936  0.00  0.00    +0.000 C 
ATOM     23  N   UNL     1       5.854   4.086  15.319  0.00  0.00    +0.000 N 
ATOM     24  C   UNL     1       5.935   4.374  13.991  0.00  0.00    +0.000 A 
ATOM     25  N   UNL     1       7.026   5.063  13.758  0.00  0.00    +0.000 NA
ATOM     26  N   UNL     1       7.682   5.214  14.954  0.00  0.00    +0.000 NA
ATOM     27  C   UNL     1       6.981   4.618  15.900  0.00  0.00    +0.000 A 
ENDBRANCH  21  27
ENDBRANCH  17  21
ENDBRANCH  11  17
ENDBRANCH   1  15
BRANCH   8  28
ATOM     28  C   UNL     1       0.030   9.567  22.486  0.00  0.00    +0.000 C 
ATOM     29  F   UNL     1       1.188   9.278  23.150  0.00  0.00    +0.000 F 
ATOM     30  F   UNL     1      -0.532  10.610  23.144  0.00  0.00    +0.000 F 
ATOM     31  F   UNL     1      -0.784   8.502  22.676  0.00  0.00    +0.000 F 
ENDBRANCH   8  28
BRANCH   6  32
ATOM     32  C   UNL     1      -0.773  12.541  18.442  0.00  0.00    +0.000 C 
BRANCH  32  33
ATOM     33  N   UNL     1       0.061  13.733  18.350  0.00  0.00    +0.000 NA
ATOM     34  C   UNL     1       1.501  13.402  18.507  0.00  0.00    +0.000 C 
ATOM     35  C   UNL     1       2.109  14.656  19.056  0.00  0.00    +0.000 A 
ATOM     36  C   UNL     1       3.443  14.994  19.203  0.00  0.00    +0.000 A 
ATOM     37  C   UNL     1       3.750  16.286  19.631  0.00  0.00    +0.000 A 
ATOM     38  C   UNL     1       2.726  17.225  19.852  0.00  0.00    +0.000 A 
ATOM     39  C   UNL     1       1.376  16.859  19.729  0.00  0.00    +0.000 A 
ATOM     40  C   UNL     1       1.086  15.544  19.398  0.00  0.00    +0.000 A 
ATOM     41  C   UNL     1      -0.215  14.799  19.332  0.00  0.00    +0.000 C 
BRANCH  39  42
ATOM     42  C   UNL     1       0.350  17.851  19.837  0.00  0.00    +0.000 C 
ATOM     43  N   UNL     1      -0.502  18.629  19.966  0.00  0.00    +0.000 NA
ENDBRANCH  39  42
ENDBRANCH  32  33
ENDBRANCH   6  32
TORSDOF 8
ENDMDL
MODEL 3
REMARK VINA RESULT:      -9.7      1.852      3.078
REMARK  Name = 
REMARK  9 active torsions:
REMARK  status: ('A' for Active; 'I' for Inactive)
REMARK    1  A    between atoms: C_1  and  N_2
REMARK    2  A    between atoms: C_6  and  C_7
REMARK    3  A    between atoms: C_7  and  C_8
REMARK    4  A    between atoms: C_8  and  C_9
REMARK    5  A    between atoms: C_13  and  N_14
REMARK    6  A    between atoms: C_19  and  C_20
REMARK    7  A    between atoms: C_20  and  N_21
REMARK    8  A    between atoms: C_27  and  C_28
REMARK    9  A    between atoms: C_33  and  C_34
REMARK                            x       y       z     vdW  Elec       q    Type
REMARK                         _______ _______ _______ _____ _____    ______ ____
ROOT
ATOM      1  N   UNL     1       2.352   7.028  19.455  0.00  0.00    +0.000 N 
ATOM      2  C   UNL     1       1.771   7.485  20.704  0.00  0.00    +0.000 C 
ATOM      3  C   UNL     1       0.960   8.660  20.318  0.00  0.00    +0.000 A 
ATOM      4  C   UNL     1       0.988   8.820  18.937  0.00  0.00    +0.000 A 
ATOM      5  C   UNL     1       0.265   9.825  18.319  0.00  0.00    +0.000 A 
ATOM      6  C   UNL     1      -0.516  10.679  19.127  0.00  0.00    +0.000 A 
ATOM      7  C   UNL     1      -0.498  10.522  20.536  0.00  0.00    +0.000 A 
ATOM      8  C   UNL     1       0.254   9.513  21.160  0.00  0.00    +0.000 A 
ATOM      9  C   UNL     1       1.902   7.793  18.374  0.00  0.00    +0.000 C 
ATOM     10  O   UNL     1       2.167   7.716  17.189  0.00  0.00    +0.000 OA
ENDROOT
BRANCH   1  15
ATOM     11  C   UNL     1       5.630   5.310  18.832  0.00  0.00    +0.000 A 
ATOM     12  C   UNL     1       5.338   4.034  19.340  0.00  0.00    +0.000 A 
ATOM     13  C   UNL     1       4.096   3.747  19.924  0.00  0.00    +0.000 A 
ATOM     14  C   UNL     1       3.089   4.720  20.002  0.00  0.00    +0.000 A 
ATOM     15  C   UNL     1       3.323   5.992  19.493  0.00  0.00    +0.000 A 
ATOM     16  C   UNL     1       4.596   6.252  18.946  0.00  0.00    +0.000 A 
BRANCH  11  17
ATOM     17  C   UNL     1       7.025   5.734  18.144  0.00  0.00    +0.000 C 
ATOM     18  C   UNL     1       8.110   6.294  19.103  0.00  0.00    +0.000 C 
ATOM     19  O   UNL     1       8.139   7.572  18.443  0.00  0.00    +0.000 OA
ATOM     20  C   UNL     1       7.125   7.155  17.512  0.00  0.00    +0.000 C 
BRANCH  17  21
ATOM     21  C   UNL     1       7.548   4.608  17.223  0.00  0.00    +0.000 C 
BRANCH  21  27
ATOM     22  C   UNL     1       4.820   3.520  16.007  0.00  0.00    +0.000 C 
ATOM     23  N   UNL     1       5.889   4.179  15.306  0.00  0.00    +0.000 N 
ATOM     24  C   UNL     1       5.917   4.401  13.962  0.00  0.00    +0.000 A 
ATOM     25  N   UNL     1       7.022   5.031  13.645  0.00  0.00    +0.000 NA
ATOM     26  N   UNL     1       7.741   5.211  14.800  0.00  0.00    +0.000 NA
ATOM     27  C   UNL     1       7.064   4.689  15.806  0.00  0.00    +0.000 A 
ENDBRANCH  21  27
ENDBRANCH  17  21
ENDBRANCH  11  17
ENDBRANCH   1  15
BRANCH   8  28
ATOM     28  C   UNL     1       0.301   9.378  22.669  0.00  0.00    +0.000 C 
ATOM     29  F   UNL     1      -0.401   8.307  23.144  0.00  0.00    +0.000 F 
ATOM     30  F   UNL     1       1.569   9.229  23.125  0.00  0.00    +0.000 F 
ATOM     31  F   UNL     1      -0.212  10.465  23.292  0.00  0.00    +0.000 F 
ENDBRANCH   8  28
BRANCH   6  32
ATOM     32  C   UNL     1      -1.404  11.741  18.504  0.00  0.00    +0.000 C 
BRANCH  32  33
ATOM     33  N   UNL     1      -2.835  11.530  18.681  0.00  0.00    +0.000 NA
ATOM     34  C   UNL     1      -3.580  11.765  17.417  0.00  0.00    +0.000 C 
ATOM     35  C   UNL     1      -4.948  12.176  17.867  0.00  0.00    +0.000 A 
ATOM     36  C   UNL     1      -6.110  12.318  17.128  0.00  0.00    +0.000 A 
ATOM     37  C   UNL     1      -7.294  12.597  17.813  0.00  0.00    +0.000 A 
ATOM     38  C   UNL     1      -7.302  12.675  19.217  0.00  0.00    +0.000 A 
ATOM     39  C   UNL     1      -6.111  12.559  19.951  0.00  0.00    +0.000 A 
ATOM     40  C   UNL     1      -4.929  12.381  19.249  0.00  0.00    +0.000 A 
ATOM     41  C   UNL     1      -3.497  12.369  19.699  0.00  0.00    +0.000 C 
BRANCH  39  42
ATOM     42  C   UNL     1      -6.149  12.520  21.382  0.00  0.00    +0.000 C 
ATOM     43  N   UNL     1      -6.139  12.519  22.543  0.00  0.00    +0.000 NA
ENDBRANCH  39  42
ENDBRANCH  32  33
ENDBRANCH   6  32
TORSDOF 8
ENDMDL
MODEL 4
REMARK VINA RESULT:      -9.7      1.424      2.381
REMARK  Name = 
REMARK  9 active torsions:
REMARK  status: ('A' for Active; 'I' for Inactive)
REMARK    1  A    between atoms: C_1  and  N_2
REMARK    2  A    between atoms: C_6  and  C_7
REMARK    3  A    between atoms: C_7  and  C_8
REMARK    4  A    between atoms: C_8  and  C_9
REMARK    5  A    between atoms: C_13  and  N_14
REMARK    6  A    between atoms: C_19  and  C_20
REMARK    7  A    between atoms: C_20  and  N_21
REMARK    8  A    between atoms: C_27  and  C_28
REMARK    9  A    between atoms: C_33  and  C_34
REMARK                            x       y       z     vdW  Elec       q    Type
REMARK                         _______ _______ _______ _____ _____    ______ ____
ROOT
ATOM      1  N   UNL     1       2.250   7.225  19.223  0.00  0.00    +0.000 N 
ATOM      2  C   UNL     1       1.622   7.537  20.493  0.00  0.00    +0.000 C 
ATOM      3  C   UNL     1       1.187   8.943  20.346  0.00  0.00    +0.000 A 
ATOM      4  C   UNL     1       1.453   9.387  19.056  0.00  0.00    +0.000 A 
ATOM      5  C   UNL     1       1.094  10.661  18.650  0.00  0.00    +0.000 A 
ATOM      6  C   UNL     1       0.436  11.496  19.577  0.00  0.00    +0.000 A 
ATOM      7  C   UNL     1       0.210  11.036  20.899  0.00  0.00    +0.000 A 
ATOM      8  C   UNL     1       0.594   9.750  21.312  0.00  0.00    +0.000 A 
ATOM      9  C   UNL     1       2.162   8.300  18.333  0.00  0.00    +0.000 C 
ATOM     10  O   UNL     1       2.569   8.415  17.191  0.00  0.00    +0.000 OA
ENDROOT
BRANCH   1  15
ATOM     11  C   UNL     1       4.856   4.796  18.040  0.00  0.00    +0.000 A 
ATOM     12  C   UNL     1       4.335   3.603  18.565  0.00  0.00    +0.000 A 
ATOM     13  C   UNL     1       3.165   3.595  19.338  0.00  0.00    +0.000 A 
ATOM     14  C   UNL     1       2.458   4.778  19.598  0.00  0.00    +0.000 A 
ATOM     15  C   UNL     1       2.924   5.982  19.082  0.00  0.00    +0.000 A 
ATOM     16  C   UNL     1       4.122   5.954  18.339  0.00  0.00    +0.000 A 
BRANCH  11  17
ATOM     17  C   UNL     1       6.191   4.906  17.142  0.00  0.00    +0.000 C 
ATOM     18  C   UNL     1       7.533   4.707  17.896  0.00  0.00    +0.000 C 
ATOM     19  O   UNL     1       7.990   6.036  17.583  0.00  0.00    +0.000 OA
ATOM     20  C   UNL     1       6.774   6.325  16.872  0.00  0.00    +0.000 C 
BRANCH  17  21
ATOM     21  C   UNL     1       6.070   4.033  15.871  0.00  0.00    +0.000 C 
BRANCH  21  27
ATOM     22  C   UNL     1       5.558   3.353  12.809  0.00  0.00    +0.000 C 
ATOM     23  N   UNL     1       6.543   4.249  13.353  0.00  0.00    +0.000 N 
ATOM     24  C   UNL     1       7.468   4.927  12.618  0.00  0.00    +0.000 A 
ATOM     25  N   UNL     1       8.205   5.663  13.413  0.00  0.00    +0.000 NA
ATOM     26  N   UNL     1       7.768   5.451  14.697  0.00  0.00    +0.000 NA
ATOM     27  C   UNL     1       6.768   4.589  14.667  0.00  0.00    +0.000 A 
ENDBRANCH  21  27
ENDBRANCH  17  21
ENDBRANCH  11  17
ENDBRANCH   1  15
BRANCH   8  28
ATOM     28  C   UNL     1       0.388   9.281  22.739  0.00  0.00    +0.000 C 
ATOM     29  F   UNL     1      -0.418   8.183  22.842  0.00  0.00    +0.000 F 
ATOM     30  F   UNL     1       1.558   8.946  23.336  0.00  0.00    +0.000 F 
ATOM     31  F   UNL     1      -0.184  10.235  23.509  0.00  0.00    +0.000 F 
ENDBRANCH   8  28
BRANCH   6  32
ATOM     32  C   UNL     1      -0.068  12.868  19.166  0.00  0.00    +0.000 C 
BRANCH  32  33
ATOM     33  N   UNL     1      -1.433  12.898  18.658  0.00  0.00    +0.000 NA
ATOM     34  C   UNL     1      -2.421  13.023  19.761  0.00  0.00    +0.000 C 
ATOM     35  C   UNL     1      -3.662  12.383  19.219  0.00  0.00    +0.000 A 
ATOM     36  C   UNL     1      -4.950  12.394  19.726  0.00  0.00    +0.000 A 
ATOM     37  C   UNL     1      -5.963  11.819  18.957  0.00  0.00    +0.000 A 
ATOM     38  C   UNL     1      -5.680  11.295  17.683  0.00  0.00    +0.000 A 
ATOM     39  C   UNL     1      -4.364  11.263  17.195  0.00  0.00    +0.000 A 
ATOM     40  C   UNL     1      -3.355  11.748  18.012  0.00  0.00    +0.000 A 
ATOM     41  C   UNL     1      -1.861  11.728  17.867  0.00  0.00    +0.000 C 
BRANCH  39  42
ATOM     42  C   UNL     1      -4.106  10.838  15.852  0.00  0.00    +0.000 C 
ATOM     43  N   UNL     1      -3.898  10.445  14.780  0.00  0.00    +0.000 NA
ENDBRANCH  39  42
ENDBRANCH  32  33
ENDBRANCH   6  32
TORSDOF 8
ENDMDL
MODEL 5
REMARK VINA RESULT:      -9.6      0.946      1.388
REMARK  Name = 
REMARK  9 active torsions:
REMARK  status: ('A' for Active; 'I' for Inactive)
REMARK    1  A    between atoms: C_1  and  N_2
REMARK    2  A    between atoms: C_6  and  C_7
REMARK    3  A    between atoms: C_7  and  C_8
REMARK    4  A    between atoms: C_8  and  C_9
REMARK    5  A    between atoms: C_13  and  N_14
REMARK    6  A    between atoms: C_19  and  C_20
REMARK    7  A    between atoms: C_20  and  N_21
REMARK    8  A    between atoms: C_27  and  C_28
REMARK    9  A    between atoms: C_33  and  C_34
REMARK                            x       y       z     vdW  Elec       q    Type
REMARK                         _______ _______ _______ _____ _____    ______ ____
ROOT
ATOM      1  N   UNL     1       2.297   7.290  19.178  0.00  0.00    +0.000 N 
ATOM      2  C   UNL     1       1.621   7.645  20.412  0.00  0.00    +0.000 C 
ATOM      3  C   UNL     1       1.213   9.052  20.210  0.00  0.00    +0.000 A 
ATOM      4  C   UNL     1       1.541   9.458  18.921  0.00  0.00    +0.000 A 
ATOM      5  C   UNL     1       1.218  10.725  18.467  0.00  0.00    +0.000 A 
ATOM      6  C   UNL     1       0.534  11.594  19.343  0.00  0.00    +0.000 A 
ATOM      7  C   UNL     1       0.245  11.173  20.666  0.00  0.00    +0.000 A 
ATOM      8  C   UNL     1       0.593   9.893  21.128  0.00  0.00    +0.000 A 
ATOM      9  C   UNL     1       2.263   8.342  18.258  0.00  0.00    +0.000 C 
ATOM     10  O   UNL     1       2.720   8.421  17.132  0.00  0.00    +0.000 OA
ENDROOT
BRANCH   1  15
ATOM     11  C   UNL     1       4.579   4.641  17.813  0.00  0.00    +0.000 A 
ATOM     12  C   UNL     1       4.270   3.581  18.681  0.00  0.00    +0.000 A 
ATOM     13  C   UNL     1       3.357   3.741  19.734  0.00  0.00    +0.000 A 
ATOM     14  C   UNL     1       2.700   4.962  19.945  0.00  0.00    +0.000 A 
ATOM     15  C   UNL     1       2.958   6.035  19.099  0.00  0.00    +0.000 A 
ATOM     16  C   UNL     1       3.907   5.845  18.075  0.00  0.00    +0.000 A 
BRANCH  11  17
ATOM     17  C   UNL     1       5.612   4.554  16.578  0.00  0.00    +0.000 C 
ATOM     18  C   UNL     1       5.316   5.498  15.381  0.00  0.00    +0.000 C 
ATOM     19  O   UNL     1       5.133   4.401  14.467  0.00  0.00    +0.000 OA
ATOM     20  C   UNL     1       5.380   3.443  15.510  0.00  0.00    +0.000 C 
BRANCH  17  21
ATOM     21  C   UNL     1       7.072   4.639  17.077  0.00  0.00    +0.000 C 
BRANCH  21  27
ATOM     22  C   UNL     1       8.052   5.690  19.912  0.00  0.00    +0.000 C 
ATOM     23  N   UNL     1       7.909   6.450  18.699  0.00  0.00    +0.000 N 
ATOM     24  C   UNL     1       8.133   7.789  18.590  0.00  0.00    +0.000 A 
ATOM     25  N   UNL     1       7.925   8.168  17.353  0.00  0.00    +0.000 NA
ATOM     26  N   UNL     1       7.540   7.060  16.640  0.00  0.00    +0.000 NA
ATOM     27  C   UNL     1       7.520   6.020  17.452  0.00  0.00    +0.000 A 
ENDBRANCH  21  27
ENDBRANCH  17  21
ENDBRANCH  11  17
ENDBRANCH   1  15
BRANCH   8  28
ATOM     28  C   UNL     1       0.319   9.465  22.557  0.00  0.00    +0.000 C 
ATOM     29  F   UNL     1       1.442   9.095  23.241  0.00  0.00    +0.000 F 
ATOM     30  F   UNL     1      -0.253  10.457  23.282  0.00  0.00    +0.000 F 
ATOM     31  F   UNL     1      -0.520   8.405  22.618  0.00  0.00    +0.000 F 
ENDBRANCH   8  28
BRANCH   6  32
ATOM     32  C   UNL     1       0.069  12.961  18.875  0.00  0.00    +0.000 C 
BRANCH  32  33
ATOM     33  N   UNL     1      -1.328  13.269  19.158  0.00  0.00    +0.000 NA
ATOM     34  C   UNL     1      -1.503  13.766  20.547  0.00  0.00    +0.000 C 
ATOM     35  C   UNL     1      -2.912  13.394  20.896  0.00  0.00    +0.000 A 
ATOM     36  C   UNL     1      -3.682  13.786  21.977  0.00  0.00    +0.000 A 
ATOM     37  C   UNL     1      -5.021  13.393  22.006  0.00  0.00    +0.000 A 
ATOM     38  C   UNL     1      -5.573  12.667  20.936  0.00  0.00    +0.000 A 
ATOM     39  C   UNL     1      -4.773  12.251  19.860  0.00  0.00    +0.000 A 
ATOM     40  C   UNL     1      -3.423  12.565  19.894  0.00  0.00    +0.000 A 
ATOM     41  C   UNL     1      -2.285  12.157  19.005  0.00  0.00    +0.000 C 
BRANCH  39  42
ATOM     42  C   UNL     1      -5.370  11.619  18.722  0.00  0.00    +0.000 C 
ATOM     43  N   UNL     1      -5.866  11.067  17.830  0.00  0.00    +0.000 NA
ENDBRANCH  39  42
ENDBRANCH  32  33
ENDBRANCH   6  32
TORSDOF 8
ENDMDL
MODEL 6
REMARK VINA RESULT:      -9.5      2.366      4.258
REMARK  Name = 
REMARK  9 active torsions:
REMARK  status: ('A' for Active; 'I' for Inactive)
REMARK    1  A    between atoms: C_1  and  N_2
REMARK    2  A    between atoms: C_6  and  C_7
REMARK    3  A    between atoms: C_7  and  C_8
REMARK    4  A    between atoms: C_8  and  C_9
REMARK    5  A    between atoms: C_13  and  N_14
REMARK    6  A    between atoms: C_19  and  C_20
REMARK    7  A    between atoms: C_20  and  N_21
REMARK    8  A    between atoms: C_27  and  C_28
REMARK    9  A    between atoms: C_33  and  C_34
REMARK                            x       y       z     vdW  Elec       q    Type
REMARK                         _______ _______ _______ _____ _____    ______ ____
ROOT
ATOM      1  N   UNL     1       2.246   7.305  19.192  0.00  0.00    +0.000 N 
ATOM      2  C   UNL     1       1.504   7.646  20.391  0.00  0.00    +0.000 C 
ATOM      3  C   UNL     1       1.043   9.030  20.151  0.00  0.00    +0.000 A 
ATOM      4  C   UNL     1       1.405   9.433  18.870  0.00  0.00    +0.000 A 
ATOM      5  C   UNL     1       1.046  10.678  18.383  0.00  0.00    +0.000 A 
ATOM      6  C   UNL     1       0.287  11.527  19.217  0.00  0.00    +0.000 A 
ATOM      7  C   UNL     1      -0.037  11.111  20.534  0.00  0.00    +0.000 A 
ATOM      8  C   UNL     1       0.348   9.855  21.030  0.00  0.00    +0.000 A 
ATOM      9  C   UNL     1       2.203   8.342  18.254  0.00  0.00    +0.000 C 
ATOM     10  O   UNL     1       2.703   8.425  17.147  0.00  0.00    +0.000 OA
ENDROOT
BRANCH   1  15
ATOM     11  C   UNL     1       4.613   4.694  17.900  0.00  0.00    +0.000 A 
ATOM     12  C   UNL     1       4.382   3.671  18.833  0.00  0.00    +0.000 A 
ATOM     13  C   UNL     1       3.493   3.846  19.904  0.00  0.00    +0.000 A 
ATOM     14  C   UNL     1       2.784   5.044  20.070  0.00  0.00    +0.000 A 
ATOM     15  C   UNL     1       2.964   6.079  19.160  0.00  0.00    +0.000 A 
ATOM     16  C   UNL     1       3.891   5.878  18.117  0.00  0.00    +0.000 A 
BRANCH  11  17
ATOM     17  C   UNL     1       5.612   4.588  16.638  0.00  0.00    +0.000 C 
ATOM     18  C   UNL     1       5.296   5.528  15.444  0.00  0.00    +0.000 C 
ATOM     19  O   UNL     1       5.077   4.427  14.542  0.00  0.00    +0.000 OA
ATOM     20  C   UNL     1       5.340   3.473  15.585  0.00  0.00    +0.000 C 
BRANCH  17  21
ATOM     21  C   UNL     1       7.086   4.660  17.099  0.00  0.00    +0.000 C 
BRANCH  21  27
ATOM     22  C   UNL     1       8.064   5.702  19.938  0.00  0.00    +0.000 C 
ATOM     23  N   UNL     1       7.941   6.461  18.722  0.00  0.00    +0.000 N 
ATOM     24  C   UNL     1       8.186   7.796  18.611  0.00  0.00    +0.000 A 
ATOM     25  N   UNL     1       7.992   8.175  17.372  0.00  0.00    +0.000 NA
ATOM     26  N   UNL     1       7.594   7.072  16.659  0.00  0.00    +0.000 NA
ATOM     27  C   UNL     1       7.553   6.034  17.473  0.00  0.00    +0.000 A 
ENDBRANCH  21  27
ENDBRANCH  17  21
ENDBRANCH  11  17
ENDBRANCH   1  15
BRANCH   8  28
ATOM     28  C   UNL     1       0.034   9.435  22.453  0.00  0.00    +0.000 C 
ATOM     29  F   UNL     1      -0.779   8.340  22.532  0.00  0.00    +0.000 F 
ATOM     30  F   UNL     1       1.155   9.122  23.147  0.00  0.00    +0.000 F 
ATOM     31  F   UNL     1      -0.593  10.415  23.145  0.00  0.00    +0.000 F 
ENDBRANCH   8  28
BRANCH   6  32
ATOM     32  C   UNL     1      -0.217  12.865  18.710  0.00  0.00    +0.000 C 
BRANCH  32  33
ATOM     33  N   UNL     1       0.121  14.010  19.546  0.00  0.00    +0.000 NA
ATOM     34  C   UNL     1      -0.119  15.292  18.835  0.00  0.00    +0.000 C 
ATOM     35  C   UNL     1       0.843  16.250  19.468  0.00  0.00    +0.000 A 
ATOM     36  C   UNL     1       0.918  17.627  19.348  0.00  0.00    +0.000 A 
ATOM     37  C   UNL     1       1.839  18.306  20.148  0.00  0.00    +0.000 A 
ATOM     38  C   UNL     1       2.623  17.606  21.082  0.00  0.00    +0.000 A 
ATOM     39  C   UNL     1       2.557  16.206  21.171  0.00  0.00    +0.000 A 
ATOM     40  C   UNL     1       1.709  15.538  20.301  0.00  0.00    +0.000 A 
ATOM     41  C   UNL     1       1.512  14.075  20.032  0.00  0.00    +0.000 C 
BRANCH  39  42
ATOM     42  C   UNL     1       3.269  15.518  22.205  0.00  0.00    +0.000 C 
ATOM     43  N   UNL     1       3.840  15.001  23.074  0.00  0.00    +0.000 NA
ENDBRANCH  39  42
ENDBRANCH  32  33
ENDBRANCH   6  32
TORSDOF 8
ENDMDL
MODEL 7
REMARK VINA RESULT:      -9.5      1.740      2.744
REMARK  Name = 
REMARK  9 active torsions:
REMARK  status: ('A' for Active; 'I' for Inactive)
REMARK    1  A    between atoms: C_1  and  N_2
REMARK    2  A    between atoms: C_6  and  C_7
REMARK    3  A    between atoms: C_7  and  C_8
REMARK    4  A    between atoms: C_8  and  C_9
REMARK    5  A    between atoms: C_13  and  N_14
REMARK    6  A    between atoms: C_19  and  C_20
REMARK    7  A    between atoms: C_20  and  N_21
REMARK    8  A    between atoms: C_27  and  C_28
REMARK    9  A    between atoms: C_33  and  C_34
REMARK                            x       y       z     vdW  Elec       q    Type
REMARK                         _______ _______ _______ _____ _____    ______ ____
ROOT
ATOM      1  N   UNL     1       2.248   7.609  19.092  0.00  0.00    +0.000 N 
ATOM      2  C   UNL     1       1.560   7.853  20.347  0.00  0.00    +0.000 C 
ATOM      3  C   UNL     1       1.080   9.247  20.232  0.00  0.00    +0.000 A 
ATOM      4  C   UNL     1       1.380   9.748  18.970  0.00  0.00    +0.000 A 
ATOM      5  C   UNL     1       0.991  11.022  18.595  0.00  0.00    +0.000 A 
ATOM      6  C   UNL     1       0.268  11.799  19.524  0.00  0.00    +0.000 A 
ATOM      7  C   UNL     1       0.007  11.284  20.819  0.00  0.00    +0.000 A 
ATOM      8  C   UNL     1       0.422   9.997  21.201  0.00  0.00    +0.000 A 
ATOM      9  C   UNL     1       2.155   8.713  18.238  0.00  0.00    +0.000 C 
ATOM     10  O   UNL     1       2.602   8.883  17.119  0.00  0.00    +0.000 OA
ENDROOT
BRANCH   1  15
ATOM     11  C   UNL     1       5.171   5.375  18.351  0.00  0.00    +0.000 A 
ATOM     12  C   UNL     1       4.549   4.120  18.442  0.00  0.00    +0.000 A 
ATOM     13  C   UNL     1       3.195   3.999  18.788  0.00  0.00    +0.000 A 
ATOM     14  C   UNL     1       2.405   5.131  19.033  0.00  0.00    +0.000 A 
ATOM     15  C   UNL     1       2.971   6.397  18.935  0.00  0.00    +0.000 A 
ATOM     16  C   UNL     1       4.343   6.476  18.620  0.00  0.00    +0.000 A 
BRANCH  11  17
ATOM     17  C   UNL     1       6.717   5.614  17.961  0.00  0.00    +0.000 C 
ATOM     18  C   UNL     1       7.665   5.970  19.139  0.00  0.00    +0.000 C 
ATOM     19  O   UNL     1       7.995   7.255  18.581  0.00  0.00    +0.000 OA
ATOM     20  C   UNL     1       7.131   7.028  17.454  0.00  0.00    +0.000 C 
BRANCH  17  21
ATOM     21  C   UNL     1       7.246   4.460  17.080  0.00  0.00    +0.000 C 
BRANCH  21  27
ATOM     22  C   UNL     1       5.079   3.204  15.122  0.00  0.00    +0.000 C 
ATOM     23  N   UNL     1       6.156   4.095  14.780  0.00  0.00    +0.000 N 
ATOM     24  C   UNL     1       6.449   4.512  13.517  0.00  0.00    +0.000 A 
ATOM     25  N   UNL     1       7.477   5.323  13.551  0.00  0.00    +0.000 NA
ATOM     26  N   UNL     1       7.879   5.428  14.859  0.00  0.00    +0.000 NA
ATOM     27  C   UNL     1       7.087   4.681  15.606  0.00  0.00    +0.000 A 
ENDBRANCH  21  27
ENDBRANCH  17  21
ENDBRANCH  11  17
ENDBRANCH   1  15
BRANCH   8  28
ATOM     28  C   UNL     1       0.178   9.469  22.602  0.00  0.00    +0.000 C 
ATOM     29  F   UNL     1      -0.611   8.355  22.635  0.00  0.00    +0.000 F 
ATOM     30  F   UNL     1       1.333   9.132  23.224  0.00  0.00    +0.000 F 
ATOM     31  F   UNL     1      -0.437  10.384  23.389  0.00  0.00    +0.000 F 
ENDBRANCH   8  28
BRANCH   6  32
ATOM     32  C   UNL     1      -0.268  13.167  19.142  0.00  0.00    +0.000 C 
BRANCH  32  33
ATOM     33  N   UNL     1      -1.682  13.378  19.430  0.00  0.00    +0.000 NA
ATOM     34  C   UNL     1      -1.895  13.769  20.847  0.00  0.00    +0.000 C 
ATOM     35  C   UNL     1      -3.284  13.299  21.154  0.00  0.00    +0.000 A 
ATOM     36  C   UNL     1      -4.082  13.574  22.251  0.00  0.00    +0.000 A 
ATOM     37  C   UNL     1      -5.397  13.108  22.238  0.00  0.00    +0.000 A 
ATOM     38  C   UNL     1      -5.901  12.428  21.115  0.00  0.00    +0.000 A 
ATOM     39  C   UNL     1      -5.071  12.130  20.023  0.00  0.00    +0.000 A 
ATOM     40  C   UNL     1      -3.741  12.513  20.093  0.00  0.00    +0.000 A 
ATOM     41  C   UNL     1      -2.575  12.229  19.191  0.00  0.00    +0.000 C 
BRANCH  39  42
ATOM     42  C   UNL     1      -5.625  11.547  18.838  0.00  0.00    +0.000 C 
ATOM     43  N   UNL     1      -6.119  11.069  17.902  0.00  0.00    +0.000 NA
ENDBRANCH  39  42
ENDBRANCH  32  33
ENDBRANCH   6  32
TORSDOF 8
ENDMDL
MODEL 8
REMARK VINA RESULT:      -9.2      3.378     11.150
REMARK  Name = 
REMARK  9 active torsions:
REMARK  status: ('A' for Active; 'I' for Inactive)
REMARK    1  A    between atoms: C_1  and  N_2
REMARK    2  A    between atoms: C_6  and  C_7
REMARK    3  A    between atoms: C_7  and  C_8
REMARK    4  A    between atoms: C_8  and  C_9
REMARK    5  A    between atoms: C_13  and  N_14
REMARK    6  A    between atoms: C_19  and  C_20
REMARK    7  A    between atoms: C_20  and  N_21
REMARK    8  A    between atoms: C_27  and  C_28
REMARK    9  A    between atoms: C_33  and  C_34
REMARK                            x       y       z     vdW  Elec       q    Type
REMARK                         _______ _______ _______ _____ _____    ______ ____
ROOT
ATOM      1  N   UNL     1      -1.829  12.289  20.031  0.00  0.00    +0.000 N 
ATOM      2  C   UNL     1      -1.239  11.469  21.073  0.00  0.00    +0.000 C 
ATOM      3  C   UNL     1      -0.278  10.605  20.355  0.00  0.00    +0.000 A 
ATOM      4  C   UNL     1      -0.239  10.959  19.011  0.00  0.00    +0.000 A 
ATOM      5  C   UNL     1       0.623  10.328  18.131  0.00  0.00    +0.000 A 
ATOM      6  C   UNL     1       1.474   9.322  18.636  0.00  0.00    +0.000 A 
ATOM      7  C   UNL     1       1.389   8.951  20.002  0.00  0.00    +0.000 A 
ATOM      8  C   UNL     1       0.498   9.581  20.886  0.00  0.00    +0.000 A 
ATOM      9  C   UNL     1      -1.252  12.022  18.785  0.00  0.00    +0.000 C 
ATOM     10  O   UNL     1      -1.483  12.499  17.690  0.00  0.00    +0.000 OA
ENDROOT
BRANCH   1  15
ATOM     11  C   UNL     1      -5.392  13.452  20.232  0.00  0.00    +0.000 A 
ATOM     12  C   UNL     1      -5.204  14.719  20.807  0.00  0.00    +0.000 A 
ATOM     13  C   UNL     1      -3.928  15.174  21.169  0.00  0.00    +0.000 A 
ATOM     14  C   UNL     1      -2.788  14.388  20.949  0.00  0.00    +0.000 A 
ATOM     15  C   UNL     1      -2.921  13.135  20.364  0.00  0.00    +0.000 A 
ATOM     16  C   UNL     1      -4.223  12.698  20.046  0.00  0.00    +0.000 A 
BRANCH  11  17
ATOM     17  C   UNL     1      -6.816  12.843  19.782  0.00  0.00    +0.000 C 
ATOM     18  C   UNL     1      -6.811  11.346  19.370  0.00  0.00    +0.000 C 
ATOM     19  O   UNL     1      -7.241  11.639  18.028  0.00  0.00    +0.000 OA
ATOM     20  C   UNL     1      -7.264  13.049  18.305  0.00  0.00    +0.000 C 
BRANCH  17  21
ATOM     21  C   UNL     1      -7.911  13.187  20.817  0.00  0.00    +0.000 C 
BRANCH  21  27
ATOM     22  C   UNL     1      -7.917  15.069  23.379  0.00  0.00    +0.000 C 
ATOM     23  N   UNL     1      -7.546  13.680  23.314  0.00  0.00    +0.000 N 
ATOM     24  C   UNL     1      -7.080  12.949  24.365  0.00  0.00    +0.000 A 
ATOM     25  N   UNL     1      -6.847  11.720  23.974  0.00  0.00    +0.000 NA
ATOM     26  N   UNL     1      -7.149  11.646  22.638  0.00  0.00    +0.000 NA
ATOM     27  C   UNL     1      -7.564  12.832  22.231  0.00  0.00    +0.000 A 
ENDBRANCH  21  27
ENDBRANCH  17  21
ENDBRANCH  11  17
ENDBRANCH   1  15
BRANCH   8  28
ATOM     28  C   UNL     1       0.383   9.149  22.335  0.00  0.00    +0.000 C 
ATOM     29  F   UNL     1      -0.725   8.393  22.593  0.00  0.00    +0.000 F 
ATOM     30  F   UNL     1       1.446   8.407  22.729  0.00  0.00    +0.000 F 
ATOM     31  F   UNL     1       0.314  10.208  23.176  0.00  0.00    +0.000 F 
ENDBRANCH   8  28
BRANCH   6  32
ATOM     32  C   UNL     1       2.507   8.658  17.743  0.00  0.00    +0.000 C 
BRANCH  32  33
ATOM     33  N   UNL     1       2.936   7.333  18.176  0.00  0.00    +0.000 NA
ATOM     34  C   UNL     1       4.132   6.877  17.421  0.00  0.00    +0.000 C 
ATOM     35  C   UNL     1       4.037   5.382  17.451  0.00  0.00    +0.000 A 
ATOM     36  C   UNL     1       4.979   4.435  17.088  0.00  0.00    +0.000 A 
ATOM     37  C   UNL     1       4.686   3.092  17.330  0.00  0.00    +0.000 A 
ATOM     38  C   UNL     1       3.488   2.729  17.972  0.00  0.00    +0.000 A 
ATOM     39  C   UNL     1       2.529   3.698  18.306  0.00  0.00    +0.000 A 
ATOM     40  C   UNL     1       2.792   5.017  17.971  0.00  0.00    +0.000 A 
ATOM     41  C   UNL     1       1.942   6.251  18.046  0.00  0.00    +0.000 C 
BRANCH  39  42
ATOM     42  C   UNL     1       1.372   3.331  19.066  0.00  0.00    +0.000 C 
ATOM     43  N   UNL     1       0.456   2.988  19.692  0.00  0.00    +0.000 NA
ENDBRANCH  39  42
ENDBRANCH  32  33
ENDBRANCH   6  32
TORSDOF 8
ENDMDL
MODEL 9
REMARK VINA RESULT:      -9.2      3.484      4.644
REMARK  Name = 
REMARK  9 active torsions:
REMARK  status: ('A' for Active; 'I' for Inactive)
REMARK    1  A    between atoms: C_1  and  N_2
REMARK    2  A    between atoms: C_6  and  C_7
REMARK    3  A    between atoms: C_7  and  C_8
REMARK    4  A    between atoms: C_8  and  C_9
REMARK    5  A    between atoms: C_13  and  N_14
REMARK    6  A    between atoms: C_19  and  C_20
REMARK    7  A    between atoms: C_20  and  N_21
REMARK    8  A    between atoms: C_27  and  C_28
REMARK    9  A    between atoms: C_33  and  C_34
REMARK                            x       y       z     vdW  Elec       q    Type
REMARK                         _______ _______ _______ _____ _____    ______ ____
ROOT
ATOM      1  N   UNL     1       2.213   6.907  19.304  0.00  0.00    +0.000 N 
ATOM      2  C   UNL     1       2.056   8.228  18.725  0.00  0.00    +0.000 C 
ATOM      3  C   UNL     1       1.274   8.976  19.732  0.00  0.00    +0.000 A 
ATOM      4  C   UNL     1       1.072   8.183  20.857  0.00  0.00    +0.000 A 
ATOM      5  C   UNL     1       0.406   8.672  21.967  0.00  0.00    +0.000 A 
ATOM      6  C   UNL     1      -0.054  10.006  21.935  0.00  0.00    +0.000 A 
ATOM      7  C   UNL     1       0.128  10.783  20.763  0.00  0.00    +0.000 A 
ATOM      8  C   UNL     1       0.787  10.275  19.632  0.00  0.00    +0.000 A 
ATOM      9  C   UNL     1       1.648   6.841  20.582  0.00  0.00    +0.000 C 
ATOM     10  O   UNL     1       1.580   5.914  21.368  0.00  0.00    +0.000 OA
ENDROOT
BRANCH   1  15
ATOM     11  C   UNL     1       4.875   5.065  17.405  0.00  0.00    +0.000 A 
ATOM     12  C   UNL     1       4.108   4.028  16.852  0.00  0.00    +0.000 A 
ATOM     13  C   UNL     1       2.739   3.902  17.132  0.00  0.00    +0.000 A 
ATOM     14  C   UNL     1       2.080   4.823  17.959  0.00  0.00    +0.000 A 
ATOM     15  C   UNL     1       2.793   5.879  18.514  0.00  0.00    +0.000 A 
ATOM     16  C   UNL     1       4.174   5.952  18.237  0.00  0.00    +0.000 A 
BRANCH  11  17
ATOM     17  C   UNL     1       6.450   5.293  17.142  0.00  0.00    +0.000 C 
ATOM     18  C   UNL     1       7.331   5.454  18.410  0.00  0.00    +0.000 C 
ATOM     19  O   UNL     1       7.736   6.787  18.047  0.00  0.00    +0.000 OA
ATOM     20  C   UNL     1       6.939   6.743  16.851  0.00  0.00    +0.000 C 
BRANCH  17  21
ATOM     21  C   UNL     1       6.997   4.242  16.148  0.00  0.00    +0.000 C 
BRANCH  21  27
ATOM     22  C   UNL     1       5.518   3.561  13.418  0.00  0.00    +0.000 C 
ATOM     23  N   UNL     1       6.644   4.435  13.609  0.00  0.00    +0.000 N 
ATOM     24  C   UNL     1       7.300   5.087  12.608  0.00  0.00    +0.000 A 
ATOM     25  N   UNL     1       8.269   5.808  13.117  0.00  0.00    +0.000 NA
ATOM     26  N   UNL     1       8.261   5.612  14.476  0.00  0.00    +0.000 NA
ATOM     27  C   UNL     1       7.285   4.776  14.777  0.00  0.00    +0.000 A 
ENDBRANCH  21  27
ENDBRANCH  17  21
ENDBRANCH  11  17
ENDBRANCH   1  15
BRANCH   8  28
ATOM     28  C   UNL     1       0.940  11.098  18.367  0.00  0.00    +0.000 C 
ATOM     29  F   UNL     1       2.221  11.143  17.897  0.00  0.00    +0.000 F 
ATOM     30  F   UNL     1       0.183  10.612  17.353  0.00  0.00    +0.000 F 
ATOM     31  F   UNL     1       0.566  12.385  18.551  0.00  0.00    +0.000 F 
ENDBRANCH   8  28
BRANCH   6  32
ATOM     32  C   UNL     1      -0.709  10.631  23.153  0.00  0.00    +0.000 C 
BRANCH  32  33
ATOM     33  N   UNL     1      -1.649  11.707  22.865  0.00  0.00    +0.000 NA
ATOM     34  C   UNL     1      -1.026  13.041  23.065  0.00  0.00    +0.000 C 
ATOM     35  C   UNL     1      -2.177  13.939  23.399  0.00  0.00    +0.000 A 
ATOM     36  C   UNL     1      -2.220  15.320  23.482  0.00  0.00    +0.000 A 
ATOM     37  C   UNL     1      -3.458  15.927  23.693  0.00  0.00    +0.000 A 
ATOM     38  C   UNL     1      -4.629  15.151  23.764  0.00  0.00    +0.000 A 
ATOM     39  C   UNL     1      -4.567  13.750  23.709  0.00  0.00    +0.000 A 
ATOM     40  C   UNL     1      -3.319  13.157  23.598  0.00  0.00    +0.000 A 
ATOM     41  C   UNL     1      -2.890  11.720  23.661  0.00  0.00    +0.000 C 
BRANCH  39  42
ATOM     42  C   UNL     1      -5.772  12.979  23.661  0.00  0.00    +0.000 C 
ATOM     43  N   UNL     1      -6.723  12.315  23.600  0.00  0.00    +0.000 NA
ENDBRANCH  39  42
ENDBRANCH  32  33
ENDBRANCH   6  32
TORSDOF 8
ENDMDL
