MODEL 1
REMARK VINA RESULT:      -9.4      0.000      0.000
REMARK  Name = 
REMARK  5 active torsions:
REMARK  status: ('A' for Active; 'I' for Inactive)
REMARK    1  A    between atoms: C_1  and  N_2
REMARK    2  A    between atoms: C_6  and  C_7
REMARK    3  A    between atoms: C_9  and  C_10
REMARK    4  A    between atoms: C_14  and  N_15
REMARK    5  A    between atoms: C_22  and  C_23
REMARK                            x       y       z     vdW  Elec       q    Type
REMARK                         _______ _______ _______ _____ _____    ______ ____
ROOT
ATOM      1  C   UNL     1       3.063   5.685  18.446  0.00  0.00    +0.000 A 
ATOM      2  C   UNL     1       2.711   4.659  19.336  0.00  0.00    +0.000 A 
ATOM      3  C   UNL     1       1.973   4.911  20.506  0.00  0.00    +0.000 A 
ATOM      4  C   UNL     1       1.575   6.212  20.837  0.00  0.00    +0.000 A 
ATOM      5  C   UNL     1       1.882   7.246  19.969  0.00  0.00    +0.000 A 
ATOM      6  C   UNL     1       2.602   6.952  18.800  0.00  0.00    +0.000 A 
ENDROOT
BRANCH   5   7
ATOM      7  N   UNL     1       1.434   8.572  20.138  0.00  0.00    +0.000 N 
ATOM      8  C   UNL     1       1.090   9.351  18.968  0.00  0.00    +0.000 C 
ATOM      9  C   UNL     1       0.103  10.307  19.522  0.00  0.00    +0.000 A 
ATOM     10  C   UNL     1       0.367  10.467  20.878  0.00  0.00    +0.000 A 
ATOM     11  C   UNL     1      -0.196  11.491  21.611  0.00  0.00    +0.000 A 
ATOM     12  C   UNL     1      -1.114  12.317  20.955  0.00  0.00    +0.000 A 
ATOM     13  C   UNL     1      -1.559  11.992  19.659  0.00  0.00    +0.000 A 
ATOM     14  C   UNL     1      -0.994  10.920  18.947  0.00  0.00    +0.000 A 
ATOM     15  C   UNL     1       1.106   9.253  21.311  0.00  0.00    +0.000 C 
ATOM     16  O   UNL     1       1.268   8.939  22.474  0.00  0.00    +0.000 OA
BRANCH  14  17
ATOM     17  C   UNL     1      -1.712  10.320  17.761  0.00  0.00    +0.000 C 
ATOM     18  F   UNL     1      -2.836   9.616  18.078  0.00  0.00    +0.000 F 
ATOM     19  F   UNL     1      -2.145  11.295  16.908  0.00  0.00    +0.000 F 
ATOM     20  F   UNL     1      -0.939   9.488  17.021  0.00  0.00    +0.000 F 
ENDBRANCH  14  17
ENDBRANCH   5   7
BRANCH   1  23
ATOM     21  C   UNL     1       5.394   5.232  17.100  0.00  0.00    +0.000 C 
ATOM     22  C   UNL     1       4.718   6.478  16.553  0.00  0.00    +0.000 C 
ATOM     23  C   UNL     1       3.882   5.416  17.197  0.00  0.00    +0.000 C 
BRANCH  21  29
ATOM     24  C   UNL     1       7.661   7.445  17.229  0.00  0.00    +0.000 C 
ATOM     25  N   UNL     1       7.367   6.474  18.239  0.00  0.00    +0.000 N 
ATOM     26  C   UNL     1       8.075   6.287  19.392  0.00  0.00    +0.000 A 
ATOM     27  N   UNL     1       7.592   5.243  20.035  0.00  0.00    +0.000 NA
ATOM     28  N   UNL     1       6.556   4.740  19.285  0.00  0.00    +0.000 NA
ATOM     29  C   UNL     1       6.439   5.465  18.188  0.00  0.00    +0.000 A 
ENDBRANCH  21  29
ENDBRANCH   1  23
TORSDOF 4
ENDMDL
MODEL 2
REMARK VINA RESULT:      -9.1      3.632      7.487
REMARK  Name = 
REMARK  5 active torsions:
REMARK  status: ('A' for Active; 'I' for Inactive)
REMARK    1  A    between atoms: C_1  and  N_2
REMARK    2  A    between atoms: C_6  and  C_7
REMARK    3  A    between atoms: C_9  and  C_10
REMARK    4  A    between atoms: C_14  and  N_15
REMARK    5  A    between atoms: C_22  and  C_23
REMARK                            x       y       z     vdW  Elec       q    Type
REMARK                         _______ _______ _______ _____ _____    ______ ____
ROOT
ATOM      1  C   UNL     1       0.343  10.444  20.004  0.00  0.00    +0.000 A 
ATOM      2  C   UNL     1      -0.054  10.385  21.349  0.00  0.00    +0.000 A 
ATOM      3  C   UNL     1       0.249   9.281  22.165  0.00  0.00    +0.000 A 
ATOM      4  C   UNL     1       0.949   8.182  21.654  0.00  0.00    +0.000 A 
ATOM      5  C   UNL     1       1.381   8.216  20.339  0.00  0.00    +0.000 A 
ATOM      6  C   UNL     1       1.077   9.344  19.561  0.00  0.00    +0.000 A 
ENDROOT
BRANCH   5   7
ATOM      7  N   UNL     1       2.191   7.223  19.752  0.00  0.00    +0.000 N 
ATOM      8  C   UNL     1       2.264   5.919  20.377  0.00  0.00    +0.000 C 
ATOM      9  C   UNL     1       2.589   5.049  19.222  0.00  0.00    +0.000 A 
ATOM     10  C   UNL     1       3.244   5.821  18.268  0.00  0.00    +0.000 A 
ATOM     11  C   UNL     1       3.915   5.248  17.207  0.00  0.00    +0.000 A 
ATOM     12  C   UNL     1       3.838   3.858  17.079  0.00  0.00    +0.000 A 
ATOM     13  C   UNL     1       2.969   3.117  17.903  0.00  0.00    +0.000 A 
ATOM     14  C   UNL     1       2.269   3.732  18.955  0.00  0.00    +0.000 A 
ATOM     15  C   UNL     1       2.856   7.232  18.526  0.00  0.00    +0.000 C 
ATOM     16  O   UNL     1       3.034   8.138  17.735  0.00  0.00    +0.000 OA
BRANCH  14  17
ATOM     17  C   UNL     1       1.063   3.064  19.571  0.00  0.00    +0.000 C 
ATOM     18  F   UNL     1       1.350   2.229  20.611  0.00  0.00    +0.000 F 
ATOM     19  F   UNL     1       0.207   3.989  20.097  0.00  0.00    +0.000 F 
ATOM     20  F   UNL     1       0.334   2.335  18.691  0.00  0.00    +0.000 F 
ENDBRANCH  14  17
ENDBRANCH   5   7
BRANCH   1  23
ATOM     21  C   UNL     1       0.676  12.989  19.074  0.00  0.00    +0.000 C 
ATOM     22  C   UNL     1      -0.724  12.828  19.643  0.00  0.00    +0.000 C 
ATOM     23  C   UNL     1      -0.007  11.624  19.116  0.00  0.00    +0.000 C 
BRANCH  21  29
ATOM     24  C   UNL     1       3.560  14.131  18.417  0.00  0.00    +0.000 C 
ATOM     25  N   UNL     1       2.941  14.087  19.707  0.00  0.00    +0.000 N 
ATOM     26  C   UNL     1       3.527  14.454  20.884  0.00  0.00    +0.000 A 
ATOM     27  N   UNL     1       2.710  14.184  21.882  0.00  0.00    +0.000 NA
ATOM     28  N   UNL     1       1.573  13.629  21.344  0.00  0.00    +0.000 NA
ATOM     29  C   UNL     1       1.724  13.543  20.035  0.00  0.00    +0.000 A 
ENDBRANCH  21  29
ENDBRANCH   1  23
TORSDOF 4
ENDMDL
MODEL 3
REMARK VINA RESULT:      -9.1      3.529      7.762
REMARK  Name = 
REMARK  5 active torsions:
REMARK  status: ('A' for Active; 'I' for Inactive)
REMARK    1  A    between atoms: C_1  and  N_2
REMARK    2  A    between atoms: C_6  and  C_7
REMARK    3  A    between atoms: C_9  and  C_10
REMARK    4  A    between atoms: C_14  and  N_15
REMARK    5  A    between atoms: C_22  and  C_23
REMARK                            x       y       z     vdW  Elec       q    Type
REMARK                         _______ _______ _______ _____ _____    ______ ____
ROOT
ATOM      1  C   UNL     1      -0.194  10.236  19.694  0.00  0.00    +0.000 A 
ATOM      2  C   UNL     1      -0.209  10.522  21.067  0.00  0.00    +0.000 A 
ATOM      3  C   UNL     1       0.523   9.758  21.993  0.00  0.00    +0.000 A 
ATOM      4  C   UNL     1       1.288   8.663  21.574  0.00  0.00    +0.000 A 
ATOM      5  C   UNL     1       1.348   8.368  20.223  0.00  0.00    +0.000 A 
ATOM      6  C   UNL     1       0.619   9.165  19.326  0.00  0.00    +0.000 A 
ENDROOT
BRANCH   5   7
ATOM      7  N   UNL     1       2.175   7.365  19.675  0.00  0.00    +0.000 N 
ATOM      8  C   UNL     1       2.264   6.086  20.346  0.00  0.00    +0.000 C 
ATOM      9  C   UNL     1       2.604   5.180  19.224  0.00  0.00    +0.000 A 
ATOM     10  C   UNL     1       3.252   5.925  18.245  0.00  0.00    +0.000 A 
ATOM     11  C   UNL     1       3.934   5.325  17.208  0.00  0.00    +0.000 A 
ATOM     12  C   UNL     1       3.878   3.930  17.129  0.00  0.00    +0.000 A 
ATOM     13  C   UNL     1       3.016   3.207  17.977  0.00  0.00    +0.000 A 
ATOM     14  C   UNL     1       2.304   3.849  19.004  0.00  0.00    +0.000 A 
ATOM     15  C   UNL     1       2.844   7.340  18.451  0.00  0.00    +0.000 C 
ATOM     16  O   UNL     1       3.011   8.218  17.628  0.00  0.00    +0.000 OA
BRANCH  14  17
ATOM     17  C   UNL     1       1.105   3.187  19.641  0.00  0.00    +0.000 C 
ATOM     18  F   UNL     1       0.336   2.462  18.778  0.00  0.00    +0.000 F 
ATOM     19  F   UNL     1       1.492   2.290  20.595  0.00  0.00    +0.000 F 
ATOM     20  F   UNL     1       0.266   4.055  20.258  0.00  0.00    +0.000 F 
ENDBRANCH  14  17
ENDBRANCH   5   7
BRANCH   1  23
ATOM     21  C   UNL     1      -0.797  12.502  18.296  0.00  0.00    +0.000 C 
ATOM     22  C   UNL     1      -1.992  12.082  19.135  0.00  0.00    +0.000 C 
ATOM     23  C   UNL     1      -1.006  11.045  18.698  0.00  0.00    +0.000 C 
BRANCH  21  29
ATOM     24  C   UNL     1       2.373  12.588  18.264  0.00  0.00    +0.000 C 
ATOM     25  N   UNL     1       1.505  13.566  18.847  0.00  0.00    +0.000 N 
ATOM     26  C   UNL     1       1.905  14.657  19.564  0.00  0.00    +0.000 A 
ATOM     27  N   UNL     1       0.845  15.279  20.040  0.00  0.00    +0.000 NA
ATOM     28  N   UNL     1      -0.263  14.577  19.629  0.00  0.00    +0.000 NA
ATOM     29  C   UNL     1       0.137  13.527  18.935  0.00  0.00    +0.000 A 
ENDBRANCH  21  29
ENDBRANCH   1  23
TORSDOF 4
ENDMDL
MODEL 4
REMARK VINA RESULT:      -8.9      3.523      8.083
REMARK  Name = 
REMARK  5 active torsions:
REMARK  status: ('A' for Active; 'I' for Inactive)
REMARK    1  A    between atoms: C_1  and  N_2
REMARK    2  A    between atoms: C_6  and  C_7
REMARK    3  A    between atoms: C_9  and  C_10
REMARK    4  A    between atoms: C_14  and  N_15
REMARK    5  A    between atoms: C_22  and  C_23
REMARK                            x       y       z     vdW  Elec       q    Type
REMARK                         _______ _______ _______ _____ _____    ______ ____
ROOT
ATOM      1  C   UNL     1      -0.222  11.100  20.882  0.00  0.00    +0.000 A 
ATOM      2  C   UNL     1      -0.707  10.812  22.166  0.00  0.00    +0.000 A 
ATOM      3  C   UNL     1      -0.420   9.597  22.813  0.00  0.00    +0.000 A 
ATOM      4  C   UNL     1       0.355   8.615  22.185  0.00  0.00    +0.000 A 
ATOM      5  C   UNL     1       0.874   8.876  20.927  0.00  0.00    +0.000 A 
ATOM      6  C   UNL     1       0.581  10.108  20.321  0.00  0.00    +0.000 A 
ENDROOT
BRANCH   5   7
ATOM      7  N   UNL     1       1.759   8.013  20.249  0.00  0.00    +0.000 N 
ATOM      8  C   UNL     1       2.165   6.780  20.890  0.00  0.00    +0.000 C 
ATOM      9  C   UNL     1       2.471   5.921  19.723  0.00  0.00    +0.000 A 
ATOM     10  C   UNL     1       2.823   6.743  18.658  0.00  0.00    +0.000 A 
ATOM     11  C   UNL     1       3.425   6.243  17.522  0.00  0.00    +0.000 A 
ATOM     12  C   UNL     1       3.590   4.857  17.445  0.00  0.00    +0.000 A 
ATOM     13  C   UNL     1       3.005   4.018  18.414  0.00  0.00    +0.000 A 
ATOM     14  C   UNL     1       2.366   4.554  19.545  0.00  0.00    +0.000 A 
ATOM     15  C   UNL     1       2.222   8.074  18.935  0.00  0.00    +0.000 C 
ATOM     16  O   UNL     1       2.110   8.952  18.101  0.00  0.00    +0.000 OA
BRANCH  14  17
ATOM     17  C   UNL     1       1.410   3.716  20.359  0.00  0.00    +0.000 C 
ATOM     18  F   UNL     1       1.736   3.608  21.679  0.00  0.00    +0.000 F 
ATOM     19  F   UNL     1       0.158   4.261  20.357  0.00  0.00    +0.000 F 
ATOM     20  F   UNL     1       1.269   2.448  19.899  0.00  0.00    +0.000 F 
ENDBRANCH  14  17
ENDBRANCH   5   7
BRANCH   1  23
ATOM     21  C   UNL     1      -1.557  12.611  19.041  0.00  0.00    +0.000 C 
ATOM     22  C   UNL     1      -0.061  12.700  18.792  0.00  0.00    +0.000 C 
ATOM     23  C   UNL     1      -0.554  12.401  20.173  0.00  0.00    +0.000 C 
BRANCH  21  29
ATOM     24  C   UNL     1      -4.674  12.041  18.925  0.00  0.00    +0.000 C 
ATOM     25  N   UNL     1      -3.662  11.370  18.166  0.00  0.00    +0.000 N 
ATOM     26  C   UNL     1      -3.866  10.312  17.327  0.00  0.00    +0.000 A 
ATOM     27  N   UNL     1      -2.704   9.880  16.880  0.00  0.00    +0.000 NA
ATOM     28  N   UNL     1      -1.728  10.668  17.441  0.00  0.00    +0.000 NA
ATOM     29  C   UNL     1      -2.303  11.548  18.239  0.00  0.00    +0.000 A 
ENDBRANCH  21  29
ENDBRANCH   1  23
TORSDOF 4
ENDMDL
MODEL 5
REMARK VINA RESULT:      -8.9      1.628      2.536
REMARK  Name = 
REMARK  5 active torsions:
REMARK  status: ('A' for Active; 'I' for Inactive)
REMARK    1  A    between atoms: C_1  and  N_2
REMARK    2  A    between atoms: C_6  and  C_7
REMARK    3  A    between atoms: C_9  and  C_10
REMARK    4  A    between atoms: C_14  and  N_15
REMARK    5  A    between atoms: C_22  and  C_23
REMARK                            x       y       z     vdW  Elec       q    Type
REMARK                         _______ _______ _______ _____ _____    ______ ____
ROOT
ATOM      1  C   UNL     1       2.867   6.779  18.752  0.00  0.00    +0.000 A 
ATOM      2  C   UNL     1       2.654   5.936  19.853  0.00  0.00    +0.000 A 
ATOM      3  C   UNL     1       1.836   6.315  20.931  0.00  0.00    +0.000 A 
ATOM      4  C   UNL     1       1.212   7.567  20.953  0.00  0.00    +0.000 A 
ATOM      5  C   UNL     1       1.377   8.416  19.870  0.00  0.00    +0.000 A 
ATOM      6  C   UNL     1       2.186   7.994  18.803  0.00  0.00    +0.000 A 
ENDROOT
BRANCH   5   7
ATOM      7  N   UNL     1       0.707   9.648  19.729  0.00  0.00    +0.000 N 
ATOM      8  C   UNL     1       0.119   9.983  18.449  0.00  0.00    +0.000 C 
ATOM      9  C   UNL     1      -0.976  10.897  18.852  0.00  0.00    +0.000 A 
ATOM     10  C   UNL     1      -0.625  11.490  20.060  0.00  0.00    +0.000 A 
ATOM     11  C   UNL     1      -1.300  12.587  20.554  0.00  0.00    +0.000 A 
ATOM     12  C   UNL     1      -2.412  13.030  19.831  0.00  0.00    +0.000 A 
ATOM     13  C   UNL     1      -2.904  12.272  18.751  0.00  0.00    +0.000 A 
ATOM     14  C   UNL     1      -2.216  11.137  18.290  0.00  0.00    +0.000 A 
ATOM     15  C   UNL     1       0.365  10.587  20.703  0.00  0.00    +0.000 C 
ATOM     16  O   UNL     1       0.687  10.659  21.872  0.00  0.00    +0.000 OA
BRANCH  14  17
ATOM     17  C   UNL     1      -2.912  10.111  17.428  0.00  0.00    +0.000 C 
ATOM     18  F   UNL     1      -3.320   8.995  18.098  0.00  0.00    +0.000 F 
ATOM     19  F   UNL     1      -4.055  10.624  16.885  0.00  0.00    +0.000 F 
ATOM     20  F   UNL     1      -2.163   9.674  16.387  0.00  0.00    +0.000 F 
ENDBRANCH  14  17
ENDBRANCH   5   7
BRANCH   1  23
ATOM     21  C   UNL     1       4.418   5.019  17.355  0.00  0.00    +0.000 C 
ATOM     22  C   UNL     1       5.250   6.220  17.771  0.00  0.00    +0.000 C 
ATOM     23  C   UNL     1       3.772   6.380  17.600  0.00  0.00    +0.000 C 
BRANCH  21  29
ATOM     24  C   UNL     1       2.436   2.549  17.519  0.00  0.00    +0.000 C 
ATOM     25  N   UNL     1       3.622   2.736  18.299  0.00  0.00    +0.000 N 
ATOM     26  C   UNL     1       4.050   1.918  19.305  0.00  0.00    +0.000 A 
ATOM     27  N   UNL     1       5.114   2.446  19.874  0.00  0.00    +0.000 NA
ATOM     28  N   UNL     1       5.381   3.630  19.229  0.00  0.00    +0.000 NA
ATOM     29  C   UNL     1       4.464   3.819  18.298  0.00  0.00    +0.000 A 
ENDBRANCH  21  29
ENDBRANCH   1  23
TORSDOF 4
ENDMDL
MODEL 6
REMARK VINA RESULT:      -8.9      3.443      7.656
REMARK  Name = 
REMARK  5 active torsions:
REMARK  status: ('A' for Active; 'I' for Inactive)
REMARK    1  A    between atoms: C_1  and  N_2
REMARK    2  A    between atoms: C_6  and  C_7
REMARK    3  A    between atoms: C_9  and  C_10
REMARK    4  A    between atoms: C_14  and  N_15
REMARK    5  A    between atoms: C_22  and  C_23
REMARK                            x       y       z     vdW  Elec       q    Type
REMARK                         _______ _______ _______ _____ _____    ______ ____
ROOT
ATOM      1  C   UNL     1      -0.125  10.180  20.038  0.00  0.00    +0.000 A 
ATOM      2  C   UNL     1      -0.094  10.397  21.424  0.00  0.00    +0.000 A 
ATOM      3  C   UNL     1       0.659   9.582  22.286  0.00  0.00    +0.000 A 
ATOM      4  C   UNL     1       1.398   8.502  21.790  0.00  0.00    +0.000 A 
ATOM      5  C   UNL     1       1.413   8.274  20.424  0.00  0.00    +0.000 A 
ATOM      6  C   UNL     1       0.664   9.122  19.592  0.00  0.00    +0.000 A 
ENDROOT
BRANCH   5   7
ATOM      7  N   UNL     1       2.211   7.293  19.801  0.00  0.00    +0.000 N 
ATOM      8  C   UNL     1       2.310   5.981  20.407  0.00  0.00    +0.000 C 
ATOM      9  C   UNL     1       2.604   5.128  19.231  0.00  0.00    +0.000 A 
ATOM     10  C   UNL     1       3.226   5.915  18.268  0.00  0.00    +0.000 A 
ATOM     11  C   UNL     1       3.868   5.360  17.180  0.00  0.00    +0.000 A 
ATOM     12  C   UNL     1       3.795   3.971  17.037  0.00  0.00    +0.000 A 
ATOM     13  C   UNL     1       2.955   3.215  17.877  0.00  0.00    +0.000 A 
ATOM     14  C   UNL     1       2.284   3.812  18.957  0.00  0.00    +0.000 A 
ATOM     15  C   UNL     1       2.839   7.321  18.555  0.00  0.00    +0.000 C 
ATOM     16  O   UNL     1       2.987   8.237  17.771  0.00  0.00    +0.000 OA
BRANCH  14  17
ATOM     17  C   UNL     1       1.101   3.130  19.602  0.00  0.00    +0.000 C 
ATOM     18  F   UNL     1       0.189   3.981  20.154  0.00  0.00    +0.000 F 
ATOM     19  F   UNL     1       0.390   2.413  18.683  0.00  0.00    +0.000 F 
ATOM     20  F   UNL     1       1.443   2.255  20.579  0.00  0.00    +0.000 F 
ENDBRANCH  14  17
ENDBRANCH   5   7
BRANCH   1  23
ATOM     21  C   UNL     1      -0.532  12.328  18.403  0.00  0.00    +0.000 C 
ATOM     22  C   UNL     1      -1.531  12.357  19.548  0.00  0.00    +0.000 C 
ATOM     23  C   UNL     1      -0.959  11.045  19.110  0.00  0.00    +0.000 C 
BRANCH  21  29
ATOM     24  C   UNL     1      -0.210  15.451  18.854  0.00  0.00    +0.000 C 
ATOM     25  N   UNL     1       0.842  14.480  18.869  0.00  0.00    +0.000 N 
ATOM     26  C   UNL     1       2.174  14.752  18.996  0.00  0.00    +0.000 A 
ATOM     27  N   UNL     1       2.863  13.637  18.862  0.00  0.00    +0.000 NA
ATOM     28  N   UNL     1       1.963  12.622  18.640  0.00  0.00    +0.000 NA
ATOM     29  C   UNL     1       0.746  13.135  18.615  0.00  0.00    +0.000 A 
ENDBRANCH  21  29
ENDBRANCH   1  23
TORSDOF 4
ENDMDL
MODEL 7
REMARK VINA RESULT:      -8.9      3.849      7.869
REMARK  Name = 
REMARK  5 active torsions:
REMARK  status: ('A' for Active; 'I' for Inactive)
REMARK    1  A    between atoms: C_1  and  N_2
REMARK    2  A    between atoms: C_6  and  C_7
REMARK    3  A    between atoms: C_9  and  C_10
REMARK    4  A    between atoms: C_14  and  N_15
REMARK    5  A    between atoms: C_22  and  C_23
REMARK                            x       y       z     vdW  Elec       q    Type
REMARK                         _______ _______ _______ _____ _____    ______ ____
ROOT
ATOM      1  C   UNL     1       0.841   9.608  19.199  0.00  0.00    +0.000 A 
ATOM      2  C   UNL     1       0.803   9.321  20.572  0.00  0.00    +0.000 A 
ATOM      3  C   UNL     1       1.453   8.199  21.114  0.00  0.00    +0.000 A 
ATOM      4  C   UNL     1       2.154   7.309  20.293  0.00  0.00    +0.000 A 
ATOM      5  C   UNL     1       2.236   7.575  18.936  0.00  0.00    +0.000 A 
ATOM      6  C   UNL     1       1.590   8.716  18.434  0.00  0.00    +0.000 A 
ENDROOT
BRANCH   5   7
ATOM      7  N   UNL     1       3.009   6.817  18.033  0.00  0.00    +0.000 N 
ATOM      8  C   UNL     1       4.071   7.471  17.299  0.00  0.00    +0.000 C 
ATOM      9  C   UNL     1       4.997   6.343  17.040  0.00  0.00    +0.000 A 
ATOM     10  C   UNL     1       4.257   5.166  17.036  0.00  0.00    +0.000 A 
ATOM     11  C   UNL     1       4.777   3.983  16.554  0.00  0.00    +0.000 A 
ATOM     12  C   UNL     1       6.115   3.993  16.146  0.00  0.00    +0.000 A 
ATOM     13  C   UNL     1       6.921   5.122  16.389  0.00  0.00    +0.000 A 
ATOM     14  C   UNL     1       6.373   6.304  16.915  0.00  0.00    +0.000 A 
ATOM     15  C   UNL     1       3.024   5.438  17.821  0.00  0.00    +0.000 C 
ATOM     16  O   UNL     1       2.282   4.571  18.237  0.00  0.00    +0.000 OA
BRANCH  14  17
ATOM     17  C   UNL     1       7.260   7.352  17.543  0.00  0.00    +0.000 C 
ATOM     18  F   UNL     1       6.621   8.512  17.868  0.00  0.00    +0.000 F 
ATOM     19  F   UNL     1       7.785   6.905  18.722  0.00  0.00    +0.000 F 
ATOM     20  F   UNL     1       8.317   7.705  16.771  0.00  0.00    +0.000 F 
ENDBRANCH  14  17
ENDBRANCH   5   7
BRANCH   1  23
ATOM     21  C   UNL     1       0.468  12.281  18.783  0.00  0.00    +0.000 C 
ATOM     22  C   UNL     1      -0.767  11.685  19.440  0.00  0.00    +0.000 C 
ATOM     23  C   UNL     1       0.116  10.806  18.610  0.00  0.00    +0.000 C 
BRANCH  21  29
ATOM     24  C   UNL     1       3.218  13.695  18.081  0.00  0.00    +0.000 C 
ATOM     25  N   UNL     1       2.647  13.555  19.387  0.00  0.00    +0.000 N 
ATOM     26  C   UNL     1       3.236  13.935  20.558  0.00  0.00    +0.000 A 
ATOM     27  N   UNL     1       2.478  13.563  21.569  0.00  0.00    +0.000 NA
ATOM     28  N   UNL     1       1.378  12.926  21.046  0.00  0.00    +0.000 NA
ATOM     29  C   UNL     1       1.494  12.896  19.731  0.00  0.00    +0.000 A 
ENDBRANCH  21  29
ENDBRANCH   1  23
TORSDOF 4
ENDMDL
MODEL 8
REMARK VINA RESULT:      -8.8      3.538      7.581
REMARK  Name = 
REMARK  5 active torsions:
REMARK  status: ('A' for Active; 'I' for Inactive)
REMARK    1  A    between atoms: C_1  and  N_2
REMARK    2  A    between atoms: C_6  and  C_7
REMARK    3  A    between atoms: C_9  and  C_10
REMARK    4  A    between atoms: C_14  and  N_15
REMARK    5  A    between atoms: C_22  and  C_23
REMARK                            x       y       z     vdW  Elec       q    Type
REMARK                         _______ _______ _______ _____ _____    ______ ____
ROOT
ATOM      1  C   UNL     1       0.150  10.108  19.807  0.00  0.00    +0.000 A 
ATOM      2  C   UNL     1      -0.269   9.747  21.096  0.00  0.00    +0.000 A 
ATOM      3  C   UNL     1       0.218   8.597  21.741  0.00  0.00    +0.000 A 
ATOM      4  C   UNL     1       1.135   7.752  21.105  0.00  0.00    +0.000 A 
ATOM      5  C   UNL     1       1.592   8.091  19.842  0.00  0.00    +0.000 A 
ATOM      6  C   UNL     1       1.097   9.258  19.239  0.00  0.00    +0.000 A 
ENDROOT
BRANCH   5   7
ATOM      7  N   UNL     1       2.599   7.382  19.156  0.00  0.00    +0.000 N 
ATOM      8  C   UNL     1       2.916   6.033  19.574  0.00  0.00    +0.000 C 
ATOM      9  C   UNL     1       3.435   5.443  18.318  0.00  0.00    +0.000 A 
ATOM     10  C   UNL     1       3.947   6.471  17.533  0.00  0.00    +0.000 A 
ATOM     11  C   UNL     1       4.744   6.220  16.436  0.00  0.00    +0.000 A 
ATOM     12  C   UNL     1       4.950   4.881  16.090  0.00  0.00    +0.000 A 
ATOM     13  C   UNL     1       4.226   3.862  16.739  0.00  0.00    +0.000 A 
ATOM     14  C   UNL     1       3.392   4.150  17.832  0.00  0.00    +0.000 A 
ATOM     15  C   UNL     1       3.278   7.720  17.985  0.00  0.00    +0.000 C 
ATOM     16  O   UNL     1       3.291   8.759  17.355  0.00  0.00    +0.000 OA
BRANCH  14  17
ATOM     17  C   UNL     1       2.329   3.170  18.269  0.00  0.00    +0.000 C 
ATOM     18  F   UNL     1       2.297   2.013  17.548  0.00  0.00    +0.000 F 
ATOM     19  F   UNL     1       2.535   2.767  19.557  0.00  0.00    +0.000 F 
ATOM     20  F   UNL     1       1.072   3.675  18.229  0.00  0.00    +0.000 F 
ENDBRANCH  14  17
ENDBRANCH   5   7
BRANCH   1  23
ATOM     21  C   UNL     1       0.155  12.759  19.153  0.00  0.00    +0.000 C 
ATOM     22  C   UNL     1      -1.156  12.399  19.832  0.00  0.00    +0.000 C 
ATOM     23  C   UNL     1      -0.396  11.337  19.101  0.00  0.00    +0.000 C 
BRANCH  21  29
ATOM     24  C   UNL     1       3.108  13.639  18.402  0.00  0.00    +0.000 C 
ATOM     25  N   UNL     1       2.497  13.738  19.693  0.00  0.00    +0.000 N 
ATOM     26  C   UNL     1       3.118  14.151  20.837  0.00  0.00    +0.000 A 
ATOM     27  N   UNL     1       2.292  14.017  21.855  0.00  0.00    +0.000 NA
ATOM     28  N   UNL     1       1.115  13.504  21.364  0.00  0.00    +0.000 NA
ATOM     29  C   UNL     1       1.248  13.309  20.065  0.00  0.00    +0.000 A 
ENDBRANCH  21  29
ENDBRANCH   1  23
TORSDOF 4
ENDMDL
MODEL 9
REMARK VINA RESULT:      -8.8      2.406      3.561
REMARK  Name = 
REMARK  5 active torsions:
REMARK  status: ('A' for Active; 'I' for Inactive)
REMARK    1  A    between atoms: C_1  and  N_2
REMARK    2  A    between atoms: C_6  and  C_7
REMARK    3  A    between atoms: C_9  and  C_10
REMARK    4  A    between atoms: C_14  and  N_15
REMARK    5  A    between atoms: C_22  and  C_23
REMARK                            x       y       z     vdW  Elec       q    Type
REMARK                         _______ _______ _______ _____ _____    ______ ____
ROOT
ATOM      1  C   UNL     1       2.386   6.151  19.893  0.00  0.00    +0.000 A 
ATOM      2  C   UNL     1       3.374   6.051  18.903  0.00  0.00    +0.000 A 
ATOM      3  C   UNL     1       3.575   7.063  17.948  0.00  0.00    +0.000 A 
ATOM      4  C   UNL     1       2.774   8.211  17.940  0.00  0.00    +0.000 A 
ATOM      5  C   UNL     1       1.805   8.357  18.920  0.00  0.00    +0.000 A 
ATOM      6  C   UNL     1       1.649   7.334  19.869  0.00  0.00    +0.000 A 
ENDROOT
BRANCH   5   7
ATOM      7  N   UNL     1       1.022   9.518  19.082  0.00  0.00    +0.000 N 
ATOM      8  C   UNL     1       0.250  10.005  17.958  0.00  0.00    +0.000 C 
ATOM      9  C   UNL     1      -0.857  10.717  18.639  0.00  0.00    +0.000 A 
ATOM     10  C   UNL     1      -0.406  11.126  19.890  0.00  0.00    +0.000 A 
ATOM     11  C   UNL     1      -1.101  12.044  20.648  0.00  0.00    +0.000 A 
ATOM     12  C   UNL     1      -2.329  12.487  20.146  0.00  0.00    +0.000 A 
ATOM     13  C   UNL     1      -2.890  11.879  19.006  0.00  0.00    +0.000 A 
ATOM     14  C   UNL     1      -2.174  10.918  18.272  0.00  0.00    +0.000 A 
ATOM     15  C   UNL     1       0.730  10.234  20.243  0.00  0.00    +0.000 C 
ATOM     16  O   UNL     1       1.191  10.138  21.363  0.00  0.00    +0.000 OA
BRANCH  14  17
ATOM     17  C   UNL     1      -2.886   9.988  17.319  0.00  0.00    +0.000 C 
ATOM     18  F   UNL     1      -3.487   8.919  17.917  0.00  0.00    +0.000 F 
ATOM     19  F   UNL     1      -3.900  10.635  16.671  0.00  0.00    +0.000 F 
ATOM     20  F   UNL     1      -2.084   9.480  16.351  0.00  0.00    +0.000 F 
ENDBRANCH  14  17
ENDBRANCH   5   7
BRANCH   1  23
ATOM     21  C   UNL     1       2.361   3.547  20.712  0.00  0.00    +0.000 C 
ATOM     22  C   UNL     1       0.966   4.137  20.832  0.00  0.00    +0.000 C 
ATOM     23  C   UNL     1       2.153   5.046  20.908  0.00  0.00    +0.000 C 
BRANCH  21  29
ATOM     24  C   UNL     1       4.855   1.722  20.000  0.00  0.00    +0.000 C 
ATOM     25  N   UNL     1       3.720   1.971  19.162  0.00  0.00    +0.000 N 
ATOM     26  C   UNL     1       3.567   1.529  17.879  0.00  0.00    +0.000 A 
ATOM     27  N   UNL     1       2.458   2.031  17.375  0.00  0.00    +0.000 NA
ATOM     28  N   UNL     1       1.883   2.816  18.345  0.00  0.00    +0.000 NA
ATOM     29  C   UNL     1       2.659   2.803  19.413  0.00  0.00    +0.000 A 
ENDBRANCH  21  29
ENDBRANCH   1  23
TORSDOF 4
ENDMDL
