MODEL 1
REMARK VINA RESULT:      -9.5      0.000      0.000
REMARK  Name = 
REMARK  8 active torsions:
REMARK  status: ('A' for Active; 'I' for Inactive)
REMARK    1  A    between atoms: C_1  and  N_2
REMARK    2  A    between atoms: C_6  and  C_7
REMARK    3  A    between atoms: C_7  and  C_8
REMARK    4  A    between atoms: C_8  and  C_9
REMARK    5  A    between atoms: C_13  and  N_14
REMARK    6  A    between atoms: C_19  and  C_20
REMARK    7  A    between atoms: C_20  and  N_21
REMARK    8  A    between atoms: C_30  and  C_31
REMARK                            x       y       z     vdW  Elec       q    Type
REMARK                         _______ _______ _______ _____ _____    ______ ____
ROOT
ATOM      1  N   UNL     1       2.285   7.490  19.352  0.00  0.00    +0.000 N 
ATOM      2  C   UNL     1       1.501   7.816  20.518  0.00  0.00    +0.000 C 
ATOM      3  C   UNL     1       1.024   9.189  20.281  0.00  0.00    +0.000 A 
ATOM      4  C   UNL     1       1.409   9.625  19.016  0.00  0.00    +0.000 A 
ATOM      5  C   UNL     1       1.046  10.893  18.573  0.00  0.00    +0.000 A 
ATOM      6  C   UNL     1       0.296  11.720  19.448  0.00  0.00    +0.000 A 
ATOM      7  C   UNL     1      -0.060  11.234  20.735  0.00  0.00    +0.000 A 
ATOM      8  C   UNL     1       0.315   9.968  21.175  0.00  0.00    +0.000 A 
ATOM      9  C   UNL     1       2.250   8.535  18.413  0.00  0.00    +0.000 C 
ATOM     10  O   UNL     1       2.791   8.626  17.327  0.00  0.00    +0.000 OA
ENDROOT
BRANCH   1  15
ATOM     11  C   UNL     1       5.289   5.295  18.824  0.00  0.00    +0.000 A 
ATOM     12  C   UNL     1       4.750   4.054  19.183  0.00  0.00    +0.000 A 
ATOM     13  C   UNL     1       3.432   3.935  19.661  0.00  0.00    +0.000 A 
ATOM     14  C   UNL     1       2.586   5.052  19.765  0.00  0.00    +0.000 A 
ATOM     15  C   UNL     1       3.057   6.300  19.396  0.00  0.00    +0.000 A 
ATOM     16  C   UNL     1       4.412   6.378  18.979  0.00  0.00    +0.000 A 
BRANCH  11  17
ATOM     17  C   UNL     1       6.792   5.547  18.274  0.00  0.00    +0.000 C 
ATOM     18  C   UNL     1       7.832   5.937  19.361  0.00  0.00    +0.000 C 
ATOM     19  O   UNL     1       8.114   7.204  18.740  0.00  0.00    +0.000 OA
ATOM     20  C   UNL     1       7.140   6.960  17.705  0.00  0.00    +0.000 C 
BRANCH  17  21
ATOM     21  C   UNL     1       7.264   4.401  17.339  0.00  0.00    +0.000 C 
BRANCH  21  27
ATOM     22  C   UNL     1       4.656   3.444  15.817  0.00  0.00    +0.000 C 
ATOM     23  N   UNL     1       5.775   4.158  15.263  0.00  0.00    +0.000 N 
ATOM     24  C   UNL     1       5.895   4.516  13.954  0.00  0.00    +0.000 A 
ATOM     25  N   UNL     1       7.045   5.115  13.766  0.00  0.00    +0.000 NA
ATOM     26  N   UNL     1       7.695   5.149  14.975  0.00  0.00    +0.000 NA
ATOM     27  C   UNL     1       6.922   4.591  15.889  0.00  0.00    +0.000 A 
ENDBRANCH  21  27
ENDBRANCH  17  21
ENDBRANCH  11  17
ENDBRANCH   1  15
BRANCH   8  28
ATOM     28  C   UNL     1      -0.006   9.511  22.581  0.00  0.00    +0.000 C 
ATOM     29  F   UNL     1       1.087   9.159  23.309  0.00  0.00    +0.000 F 
ATOM     30  F   UNL     1      -0.647  10.469  23.304  0.00  0.00    +0.000 F 
ATOM     31  F   UNL     1      -0.813   8.417  22.594  0.00  0.00    +0.000 F 
ENDBRANCH   8  28
BRANCH   6  32
ATOM     32  C   UNL     1      -0.188  13.124  19.086  0.00  0.00    +0.000 C 
BRANCH  32  33
ATOM     33  N   UNL     1       0.346  14.128  20.028  0.00  0.00    +0.000 NA
ATOM     34  C   UNL     1       1.792  14.335  19.942  0.00  0.00    +0.000 C 
ATOM     35  C   UNL     1       2.231  15.207  18.765  0.00  0.00    +0.000 C 
ATOM     36  C   UNL     1       1.455  16.513  18.674  0.00  0.00    +0.000 C 
ATOM     37  F   UNL     1       1.950  17.368  19.617  0.00  0.00    +0.000 F 
ATOM     38  C   UNL     1      -0.042  16.363  18.893  0.00  0.00    +0.000 C 
ATOM     39  F   UNL     1      -0.622  15.896  17.752  0.00  0.00    +0.000 F 
ATOM     40  C   UNL     1      -0.373  15.409  20.042  0.00  0.00    +0.000 C 
ENDBRANCH  32  33
ENDBRANCH   6  32
TORSDOF 7
ENDMDL
MODEL 2
REMARK VINA RESULT:      -9.3      0.786      1.197
REMARK  Name = 
REMARK  8 active torsions:
REMARK  status: ('A' for Active; 'I' for Inactive)
REMARK    1  A    between atoms: C_1  and  N_2
REMARK    2  A    between atoms: C_6  and  C_7
REMARK    3  A    between atoms: C_7  and  C_8
REMARK    4  A    between atoms: C_8  and  C_9
REMARK    5  A    between atoms: C_13  and  N_14
REMARK    6  A    between atoms: C_19  and  C_20
REMARK    7  A    between atoms: C_20  and  N_21
REMARK    8  A    between atoms: C_30  and  C_31
REMARK                            x       y       z     vdW  Elec       q    Type
REMARK                         _______ _______ _______ _____ _____    ______ ____
ROOT
ATOM      1  N   UNL     1       2.310   7.428  19.365  0.00  0.00    +0.000 N 
ATOM      2  C   UNL     1       1.527   7.767  20.528  0.00  0.00    +0.000 C 
ATOM      3  C   UNL     1       1.011   9.119  20.255  0.00  0.00    +0.000 A 
ATOM      4  C   UNL     1       1.373   9.528  18.974  0.00  0.00    +0.000 A 
ATOM      5  C   UNL     1       0.973  10.772  18.497  0.00  0.00    +0.000 A 
ATOM      6  C   UNL     1       0.208  11.605  19.355  0.00  0.00    +0.000 A 
ATOM      7  C   UNL     1      -0.124  11.147  20.658  0.00  0.00    +0.000 A 
ATOM      8  C   UNL     1       0.289   9.906  21.132  0.00  0.00    +0.000 A 
ATOM      9  C   UNL     1       2.238   8.444  18.395  0.00  0.00    +0.000 C 
ATOM     10  O   UNL     1       2.768   8.517  17.302  0.00  0.00    +0.000 OA
ENDROOT
BRANCH   1  15
ATOM     11  C   UNL     1       5.362   5.295  18.861  0.00  0.00    +0.000 A 
ATOM     12  C   UNL     1       4.862   4.054  19.272  0.00  0.00    +0.000 A 
ATOM     13  C   UNL     1       3.556   3.917  19.778  0.00  0.00    +0.000 A 
ATOM     14  C   UNL     1       2.683   5.015  19.858  0.00  0.00    +0.000 A 
ATOM     15  C   UNL     1       3.113   6.261  19.437  0.00  0.00    +0.000 A 
ATOM     16  C   UNL     1       4.458   6.359  18.994  0.00  0.00    +0.000 A 
BRANCH  11  17
ATOM     17  C   UNL     1       6.849   5.567  18.276  0.00  0.00    +0.000 C 
ATOM     18  C   UNL     1       7.907   5.975  19.338  0.00  0.00    +0.000 C 
ATOM     19  O   UNL     1       8.156   7.244  18.708  0.00  0.00    +0.000 OA
ATOM     20  C   UNL     1       7.163   6.982  17.695  0.00  0.00    +0.000 C 
BRANCH  17  21
ATOM     21  C   UNL     1       7.315   4.425  17.335  0.00  0.00    +0.000 C 
BRANCH  21  27
ATOM     22  C   UNL     1       4.639   3.517  15.903  0.00  0.00    +0.000 C 
ATOM     23  N   UNL     1       5.760   4.193  15.307  0.00  0.00    +0.000 N 
ATOM     24  C   UNL     1       5.850   4.530  13.989  0.00  0.00    +0.000 A 
ATOM     25  N   UNL     1       7.010   5.094  13.759  0.00  0.00    +0.000 NA
ATOM     26  N   UNL     1       7.696   5.128  14.948  0.00  0.00    +0.000 NA
ATOM     27  C   UNL     1       6.936   4.603  15.892  0.00  0.00    +0.000 A 
ENDBRANCH  21  27
ENDBRANCH  17  21
ENDBRANCH  11  17
ENDBRANCH   1  15
BRANCH   8  28
ATOM     28  C   UNL     1      -0.007   9.482  22.554  0.00  0.00    +0.000 C 
ATOM     29  F   UNL     1      -0.656  10.426  23.287  0.00  0.00    +0.000 F 
ATOM     30  F   UNL     1      -0.780   8.364  22.612  0.00  0.00    +0.000 F 
ATOM     31  F   UNL     1       1.125   9.201  23.253  0.00  0.00    +0.000 F 
ENDBRANCH   8  28
BRANCH   6  32
ATOM     32  C   UNL     1      -0.317  12.983  18.956  0.00  0.00    +0.000 C 
BRANCH  32  33
ATOM     33  N   UNL     1       0.469  14.056  19.600  0.00  0.00    +0.000 NA
ATOM     34  C   UNL     1       0.794  15.182  18.724  0.00  0.00    +0.000 C 
ATOM     35  C   UNL     1      -0.361  16.159  18.505  0.00  0.00    +0.000 C 
ATOM     36  C   UNL     1      -1.009  16.610  19.808  0.00  0.00    +0.000 C 
ATOM     37  F   UNL     1      -0.199  17.546  20.385  0.00  0.00    +0.000 F 
ATOM     38  C   UNL     1      -1.242  15.487  20.806  0.00  0.00    +0.000 C 
ATOM     39  F   UNL     1      -2.356  14.789  20.450  0.00  0.00    +0.000 F 
ATOM     40  C   UNL     1      -0.059  14.522  20.889  0.00  0.00    +0.000 C 
ENDBRANCH  32  33
ENDBRANCH   6  32
TORSDOF 7
ENDMDL
MODEL 3
REMARK VINA RESULT:      -9.1      0.906      1.266
REMARK  Name = 
REMARK  8 active torsions:
REMARK  status: ('A' for Active; 'I' for Inactive)
REMARK    1  A    between atoms: C_1  and  N_2
REMARK    2  A    between atoms: C_6  and  C_7
REMARK    3  A    between atoms: C_7  and  C_8
REMARK    4  A    between atoms: C_8  and  C_9
REMARK    5  A    between atoms: C_13  and  N_14
REMARK    6  A    between atoms: C_19  and  C_20
REMARK    7  A    between atoms: C_20  and  N_21
REMARK    8  A    between atoms: C_30  and  C_31
REMARK                            x       y       z     vdW  Elec       q    Type
REMARK                         _______ _______ _______ _____ _____    ______ ____
ROOT
ATOM      1  N   UNL     1       2.101   7.423  19.002  0.00  0.00    +0.000 N 
ATOM      2  C   UNL     1       1.413   7.759  20.225  0.00  0.00    +0.000 C 
ATOM      3  C   UNL     1       1.104   9.194  20.103  0.00  0.00    +0.000 A 
ATOM      4  C   UNL     1       1.489   9.669  18.852  0.00  0.00    +0.000 A 
ATOM      5  C   UNL     1       1.273  11.001  18.513  0.00  0.00    +0.000 A 
ATOM      6  C   UNL     1       0.670  11.849  19.477  0.00  0.00    +0.000 A 
ATOM      7  C   UNL     1       0.307  11.319  20.744  0.00  0.00    +0.000 A 
ATOM      8  C   UNL     1       0.537   9.988  21.081  0.00  0.00    +0.000 A 
ATOM      9  C   UNL     1       2.161   8.530  18.137  0.00  0.00    +0.000 C 
ATOM     10  O   UNL     1       2.664   8.631  17.034  0.00  0.00    +0.000 OA
ENDROOT
BRANCH   1  15
ATOM     11  C   UNL     1       4.653   4.870  17.961  0.00  0.00    +0.000 A 
ATOM     12  C   UNL     1       4.051   3.708  18.454  0.00  0.00    +0.000 A 
ATOM     13  C   UNL     1       2.849   3.755  19.185  0.00  0.00    +0.000 A 
ATOM     14  C   UNL     1       2.182   4.969  19.420  0.00  0.00    +0.000 A 
ATOM     15  C   UNL     1       2.717   6.147  18.929  0.00  0.00    +0.000 A 
ATOM     16  C   UNL     1       3.962   6.054  18.253  0.00  0.00    +0.000 A 
BRANCH  11  17
ATOM     17  C   UNL     1       6.038   4.931  17.120  0.00  0.00    +0.000 C 
ATOM     18  C   UNL     1       7.326   4.718  17.960  0.00  0.00    +0.000 C 
ATOM     19  O   UNL     1       7.848   6.016  17.624  0.00  0.00    +0.000 OA
ATOM     20  C   UNL     1       6.673   6.332  16.850  0.00  0.00    +0.000 C 
BRANCH  17  21
ATOM     21  C   UNL     1       5.973   4.056  15.840  0.00  0.00    +0.000 C 
BRANCH  21  27
ATOM     22  C   UNL     1       5.548   3.384  12.773  0.00  0.00    +0.000 C 
ATOM     23  N   UNL     1       6.515   4.283  13.342  0.00  0.00    +0.000 N 
ATOM     24  C   UNL     1       7.439   4.983  12.624  0.00  0.00    +0.000 A 
ATOM     25  N   UNL     1       8.194   5.676  13.439  0.00  0.00    +0.000 NA
ATOM     26  N   UNL     1       7.760   5.428  14.717  0.00  0.00    +0.000 NA
ATOM     27  C   UNL     1       6.730   4.602  14.664  0.00  0.00    +0.000 A 
ENDBRANCH  21  27
ENDBRANCH  17  21
ENDBRANCH  11  17
ENDBRANCH   1  15
BRANCH   8  28
ATOM     28  C   UNL     1       0.219   9.475  22.467  0.00  0.00    +0.000 C 
ATOM     29  F   UNL     1      -0.617   8.402  22.481  0.00  0.00    +0.000 F 
ATOM     30  F   UNL     1       1.333   9.092  23.147  0.00  0.00    +0.000 F 
ATOM     31  F   UNL     1      -0.393  10.415  23.236  0.00  0.00    +0.000 F 
ENDBRANCH   8  28
BRANCH   6  32
ATOM     32  C   UNL     1       0.354  13.324  19.233  0.00  0.00    +0.000 C 
BRANCH  32  33
ATOM     33  N   UNL     1       1.281  14.196  19.981  0.00  0.00    +0.000 NA
ATOM     34  C   UNL     1       2.641  14.245  19.441  0.00  0.00    +0.000 C 
ATOM     35  C   UNL     1       2.794  15.138  18.210  0.00  0.00    +0.000 C 
ATOM     36  C   UNL     1       2.202  16.527  18.410  0.00  0.00    +0.000 C 
ATOM     37  F   UNL     1       3.075  17.256  19.168  0.00  0.00    +0.000 F 
ATOM     38  C   UNL     1       0.845  16.531  19.094  0.00  0.00    +0.000 C 
ATOM     39  F   UNL     1      -0.120  16.211  18.188  0.00  0.00    +0.000 F 
ATOM     40  C   UNL     1       0.774  15.546  20.261  0.00  0.00    +0.000 C 
ENDBRANCH  32  33
ENDBRANCH   6  32
TORSDOF 7
ENDMDL
MODEL 4
REMARK VINA RESULT:      -9.1      1.713      2.656
REMARK  Name = 
REMARK  8 active torsions:
REMARK  status: ('A' for Active; 'I' for Inactive)
REMARK    1  A    between atoms: C_1  and  N_2
REMARK    2  A    between atoms: C_6  and  C_7
REMARK    3  A    between atoms: C_7  and  C_8
REMARK    4  A    between atoms: C_8  and  C_9
REMARK    5  A    between atoms: C_13  and  N_14
REMARK    6  A    between atoms: C_19  and  C_20
REMARK    7  A    between atoms: C_20  and  N_21
REMARK    8  A    between atoms: C_30  and  C_31
REMARK                            x       y       z     vdW  Elec       q    Type
REMARK                         _______ _______ _______ _____ _____    ______ ____
ROOT
ATOM      1  N   UNL     1       2.222   7.402  19.132  0.00  0.00    +0.000 N 
ATOM      2  C   UNL     1       1.470   7.741  20.316  0.00  0.00    +0.000 C 
ATOM      3  C   UNL     1       1.115   9.160  20.143  0.00  0.00    +0.000 A 
ATOM      4  C   UNL     1       1.535   9.619  18.898  0.00  0.00    +0.000 A 
ATOM      5  C   UNL     1       1.285  10.933  18.515  0.00  0.00    +0.000 A 
ATOM      6  C   UNL     1       0.611  11.781  19.430  0.00  0.00    +0.000 A 
ATOM      7  C   UNL     1       0.214  11.270  20.695  0.00  0.00    +0.000 A 
ATOM      8  C   UNL     1       0.477   9.957  21.075  0.00  0.00    +0.000 A 
ATOM      9  C   UNL     1       2.278   8.488  18.242  0.00  0.00    +0.000 C 
ATOM     10  O   UNL     1       2.824   8.582  17.158  0.00  0.00    +0.000 OA
ENDROOT
BRANCH   1  15
ATOM     11  C   UNL     1       4.534   4.728  17.859  0.00  0.00    +0.000 A 
ATOM     12  C   UNL     1       4.204   3.685  18.731  0.00  0.00    +0.000 A 
ATOM     13  C   UNL     1       3.279   3.864  19.777  0.00  0.00    +0.000 A 
ATOM     14  C   UNL     1       2.620   5.090  19.969  0.00  0.00    +0.000 A 
ATOM     15  C   UNL     1       2.886   6.149  19.118  0.00  0.00    +0.000 A 
ATOM     16  C   UNL     1       3.871   5.936  18.118  0.00  0.00    +0.000 A 
BRANCH  11  17
ATOM     17  C   UNL     1       5.590   4.634  16.633  0.00  0.00    +0.000 C 
ATOM     18  C   UNL     1       5.280   5.564  15.427  0.00  0.00    +0.000 C 
ATOM     19  O   UNL     1       5.149   4.460  14.515  0.00  0.00    +0.000 OA
ATOM     20  C   UNL     1       5.385   3.507  15.572  0.00  0.00    +0.000 C 
BRANCH  17  21
ATOM     21  C   UNL     1       7.058   4.720  17.128  0.00  0.00    +0.000 C 
BRANCH  21  27
ATOM     22  C   UNL     1       8.067   5.747  19.950  0.00  0.00    +0.000 C 
ATOM     23  N   UNL     1       7.952   6.508  18.736  0.00  0.00    +0.000 N 
ATOM     24  C   UNL     1       8.245   7.835  18.623  0.00  0.00    +0.000 A 
ATOM     25  N   UNL     1       7.996   8.237  17.401  0.00  0.00    +0.000 NA
ATOM     26  N   UNL     1       7.529   7.154  16.697  0.00  0.00    +0.000 NA
ATOM     27  C   UNL     1       7.521   6.101  17.494  0.00  0.00    +0.000 A 
ENDBRANCH  21  27
ENDBRANCH  17  21
ENDBRANCH  11  17
ENDBRANCH   1  15
BRANCH   8  28
ATOM     28  C   UNL     1       0.119   9.466  22.461  0.00  0.00    +0.000 C 
ATOM     29  F   UNL     1       1.183   9.023  23.182  0.00  0.00    +0.000 F 
ATOM     30  F   UNL     1      -0.472  10.431  23.216  0.00  0.00    +0.000 F 
ATOM     31  F   UNL     1      -0.750   8.421  22.427  0.00  0.00    +0.000 F 
ENDBRANCH   8  28
BRANCH   6  32
ATOM     32  C   UNL     1       0.252  13.237  19.135  0.00  0.00    +0.000 C 
BRANCH  32  33
ATOM     33  N   UNL     1       1.466  14.069  19.014  0.00  0.00    +0.000 NA
ATOM     34  C   UNL     1       1.214  15.469  18.674  0.00  0.00    +0.000 C 
ATOM     35  C   UNL     1       0.745  16.325  19.851  0.00  0.00    +0.000 C 
ATOM     36  C   UNL     1       1.635  16.181  21.078  0.00  0.00    +0.000 C 
ATOM     37  F   UNL     1       2.768  16.915  20.870  0.00  0.00    +0.000 F 
ATOM     38  C   UNL     1       2.035  14.748  21.391  0.00  0.00    +0.000 C 
ATOM     39  F   UNL     1       1.004  14.117  22.019  0.00  0.00    +0.000 F 
ATOM     40  C   UNL     1       2.408  13.957  20.136  0.00  0.00    +0.000 C 
ENDBRANCH  32  33
ENDBRANCH   6  32
TORSDOF 7
ENDMDL
MODEL 5
REMARK VINA RESULT:      -9.0      4.093      9.593
REMARK  Name = 
REMARK  8 active torsions:
REMARK  status: ('A' for Active; 'I' for Inactive)
REMARK    1  A    between atoms: C_1  and  N_2
REMARK    2  A    between atoms: C_6  and  C_7
REMARK    3  A    between atoms: C_7  and  C_8
REMARK    4  A    between atoms: C_8  and  C_9
REMARK    5  A    between atoms: C_13  and  N_14
REMARK    6  A    between atoms: C_19  and  C_20
REMARK    7  A    between atoms: C_20  and  N_21
REMARK    8  A    between atoms: C_30  and  C_31
REMARK                            x       y       z     vdW  Elec       q    Type
REMARK                         _______ _______ _______ _____ _____    ______ ____
ROOT
ATOM      1  N   UNL     1       1.379   8.247  20.326  0.00  0.00    +0.000 N 
ATOM      2  C   UNL     1       1.496   6.909  20.853  0.00  0.00    +0.000 C 
ATOM      3  C   UNL     1       2.256   6.167  19.833  0.00  0.00    +0.000 A 
ATOM      4  C   UNL     1       2.656   7.020  18.809  0.00  0.00    +0.000 A 
ATOM      5  C   UNL     1       3.406   6.531  17.744  0.00  0.00    +0.000 A 
ATOM      6  C   UNL     1       3.730   5.150  17.731  0.00  0.00    +0.000 A 
ATOM      7  C   UNL     1       3.287   4.317  18.793  0.00  0.00    +0.000 A 
ATOM      8  C   UNL     1       2.527   4.812  19.849  0.00  0.00    +0.000 A 
ATOM      9  C   UNL     1       2.071   8.371  19.109  0.00  0.00    +0.000 C 
ATOM     10  O   UNL     1       2.188   9.334  18.373  0.00  0.00    +0.000 OA
ENDROOT
BRANCH   1  15
ATOM     11  C   UNL     1      -0.918  11.194  20.722  0.00  0.00    +0.000 A 
ATOM     12  C   UNL     1      -1.115  11.165  22.108  0.00  0.00    +0.000 A 
ATOM     13  C   UNL     1      -0.558  10.151  22.910  0.00  0.00    +0.000 A 
ATOM     14  C   UNL     1       0.250   9.142  22.358  0.00  0.00    +0.000 A 
ATOM     15  C   UNL     1       0.503   9.138  20.997  0.00  0.00    +0.000 A 
ATOM     16  C   UNL     1      -0.131  10.146  20.224  0.00  0.00    +0.000 A 
BRANCH  11  17
ATOM     17  C   UNL     1      -1.520  12.305  19.707  0.00  0.00    +0.000 C 
ATOM     18  C   UNL     1      -0.555  12.748  18.573  0.00  0.00    +0.000 C 
ATOM     19  O   UNL     1      -0.558  14.120  19.008  0.00  0.00    +0.000 OA
ATOM     20  C   UNL     1      -1.421  13.808  20.120  0.00  0.00    +0.000 C 
BRANCH  17  21
ATOM     21  C   UNL     1      -2.938  11.921  19.208  0.00  0.00    +0.000 C 
BRANCH  21  27
ATOM     22  C   UNL     1      -5.285  12.106  17.088  0.00  0.00    +0.000 C 
ATOM     23  N   UNL     1      -4.025  11.431  16.936  0.00  0.00    +0.000 N 
ATOM     24  C   UNL     1      -3.652  10.726  15.830  0.00  0.00    +0.000 A 
ATOM     25  N   UNL     1      -2.468  10.200  16.023  0.00  0.00    +0.000 NA
ATOM     26  N   UNL     1      -2.053  10.566  17.281  0.00  0.00    +0.000 NA
ATOM     27  C   UNL     1      -2.982  11.328  17.829  0.00  0.00    +0.000 A 
ENDBRANCH  21  27
ENDBRANCH  17  21
ENDBRANCH  11  17
ENDBRANCH   1  15
BRANCH   8  28
ATOM     28  C   UNL     1       1.997   3.885  20.921  0.00  0.00    +0.000 C 
ATOM     29  F   UNL     1       2.400   4.207  22.179  0.00  0.00    +0.000 F 
ATOM     30  F   UNL     1       0.637   3.860  20.957  0.00  0.00    +0.000 F 
ATOM     31  F   UNL     1       2.398   2.600  20.734  0.00  0.00    +0.000 F 
ENDBRANCH   8  28
BRANCH   6  32
ATOM     32  C   UNL     1       4.565   4.482  16.638  0.00  0.00    +0.000 C 
BRANCH  32  33
ATOM     33  N   UNL     1       5.144   5.488  15.725  0.00  0.00    +0.000 NA
ATOM     34  C   UNL     1       6.479   5.954  16.100  0.00  0.00    +0.000 C 
ATOM     35  C   UNL     1       7.605   4.982  15.743  0.00  0.00    +0.000 C 
ATOM     36  C   UNL     1       7.543   4.511  14.297  0.00  0.00    +0.000 C 
ATOM     37  F   UNL     1       8.025   5.513  13.502  0.00  0.00    +0.000 F 
ATOM     38  C   UNL     1       6.146   4.144  13.822  0.00  0.00    +0.000 C 
ATOM     39  F   UNL     1       5.825   2.902  14.278  0.00  0.00    +0.000 F 
ATOM     40  C   UNL     1       5.086   5.136  14.300  0.00  0.00    +0.000 C 
ENDBRANCH  32  33
ENDBRANCH   6  32
TORSDOF 7
ENDMDL
MODEL 6
REMARK VINA RESULT:      -9.0      4.806     11.472
REMARK  Name = 
REMARK  8 active torsions:
REMARK  status: ('A' for Active; 'I' for Inactive)
REMARK    1  A    between atoms: C_1  and  N_2
REMARK    2  A    between atoms: C_6  and  C_7
REMARK    3  A    between atoms: C_7  and  C_8
REMARK    4  A    between atoms: C_8  and  C_9
REMARK    5  A    between atoms: C_13  and  N_14
REMARK    6  A    between atoms: C_19  and  C_20
REMARK    7  A    between atoms: C_20  and  N_21
REMARK    8  A    between atoms: C_30  and  C_31
REMARK                            x       y       z     vdW  Elec       q    Type
REMARK                         _______ _______ _______ _____ _____    ______ ____
ROOT
ATOM      1  N   UNL     1       0.070  11.212  21.606  0.00  0.00    +0.000 N 
ATOM      2  C   UNL     1       0.448  10.953  20.238  0.00  0.00    +0.000 C 
ATOM      3  C   UNL     1       0.906   9.554  20.231  0.00  0.00    +0.000 A 
ATOM      4  C   UNL     1       0.725   8.976  21.484  0.00  0.00    +0.000 A 
ATOM      5  C   UNL     1       1.075   7.646  21.699  0.00  0.00    +0.000 A 
ATOM      6  C   UNL     1       1.630   6.916  20.617  0.00  0.00    +0.000 A 
ATOM      7  C   UNL     1       1.807   7.555  19.360  0.00  0.00    +0.000 A 
ATOM      8  C   UNL     1       1.465   8.888  19.156  0.00  0.00    +0.000 A 
ATOM      9  C   UNL     1       0.203  10.054  22.393  0.00  0.00    +0.000 C 
ATOM     10  O   UNL     1      -0.010   9.888  23.579  0.00  0.00    +0.000 OA
ENDROOT
BRANCH   1  15
ATOM     11  C   UNL     1      -1.889  14.064  23.070  0.00  0.00    +0.000 A 
ATOM     12  C   UNL     1      -1.113  15.143  22.631  0.00  0.00    +0.000 A 
ATOM     13  C   UNL     1       0.084  14.947  21.916  0.00  0.00    +0.000 A 
ATOM     14  C   UNL     1       0.534  13.658  21.581  0.00  0.00    +0.000 A 
ATOM     15  C   UNL     1      -0.209  12.555  21.964  0.00  0.00    +0.000 A 
ATOM     16  C   UNL     1      -1.375  12.803  22.735  0.00  0.00    +0.000 A 
BRANCH  11  17
ATOM     17  C   UNL     1      -3.272  14.176  23.906  0.00  0.00    +0.000 C 
ATOM     18  C   UNL     1      -4.141  15.420  23.575  0.00  0.00    +0.000 C 
ATOM     19  O   UNL     1      -4.070  15.919  24.922  0.00  0.00    +0.000 OA
ATOM     20  C   UNL     1      -3.223  14.825  25.326  0.00  0.00    +0.000 C 
BRANCH  17  21
ATOM     21  C   UNL     1      -4.062  12.840  23.895  0.00  0.00    +0.000 C 
BRANCH  21  27
ATOM     22  C   UNL     1      -7.190  13.249  24.188  0.00  0.00    +0.000 C 
ATOM     23  N   UNL     1      -6.462  12.920  22.991  0.00  0.00    +0.000 N 
ATOM     24  C   UNL     1      -7.033  12.704  21.772  0.00  0.00    +0.000 A 
ATOM     25  N   UNL     1      -6.105  12.385  20.904  0.00  0.00    +0.000 NA
ATOM     26  N   UNL     1      -4.901  12.391  21.565  0.00  0.00    +0.000 NA
ATOM     27  C   UNL     1      -5.109  12.735  22.823  0.00  0.00    +0.000 A 
ENDBRANCH  21  27
ENDBRANCH  17  21
ENDBRANCH  11  17
ENDBRANCH   1  15
BRANCH   8  28
ATOM     28  C   UNL     1       1.746   9.565  17.833  0.00  0.00    +0.000 C 
ATOM     29  F   UNL     1       0.630   9.983  17.179  0.00  0.00    +0.000 F 
ATOM     30  F   UNL     1       2.536  10.664  17.970  0.00  0.00    +0.000 F 
ATOM     31  F   UNL     1       2.385   8.741  16.959  0.00  0.00    +0.000 F 
ENDBRANCH   8  28
BRANCH   6  32
ATOM     32  C   UNL     1       2.037   5.446  20.704  0.00  0.00    +0.000 C 
BRANCH  32  33
ATOM     33  N   UNL     1       2.512   4.949  19.396  0.00  0.00    +0.000 NA
ATOM     34  C   UNL     1       3.810   4.275  19.436  0.00  0.00    +0.000 C 
ATOM     35  C   UNL     1       3.754   2.839  19.960  0.00  0.00    +0.000 C 
ATOM     36  C   UNL     1       2.688   1.999  19.270  0.00  0.00    +0.000 C 
ATOM     37  F   UNL     1       3.161   1.635  18.042  0.00  0.00    +0.000 F 
ATOM     38  C   UNL     1       1.358   2.713  19.086  0.00  0.00    +0.000 C 
ATOM     39  F   UNL     1       0.667   2.693  20.260  0.00  0.00    +0.000 F 
ATOM     40  C   UNL     1       1.529   4.164  18.638  0.00  0.00    +0.000 C 
ENDBRANCH  32  33
ENDBRANCH   6  32
TORSDOF 7
ENDMDL
MODEL 7
REMARK VINA RESULT:      -9.0      0.980      1.399
REMARK  Name = 
REMARK  8 active torsions:
REMARK  status: ('A' for Active; 'I' for Inactive)
REMARK    1  A    between atoms: C_1  and  N_2
REMARK    2  A    between atoms: C_6  and  C_7
REMARK    3  A    between atoms: C_7  and  C_8
REMARK    4  A    between atoms: C_8  and  C_9
REMARK    5  A    between atoms: C_13  and  N_14
REMARK    6  A    between atoms: C_19  and  C_20
REMARK    7  A    between atoms: C_20  and  N_21
REMARK    8  A    between atoms: C_30  and  C_31
REMARK                            x       y       z     vdW  Elec       q    Type
REMARK                         _______ _______ _______ _____ _____    ______ ____
ROOT
ATOM      1  N   UNL     1       1.967   7.608  19.535  0.00  0.00    +0.000 N 
ATOM      2  C   UNL     1       1.213   7.957  20.714  0.00  0.00    +0.000 C 
ATOM      3  C   UNL     1       0.720   9.321  20.458  0.00  0.00    +0.000 A 
ATOM      4  C   UNL     1       1.067   9.730  19.173  0.00  0.00    +0.000 A 
ATOM      5  C   UNL     1       0.685  10.985  18.711  0.00  0.00    +0.000 A 
ATOM      6  C   UNL     1      -0.046  11.828  19.587  0.00  0.00    +0.000 A 
ATOM      7  C   UNL     1      -0.364  11.370  20.894  0.00  0.00    +0.000 A 
ATOM      8  C   UNL     1       0.031  10.117  21.353  0.00  0.00    +0.000 A 
ATOM      9  C   UNL     1       1.899   8.631  18.572  0.00  0.00    +0.000 C 
ATOM     10  O   UNL     1       2.410   8.700  17.470  0.00  0.00    +0.000 OA
ENDROOT
BRANCH   1  15
ATOM     11  C   UNL     1       4.921   5.384  18.871  0.00  0.00    +0.000 A 
ATOM     12  C   UNL     1       4.427   4.170  19.363  0.00  0.00    +0.000 A 
ATOM     13  C   UNL     1       3.162   4.083  19.973  0.00  0.00    +0.000 A 
ATOM     14  C   UNL     1       2.323   5.205  20.082  0.00  0.00    +0.000 A 
ATOM     15  C   UNL     1       2.747   6.425  19.585  0.00  0.00    +0.000 A 
ATOM     16  C   UNL     1       4.055   6.474  19.036  0.00  0.00    +0.000 A 
BRANCH  11  17
ATOM     17  C   UNL     1       6.363   5.598  18.164  0.00  0.00    +0.000 C 
ATOM     18  C   UNL     1       7.245   4.322  18.071  0.00  0.00    +0.000 C 
ATOM     19  O   UNL     1       8.297   4.904  18.861  0.00  0.00    +0.000 OA
ATOM     20  C   UNL     1       7.543   6.120  19.044  0.00  0.00    +0.000 C 
BRANCH  17  21
ATOM     21  C   UNL     1       6.239   6.371  16.824  0.00  0.00    +0.000 C 
BRANCH  21  27
ATOM     22  C   UNL     1       4.303   4.101  15.760  0.00  0.00    +0.000 C 
ATOM     23  N   UNL     1       5.533   4.547  15.163  0.00  0.00    +0.000 N 
ATOM     24  C   UNL     1       6.078   4.024  14.028  0.00  0.00    +0.000 A 
ATOM     25  N   UNL     1       7.217   4.620  13.774  0.00  0.00    +0.000 NA
ATOM     26  N   UNL     1       7.425   5.552  14.761  0.00  0.00    +0.000 NA
ATOM     27  C   UNL     1       6.399   5.528  15.592  0.00  0.00    +0.000 A 
ENDBRANCH  21  27
ENDBRANCH  17  21
ENDBRANCH  11  17
ENDBRANCH   1  15
BRANCH   8  28
ATOM     28  C   UNL     1      -0.247   9.692  22.778  0.00  0.00    +0.000 C 
ATOM     29  F   UNL     1      -0.999   8.563  22.880  0.00  0.00    +0.000 F 
ATOM     30  F   UNL     1       0.893   9.449  23.478  0.00  0.00    +0.000 F 
ATOM     31  F   UNL     1      -0.930  10.640  23.473  0.00  0.00    +0.000 F 
ENDBRANCH   8  28
BRANCH   6  32
ATOM     32  C   UNL     1      -0.550  13.220  19.206  0.00  0.00    +0.000 C 
BRANCH  32  33
ATOM     33  N   UNL     1       0.302  14.272  19.797  0.00  0.00    +0.000 NA
ATOM     34  C   UNL     1       0.761  15.288  18.849  0.00  0.00    +0.000 C 
ATOM     35  C   UNL     1      -0.292  16.338  18.498  0.00  0.00    +0.000 C 
ATOM     36  C   UNL     1      -0.949  16.951  19.728  0.00  0.00    +0.000 C 
ATOM     37  F   UNL     1      -0.081  17.860  20.265  0.00  0.00    +0.000 F 
ATOM     38  C   UNL     1      -1.321  15.941  20.802  0.00  0.00    +0.000 C 
ATOM     39  F   UNL     1      -2.478  15.314  20.451  0.00  0.00    +0.000 F 
ATOM     40  C   UNL     1      -0.233  14.889  21.018  0.00  0.00    +0.000 C 
ENDBRANCH  32  33
ENDBRANCH   6  32
TORSDOF 7
ENDMDL
MODEL 8
REMARK VINA RESULT:      -8.9      1.564      2.398
REMARK  Name = 
REMARK  8 active torsions:
REMARK  status: ('A' for Active; 'I' for Inactive)
REMARK    1  A    between atoms: C_1  and  N_2
REMARK    2  A    between atoms: C_6  and  C_7
REMARK    3  A    between atoms: C_7  and  C_8
REMARK    4  A    between atoms: C_8  and  C_9
REMARK    5  A    between atoms: C_13  and  N_14
REMARK    6  A    between atoms: C_19  and  C_20
REMARK    7  A    between atoms: C_20  and  N_21
REMARK    8  A    between atoms: C_30  and  C_31
REMARK                            x       y       z     vdW  Elec       q    Type
REMARK                         _______ _______ _______ _____ _____    ______ ____
ROOT
ATOM      1  N   UNL     1       2.199   7.457  19.054  0.00  0.00    +0.000 N 
ATOM      2  C   UNL     1       1.483   7.837  20.247  0.00  0.00    +0.000 C 
ATOM      3  C   UNL     1       1.149   9.258  20.051  0.00  0.00    +0.000 A 
ATOM      4  C   UNL     1       1.547   9.680  18.786  0.00  0.00    +0.000 A 
ATOM      5  C   UNL     1       1.312  10.990  18.379  0.00  0.00    +0.000 A 
ATOM      6  C   UNL     1       0.676  11.871  19.292  0.00  0.00    +0.000 A 
ATOM      7  C   UNL     1       0.301  11.395  20.577  0.00  0.00    +0.000 A 
ATOM      8  C   UNL     1       0.550  10.087  20.980  0.00  0.00    +0.000 A 
ATOM      9  C   UNL     1       2.253   8.522  18.138  0.00  0.00    +0.000 C 
ATOM     10  O   UNL     1       2.774   8.581  17.040  0.00  0.00    +0.000 OA
ENDROOT
BRANCH   1  15
ATOM     11  C   UNL     1       4.484   4.740  17.823  0.00  0.00    +0.000 A 
ATOM     12  C   UNL     1       4.118   3.703  18.689  0.00  0.00    +0.000 A 
ATOM     13  C   UNL     1       3.178   3.900  19.718  0.00  0.00    +0.000 A 
ATOM     14  C   UNL     1       2.539   5.139  19.898  0.00  0.00    +0.000 A 
ATOM     15  C   UNL     1       2.840   6.191  19.052  0.00  0.00    +0.000 A 
ATOM     16  C   UNL     1       3.839   5.960  18.070  0.00  0.00    +0.000 A 
BRANCH  11  17
ATOM     17  C   UNL     1       5.560   4.626  16.617  0.00  0.00    +0.000 C 
ATOM     18  C   UNL     1       5.291   5.562  15.406  0.00  0.00    +0.000 C 
ATOM     19  O   UNL     1       5.155   4.460  14.491  0.00  0.00    +0.000 OA
ATOM     20  C   UNL     1       5.353   3.502  15.551  0.00  0.00    +0.000 C 
BRANCH  17  21
ATOM     21  C   UNL     1       7.020   4.682  17.139  0.00  0.00    +0.000 C 
BRANCH  21  27
ATOM     22  C   UNL     1       8.068   5.719  19.943  0.00  0.00    +0.000 C 
ATOM     23  N   UNL     1       7.960   6.470  18.721  0.00  0.00    +0.000 N 
ATOM     24  C   UNL     1       8.278   7.790  18.592  0.00  0.00    +0.000 A 
ATOM     25  N   UNL     1       8.028   8.183  17.368  0.00  0.00    +0.000 NA
ATOM     26  N   UNL     1       7.536   7.103  16.679  0.00  0.00    +0.000 NA
ATOM     27  C   UNL     1       7.512   6.058  17.487  0.00  0.00    +0.000 A 
ENDBRANCH  21  27
ENDBRANCH  17  21
ENDBRANCH  11  17
ENDBRANCH   1  15
BRANCH   8  28
ATOM     28  C   UNL     1       0.217   9.633  22.384  0.00  0.00    +0.000 C 
ATOM     29  F   UNL     1       1.290   9.184  23.088  0.00  0.00    +0.000 F 
ATOM     30  F   UNL     1      -0.335  10.626  23.132  0.00  0.00    +0.000 F 
ATOM     31  F   UNL     1      -0.674   8.606  22.395  0.00  0.00    +0.000 F 
ENDBRANCH   8  28
BRANCH   6  32
ATOM     32  C   UNL     1       0.336  13.326  18.972  0.00  0.00    +0.000 C 
BRANCH  32  33
ATOM     33  N   UNL     1       0.055  14.088  20.206  0.00  0.00    +0.000 NA
ATOM     34  C   UNL     1       1.230  14.703  20.823  0.00  0.00    +0.000 C 
ATOM     35  C   UNL     1       1.698  15.987  20.138  0.00  0.00    +0.000 C 
ATOM     36  C   UNL     1       0.570  16.987  19.921  0.00  0.00    +0.000 C 
ATOM     37  F   UNL     1       0.312  17.602  21.113  0.00  0.00    +0.000 F 
ATOM     38  C   UNL     1      -0.720  16.367  19.407  0.00  0.00    +0.000 C 
ATOM     39  F   UNL     1      -0.611  16.144  18.067  0.00  0.00    +0.000 F 
ATOM     40  C   UNL     1      -1.053  15.047  20.102  0.00  0.00    +0.000 C 
ENDBRANCH  32  33
ENDBRANCH   6  32
TORSDOF 7
ENDMDL
MODEL 9
REMARK VINA RESULT:      -8.9      1.550      2.466
REMARK  Name = 
REMARK  8 active torsions:
REMARK  status: ('A' for Active; 'I' for Inactive)
REMARK    1  A    between atoms: C_1  and  N_2
REMARK    2  A    between atoms: C_6  and  C_7
REMARK    3  A    between atoms: C_7  and  C_8
REMARK    4  A    between atoms: C_8  and  C_9
REMARK    5  A    between atoms: C_13  and  N_14
REMARK    6  A    between atoms: C_19  and  C_20
REMARK    7  A    between atoms: C_20  and  N_21
REMARK    8  A    between atoms: C_30  and  C_31
REMARK                            x       y       z     vdW  Elec       q    Type
REMARK                         _______ _______ _______ _____ _____    ______ ____
ROOT
ATOM      1  N   UNL     1       2.177   7.356  19.090  0.00  0.00    +0.000 N 
ATOM      2  C   UNL     1       1.455   7.679  20.297  0.00  0.00    +0.000 C 
ATOM      3  C   UNL     1       1.144   9.114  20.178  0.00  0.00    +0.000 A 
ATOM      4  C   UNL     1       1.561   9.601  18.943  0.00  0.00    +0.000 A 
ATOM      5  C   UNL     1       1.350  10.936  18.609  0.00  0.00    +0.000 A 
ATOM      6  C   UNL     1       0.718  11.773  19.564  0.00  0.00    +0.000 A 
ATOM      7  C   UNL     1       0.323  11.232  20.816  0.00  0.00    +0.000 A 
ATOM      8  C   UNL     1       0.548   9.898  21.147  0.00  0.00    +0.000 A 
ATOM      9  C   UNL     1       2.256   8.471  18.237  0.00  0.00    +0.000 C 
ATOM     10  O   UNL     1       2.789   8.583  17.149  0.00  0.00    +0.000 OA
ENDROOT
BRANCH   1  15
ATOM     11  C   UNL     1       4.435   4.679  17.731  0.00  0.00    +0.000 A 
ATOM     12  C   UNL     1       4.043   3.600  18.532  0.00  0.00    +0.000 A 
ATOM     13  C   UNL     1       3.095   3.752  19.560  0.00  0.00    +0.000 A 
ATOM     14  C   UNL     1       2.472   4.988  19.804  0.00  0.00    +0.000 A 
ATOM     15  C   UNL     1       2.798   6.083  19.023  0.00  0.00    +0.000 A 
ATOM     16  C   UNL     1       3.806   5.893  18.041  0.00  0.00    +0.000 A 
BRANCH  11  17
ATOM     17  C   UNL     1       5.524   4.617  16.532  0.00  0.00    +0.000 C 
ATOM     18  C   UNL     1       5.263   5.601  15.358  0.00  0.00    +0.000 C 
ATOM     19  O   UNL     1       5.140   4.537  14.398  0.00  0.00    +0.000 OA
ATOM     20  C   UNL     1       5.331   3.538  15.419  0.00  0.00    +0.000 C 
BRANCH  17  21
ATOM     21  C   UNL     1       6.978   4.657  17.071  0.00  0.00    +0.000 C 
BRANCH  21  27
ATOM     22  C   UNL     1       7.906   5.688  19.919  0.00  0.00    +0.000 C 
ATOM     23  N   UNL     1       7.872   6.435  18.690  0.00  0.00    +0.000 N 
ATOM     24  C   UNL     1       8.221   7.747  18.572  0.00  0.00    +0.000 A 
ATOM     25  N   UNL     1       8.039   8.139  17.335  0.00  0.00    +0.000 NA
ATOM     26  N   UNL     1       7.561   7.065  16.627  0.00  0.00    +0.000 NA
ATOM     27  C   UNL     1       7.478   6.025  17.437  0.00  0.00    +0.000 A 
ENDBRANCH  21  27
ENDBRANCH  17  21
ENDBRANCH  11  17
ENDBRANCH   1  15
BRANCH   8  28
ATOM     28  C   UNL     1       0.194   9.372  22.521  0.00  0.00    +0.000 C 
ATOM     29  F   UNL     1      -0.700   8.348  22.506  0.00  0.00    +0.000 F 
ATOM     30  F   UNL     1       1.282   8.912  23.195  0.00  0.00    +0.000 F 
ATOM     31  F   UNL     1      -0.369  10.327  23.308  0.00  0.00    +0.000 F 
ENDBRANCH   8  28
BRANCH   6  32
ATOM     32  C   UNL     1       0.403  13.249  19.324  0.00  0.00    +0.000 C 
BRANCH  32  33
ATOM     33  N   UNL     1       0.974  14.093  20.393  0.00  0.00    +0.000 NA
ATOM     34  C   UNL     1       2.425  13.978  20.550  0.00  0.00    +0.000 C 
ATOM     35  C   UNL     1       3.231  14.752  19.508  0.00  0.00    +0.000 C 
ATOM     36  C   UNL     1       2.780  16.200  19.366  0.00  0.00    +0.000 C 
ATOM     37  F   UNL     1       3.282  16.907  20.421  0.00  0.00    +0.000 F 
ATOM     38  C   UNL     1       1.270  16.379  19.334  0.00  0.00    +0.000 C 
ATOM     39  F   UNL     1       0.804  16.073  18.092  0.00  0.00    +0.000 F 
ATOM     40  C   UNL     1       0.555  15.501  20.361  0.00  0.00    +0.000 C 
ENDBRANCH  32  33
ENDBRANCH   6  32
TORSDOF 7
ENDMDL
