MODEL 1
REMARK VINA RESULT:      -9.7      0.000      0.000
REMARK  Name = 
REMARK  8 active torsions:
REMARK  status: ('A' for Active; 'I' for Inactive)
REMARK    1  A    between atoms: C_1  and  N_2
REMARK    2  A    between atoms: C_11  and  C_12
REMARK    3  A    between atoms: N_14  and  C_15
REMARK    4  A    between atoms: C_19  and  C_20
REMARK    5  A    between atoms: C_20  and  C_21
REMARK    6  A    between atoms: C_21  and  C_22
REMARK    7  A    between atoms: N_26  and  C_27
REMARK    8  A    between atoms: C_33  and  C_34
REMARK                            x       y       z     vdW  Elec       q    Type
REMARK                         _______ _______ _______ _____ _____    ______ ____
ROOT
ATOM      1  C   UNL     1       1.895   7.726  19.296  0.00  0.00    +0.000 C 
ATOM      2  O   UNL     1       1.623   8.504  18.382  0.00  0.00    +0.000 OA
ATOM      3  N   UNL     1       1.594   7.896  20.632  0.00  0.00    +0.000 N 
ATOM      4  H   UNL     1       2.030   7.230  21.274  0.00  0.00    +0.000 HD
ENDROOT
BRANCH   1  15
ATOM      5  C   UNL     1       5.794   5.970  15.312  0.00  0.00    +0.000 C 
ATOM      6  N   UNL     1       7.116   5.907  15.936  0.00  0.00    +0.000 NA
ATOM      7  C   UNL     1       7.299   6.964  16.964  0.00  0.00    +0.000 C 
ATOM      8  C   UNL     1       7.018   6.489  18.408  0.00  0.00    +0.000 C 
ATOM      9  C   UNL     1       8.009   5.379  18.831  0.00  0.00    +0.000 C 
ATOM     10  C   UNL     1       7.030   4.472  18.036  0.00  0.00    +0.000 C 
ATOM     11  C   UNL     1       7.351   4.558  16.525  0.00  0.00    +0.000 C 
ATOM     12  N   UNL     1       6.050   5.428  18.459  0.00  0.00    +0.000 N 
ATOM     13  C   UNL     1       4.659   5.405  18.547  0.00  0.00    +0.000 A 
ATOM     14  C   UNL     1       4.007   6.554  18.903  0.00  0.00    +0.000 A 
ATOM     15  C   UNL     1       2.641   6.484  18.968  0.00  0.00    +0.000 A 
ATOM     16  N   UNL     1       1.918   5.371  18.744  0.00  0.00    +0.000 NA
ATOM     17  C   UNL     1       2.626   4.274  18.426  0.00  0.00    +0.000 A 
ATOM     18  N   UNL     1       3.976   4.266  18.312  0.00  0.00    +0.000 NA
BRANCH  17  19
ATOM     19  C   UNL     1       1.863   2.982  18.274  0.00  0.00    +0.000 C 
ATOM     20  C   UNL     1       1.900   1.940  19.375  0.00  0.00    +0.000 C 
ATOM     21  C   UNL     1       0.632   2.694  19.098  0.00  0.00    +0.000 C 
ENDBRANCH  17  19
ENDBRANCH   1  15
BRANCH   3  22
ATOM     22  C   UNL     1       0.851   8.961  21.170  0.00  0.00    +0.000 A 
ATOM     23  C   UNL     1       0.495   9.021  22.518  0.00  0.00    +0.000 A 
ATOM     24  C   UNL     1      -0.261  10.079  23.003  0.00  0.00    +0.000 A 
ATOM     25  C   UNL     1      -0.684  11.078  22.135  0.00  0.00    +0.000 A 
ATOM     26  C   UNL     1      -0.364  11.056  20.760  0.00  0.00    +0.000 A 
ATOM     27  C   UNL     1       0.445   9.988  20.315  0.00  0.00    +0.000 A 
BRANCH  26  28
ATOM     28  C   UNL     1      -0.929  12.169  19.764  0.00  0.00    +0.000 C 
ATOM     29  C   UNL     1      -0.625  13.668  20.052  0.00  0.00    +0.000 C 
ATOM     30  O   UNL     1      -0.291  13.885  18.648  0.00  0.00    +0.000 OA
ATOM     31  C   UNL     1      -0.025  12.463  18.524  0.00  0.00    +0.000 C 
BRANCH  28  32
ATOM     32  C   UNL     1      -2.393  11.887  19.373  0.00  0.00    +0.000 C 
BRANCH  32  33
ATOM     33  C   UNL     1      -2.536  11.121  18.097  0.00  0.00    +0.000 A 
ATOM     34  N   UNL     1      -1.650  10.280  17.596  0.00  0.00    +0.000 NA
ATOM     35  N   UNL     1      -2.153   9.769  16.423  0.00  0.00    +0.000 NA
ATOM     36  C   UNL     1      -3.334  10.304  16.229  0.00  0.00    +0.000 A 
ATOM     37  N   UNL     1      -3.618  11.157  17.252  0.00  0.00    +0.000 N 
ATOM     38  C   UNL     1      -4.831  11.918  17.381  0.00  0.00    +0.000 C 
ENDBRANCH  32  33
ENDBRANCH  28  32
ENDBRANCH  26  28
ENDBRANCH   3  22
TORSDOF 6
ENDMDL
MODEL 2
REMARK VINA RESULT:      -9.6      2.213      3.156
REMARK  Name = 
REMARK  8 active torsions:
REMARK  status: ('A' for Active; 'I' for Inactive)
REMARK    1  A    between atoms: C_1  and  N_2
REMARK    2  A    between atoms: C_11  and  C_12
REMARK    3  A    between atoms: N_14  and  C_15
REMARK    4  A    between atoms: C_19  and  C_20
REMARK    5  A    between atoms: C_20  and  C_21
REMARK    6  A    between atoms: C_21  and  C_22
REMARK    7  A    between atoms: N_26  and  C_27
REMARK    8  A    between atoms: C_33  and  C_34
REMARK                            x       y       z     vdW  Elec       q    Type
REMARK                         _______ _______ _______ _____ _____    ______ ____
ROOT
ATOM      1  C   UNL     1       1.963   7.843  19.462  0.00  0.00    +0.000 C 
ATOM      2  O   UNL     1       1.859   8.723  18.609  0.00  0.00    +0.000 OA
ATOM      3  N   UNL     1       1.518   7.910  20.766  0.00  0.00    +0.000 N 
ATOM      4  H   UNL     1       1.826   7.153  21.381  0.00  0.00    +0.000 HD
ENDROOT
BRANCH   1  15
ATOM      5  C   UNL     1       5.677   6.010  15.337  0.00  0.00    +0.000 C 
ATOM      6  N   UNL     1       7.014   5.890  15.920  0.00  0.00    +0.000 NA
ATOM      7  C   UNL     1       7.265   6.924  16.957  0.00  0.00    +0.000 C 
ATOM      8  C   UNL     1       7.011   6.437  18.402  0.00  0.00    +0.000 C 
ATOM      9  C   UNL     1       7.972   5.286  18.779  0.00  0.00    +0.000 C 
ATOM     10  C   UNL     1       6.938   4.427  18.001  0.00  0.00    +0.000 C 
ATOM     11  C   UNL     1       7.217   4.525  16.482  0.00  0.00    +0.000 C 
ATOM     12  N   UNL     1       6.007   5.411  18.467  0.00  0.00    +0.000 N 
ATOM     13  C   UNL     1       4.619   5.436  18.597  0.00  0.00    +0.000 A 
ATOM     14  C   UNL     1       4.019   6.602  18.989  0.00  0.00    +0.000 A 
ATOM     15  C   UNL     1       2.654   6.580  19.094  0.00  0.00    +0.000 A 
ATOM     16  N   UNL     1       1.885   5.497  18.876  0.00  0.00    +0.000 NA
ATOM     17  C   UNL     1       2.543   4.381  18.521  0.00  0.00    +0.000 A 
ATOM     18  N   UNL     1       3.889   4.326  18.366  0.00  0.00    +0.000 NA
BRANCH  17  19
ATOM     19  C   UNL     1       1.730   3.119  18.374  0.00  0.00    +0.000 C 
ATOM     20  C   UNL     1       1.882   1.992  19.376  0.00  0.00    +0.000 C 
ATOM     21  C   UNL     1       0.612   2.788  19.331  0.00  0.00    +0.000 C 
ENDBRANCH  17  19
ENDBRANCH   1  15
BRANCH   3  22
ATOM     22  C   UNL     1       0.793   8.977  21.324  0.00  0.00    +0.000 A 
ATOM     23  C   UNL     1       0.218   8.910  22.594  0.00  0.00    +0.000 A 
ATOM     24  C   UNL     1      -0.512   9.978  23.097  0.00  0.00    +0.000 A 
ATOM     25  C   UNL     1      -0.688  11.118  22.321  0.00  0.00    +0.000 A 
ATOM     26  C   UNL     1      -0.140  11.230  21.025  0.00  0.00    +0.000 A 
ATOM     27  C   UNL     1       0.634  10.141  20.568  0.00  0.00    +0.000 A 
BRANCH  26  28
ATOM     28  C   UNL     1      -0.423  12.514  20.119  0.00  0.00    +0.000 C 
ATOM     29  C   UNL     1       0.562  12.856  18.962  0.00  0.00    +0.000 C 
ATOM     30  O   UNL     1      -0.560  13.104  18.062  0.00  0.00    +0.000 OA
ATOM     31  C   UNL     1      -1.388  12.271  18.915  0.00  0.00    +0.000 C 
BRANCH  28  32
ATOM     32  C   UNL     1      -0.838  13.728  20.973  0.00  0.00    +0.000 C 
BRANCH  32  33
ATOM     33  C   UNL     1       0.307  14.609  21.359  0.00  0.00    +0.000 A 
ATOM     34  N   UNL     1       1.231  14.327  22.258  0.00  0.00    +0.000 NA
ATOM     35  N   UNL     1       2.116  15.378  22.315  0.00  0.00    +0.000 NA
ATOM     36  C   UNL     1       1.718  16.280  21.452  0.00  0.00    +0.000 A 
ATOM     37  N   UNL     1       0.589  15.843  20.827  0.00  0.00    +0.000 N 
ATOM     38  C   UNL     1      -0.126  16.566  19.811  0.00  0.00    +0.000 C 
ENDBRANCH  32  33
ENDBRANCH  28  32
ENDBRANCH  26  28
ENDBRANCH   3  22
TORSDOF 6
ENDMDL
MODEL 3
REMARK VINA RESULT:      -9.6      1.954      2.918
REMARK  Name = 
REMARK  8 active torsions:
REMARK  status: ('A' for Active; 'I' for Inactive)
REMARK    1  A    between atoms: C_1  and  N_2
REMARK    2  A    between atoms: C_11  and  C_12
REMARK    3  A    between atoms: N_14  and  C_15
REMARK    4  A    between atoms: C_19  and  C_20
REMARK    5  A    between atoms: C_20  and  C_21
REMARK    6  A    between atoms: C_21  and  C_22
REMARK    7  A    between atoms: N_26  and  C_27
REMARK    8  A    between atoms: C_33  and  C_34
REMARK                            x       y       z     vdW  Elec       q    Type
REMARK                         _______ _______ _______ _____ _____    ______ ____
ROOT
ATOM      1  C   UNL     1       1.990   7.722  19.578  0.00  0.00    +0.000 C 
ATOM      2  O   UNL     1       1.816   8.501  18.642  0.00  0.00    +0.000 OA
ATOM      3  N   UNL     1       1.551   7.889  20.875  0.00  0.00    +0.000 N 
ATOM      4  H   UNL     1       1.917   7.222  21.557  0.00  0.00    +0.000 HD
ENDROOT
BRANCH   1  15
ATOM      5  C   UNL     1       5.649   5.678  15.503  0.00  0.00    +0.000 C 
ATOM      6  N   UNL     1       7.017   5.739  16.019  0.00  0.00    +0.000 NA
ATOM      7  C   UNL     1       7.228   6.913  16.905  0.00  0.00    +0.000 C 
ATOM      8  C   UNL     1       7.083   6.594  18.411  0.00  0.00    +0.000 C 
ATOM      9  C   UNL     1       8.156   5.579  18.870  0.00  0.00    +0.000 C 
ATOM     10  C   UNL     1       7.163   4.550  18.263  0.00  0.00    +0.000 C 
ATOM     11  C   UNL     1       7.362   4.476  16.731  0.00  0.00    +0.000 C 
ATOM     12  N   UNL     1       6.175   5.508  18.658  0.00  0.00    +0.000 N 
ATOM     13  C   UNL     1       4.797   5.441  18.863  0.00  0.00    +0.000 A 
ATOM     14  C   UNL     1       4.120   6.597  19.143  0.00  0.00    +0.000 A 
ATOM     15  C   UNL     1       2.768   6.481  19.328  0.00  0.00    +0.000 A 
ATOM     16  N   UNL     1       2.084   5.322  19.288  0.00  0.00    +0.000 NA
ATOM     17  C   UNL     1       2.818   4.225  19.035  0.00  0.00    +0.000 A 
ATOM     18  N   UNL     1       4.154   4.256  18.812  0.00  0.00    +0.000 NA
BRANCH  17  19
ATOM     19  C   UNL     1       2.109   2.895  19.090  0.00  0.00    +0.000 C 
ATOM     20  C   UNL     1       1.581   2.365  20.409  0.00  0.00    +0.000 C 
ATOM     21  C   UNL     1       0.623   2.805  19.341  0.00  0.00    +0.000 C 
ENDBRANCH  17  19
ENDBRANCH   1  15
BRANCH   3  22
ATOM     22  C   UNL     1       0.754   8.953  21.333  0.00  0.00    +0.000 A 
ATOM     23  C   UNL     1       0.361   9.073  22.667  0.00  0.00    +0.000 A 
ATOM     24  C   UNL     1      -0.447  10.127  23.072  0.00  0.00    +0.000 A 
ATOM     25  C   UNL     1      -0.884  11.059  22.139  0.00  0.00    +0.000 A 
ATOM     26  C   UNL     1      -0.526  10.974  20.776  0.00  0.00    +0.000 A 
ATOM     27  C   UNL     1       0.334   9.915  20.412  0.00  0.00    +0.000 A 
BRANCH  26  28
ATOM     28  C   UNL     1      -1.105  12.007  19.705  0.00  0.00    +0.000 C 
ATOM     29  C   UNL     1      -1.033  11.650  18.192  0.00  0.00    +0.000 C 
ATOM     30  O   UNL     1      -2.412  12.092  18.008  0.00  0.00    +0.000 OA
ATOM     31  C   UNL     1      -2.636  11.879  19.427  0.00  0.00    +0.000 C 
BRANCH  28  32
ATOM     32  C   UNL     1      -0.683  13.454  20.031  0.00  0.00    +0.000 C 
BRANCH  32  33
ATOM     33  C   UNL     1       0.751  13.583  20.435  0.00  0.00    +0.000 A 
ATOM     34  N   UNL     1       1.197  13.733  21.669  0.00  0.00    +0.000 NA
ATOM     35  N   UNL     1       2.569  13.799  21.629  0.00  0.00    +0.000 NA
ATOM     36  C   UNL     1       2.937  13.687  20.375  0.00  0.00    +0.000 A 
ATOM     37  N   UNL     1       1.832  13.548  19.590  0.00  0.00    +0.000 N 
ATOM     38  C   UNL     1       1.849  13.392  18.161  0.00  0.00    +0.000 C 
ENDBRANCH  32  33
ENDBRANCH  28  32
ENDBRANCH  26  28
ENDBRANCH   3  22
TORSDOF 6
ENDMDL
MODEL 4
REMARK VINA RESULT:      -9.6      2.309      9.470
REMARK  Name = 
REMARK  8 active torsions:
REMARK  status: ('A' for Active; 'I' for Inactive)
REMARK    1  A    between atoms: C_1  and  N_2
REMARK    2  A    between atoms: C_11  and  C_12
REMARK    3  A    between atoms: N_14  and  C_15
REMARK    4  A    between atoms: C_19  and  C_20
REMARK    5  A    between atoms: C_20  and  C_21
REMARK    6  A    between atoms: C_21  and  C_22
REMARK    7  A    between atoms: N_26  and  C_27
REMARK    8  A    between atoms: C_33  and  C_34
REMARK                            x       y       z     vdW  Elec       q    Type
REMARK                         _______ _______ _______ _____ _____    ______ ____
ROOT
ATOM      1  C   UNL     1       1.637   8.599  19.076  0.00  0.00    +0.000 C 
ATOM      2  O   UNL     1       1.836   8.366  20.268  0.00  0.00    +0.000 OA
ATOM      3  N   UNL     1       2.140   7.886  18.007  0.00  0.00    +0.000 N 
ATOM      4  H   UNL     1       2.004   8.310  17.087  0.00  0.00    +0.000 HD
ENDROOT
BRANCH   1  15
ATOM      5  C   UNL     1      -0.797  13.157  21.809  0.00  0.00    +0.000 C 
ATOM      6  N   UNL     1      -0.016  14.360  21.515  0.00  0.00    +0.000 NA
ATOM      7  C   UNL     1       1.434  14.065  21.381  0.00  0.00    +0.000 C 
ATOM      8  C   UNL     1       1.901  13.871  19.920  0.00  0.00    +0.000 C 
ATOM      9  C   UNL     1       1.702  15.165  19.095  0.00  0.00    +0.000 C 
ATOM     10  C   UNL     1       0.240  14.648  19.000  0.00  0.00    +0.000 C 
ATOM     11  C   UNL     1      -0.531  15.028  20.287  0.00  0.00    +0.000 C 
ATOM     12  N   UNL     1       0.858  13.358  19.073  0.00  0.00    +0.000 N 
ATOM     13  C   UNL     1       0.437  12.069  18.747  0.00  0.00    +0.000 A 
ATOM     14  C   UNL     1       1.258  11.017  19.047  0.00  0.00    +0.000 A 
ATOM     15  C   UNL     1       0.797   9.771  18.716  0.00  0.00    +0.000 A 
ATOM     16  N   UNL     1      -0.372   9.525  18.096  0.00  0.00    +0.000 NA
ATOM     17  C   UNL     1      -1.114  10.607  17.808  0.00  0.00    +0.000 A 
ATOM     18  N   UNL     1      -0.745  11.872  18.127  0.00  0.00    +0.000 NA
BRANCH  17  19
ATOM     19  C   UNL     1      -2.379  10.385  17.017  0.00  0.00    +0.000 C 
ATOM     20  C   UNL     1      -3.674  10.042  17.728  0.00  0.00    +0.000 C 
ATOM     21  C   UNL     1      -3.517  11.375  17.057  0.00  0.00    +0.000 C 
ENDBRANCH  17  19
ENDBRANCH   1  15
BRANCH   3  22
ATOM     22  C   UNL     1       2.911   6.714  18.102  0.00  0.00    +0.000 A 
ATOM     23  C   UNL     1       2.349   5.469  18.390  0.00  0.00    +0.000 A 
ATOM     24  C   UNL     1       3.150   4.341  18.499  0.00  0.00    +0.000 A 
ATOM     25  C   UNL     1       4.526   4.455  18.339  0.00  0.00    +0.000 A 
ATOM     26  C   UNL     1       5.145   5.694  18.061  0.00  0.00    +0.000 A 
ATOM     27  C   UNL     1       4.291   6.809  17.912  0.00  0.00    +0.000 A 
BRANCH  26  28
ATOM     28  C   UNL     1       6.734   5.818  17.962  0.00  0.00    +0.000 C 
ATOM     29  C   UNL     1       7.365   7.200  17.624  0.00  0.00    +0.000 C 
ATOM     30  O   UNL     1       8.359   7.019  18.678  0.00  0.00    +0.000 OA
ATOM     31  C   UNL     1       7.460   6.078  19.320  0.00  0.00    +0.000 C 
BRANCH  28  32
ATOM     32  C   UNL     1       7.345   4.637  17.182  0.00  0.00    +0.000 C 
BRANCH  32  33
ATOM     33  C   UNL     1       7.097   4.700  15.709  0.00  0.00    +0.000 A 
ATOM     34  N   UNL     1       7.728   5.479  14.850  0.00  0.00    +0.000 NA
ATOM     35  N   UNL     1       7.228   5.234  13.593  0.00  0.00    +0.000 NA
ATOM     36  C   UNL     1       6.303   4.310  13.706  0.00  0.00    +0.000 A 
ATOM     37  N   UNL     1       6.187   3.943  15.013  0.00  0.00    +0.000 N 
ATOM     38  C   UNL     1       5.277   2.949  15.514  0.00  0.00    +0.000 C 
ENDBRANCH  32  33
ENDBRANCH  28  32
ENDBRANCH  26  28
ENDBRANCH   3  22
TORSDOF 6
ENDMDL
MODEL 5
REMARK VINA RESULT:      -9.6      0.693      1.108
REMARK  Name = 
REMARK  8 active torsions:
REMARK  status: ('A' for Active; 'I' for Inactive)
REMARK    1  A    between atoms: C_1  and  N_2
REMARK    2  A    between atoms: C_11  and  C_12
REMARK    3  A    between atoms: N_14  and  C_15
REMARK    4  A    between atoms: C_19  and  C_20
REMARK    5  A    between atoms: C_20  and  C_21
REMARK    6  A    between atoms: C_21  and  C_22
REMARK    7  A    between atoms: N_26  and  C_27
REMARK    8  A    between atoms: C_33  and  C_34
REMARK                            x       y       z     vdW  Elec       q    Type
REMARK                         _______ _______ _______ _____ _____    ______ ____
ROOT
ATOM      1  C   UNL     1       2.016   7.829  19.435  0.00  0.00    +0.000 C 
ATOM      2  O   UNL     1       1.959   8.691  18.559  0.00  0.00    +0.000 OA
ATOM      3  N   UNL     1       1.495   7.920  20.709  0.00  0.00    +0.000 N 
ATOM      4  H   UNL     1       1.769   7.178  21.356  0.00  0.00    +0.000 HD
ENDROOT
BRANCH   1  15
ATOM      5  C   UNL     1       5.689   5.825  15.354  0.00  0.00    +0.000 C 
ATOM      6  N   UNL     1       7.041   5.776  15.913  0.00  0.00    +0.000 NA
ATOM      7  C   UNL     1       7.287   6.882  16.875  0.00  0.00    +0.000 C 
ATOM      8  C   UNL     1       7.075   6.484  18.354  0.00  0.00    +0.000 C 
ATOM      9  C   UNL     1       8.075   5.384  18.783  0.00  0.00    +0.000 C 
ATOM     10  C   UNL     1       7.047   4.451  18.085  0.00  0.00    +0.000 C 
ATOM     11  C   UNL     1       7.292   4.456  16.557  0.00  0.00    +0.000 C 
ATOM     12  N   UNL     1       6.101   5.439  18.508  0.00  0.00    +0.000 N 
ATOM     13  C   UNL     1       4.715   5.438  18.668  0.00  0.00    +0.000 A 
ATOM     14  C   UNL     1       4.094   6.612  18.996  0.00  0.00    +0.000 A 
ATOM     15  C   UNL     1       2.732   6.563  19.134  0.00  0.00    +0.000 A 
ATOM     16  N   UNL     1       1.987   5.449  19.003  0.00  0.00    +0.000 NA
ATOM     17  C   UNL     1       2.668   4.329  18.707  0.00  0.00    +0.000 A 
ATOM     18  N   UNL     1       4.010   4.297  18.525  0.00  0.00    +0.000 NA
BRANCH  17  19
ATOM     19  C   UNL     1       1.885   3.041  18.660  0.00  0.00    +0.000 C 
ATOM     20  C   UNL     1       1.885   2.103  19.851  0.00  0.00    +0.000 C 
ATOM     21  C   UNL     1       0.636   2.848  19.484  0.00  0.00    +0.000 C 
ENDBRANCH  17  19
ENDBRANCH   1  15
BRANCH   3  22
ATOM     22  C   UNL     1       0.734   8.995  21.202  0.00  0.00    +0.000 A 
ATOM     23  C   UNL     1       0.245   9.030  22.509  0.00  0.00    +0.000 A 
ATOM     24  C   UNL     1      -0.524  10.099  22.947  0.00  0.00    +0.000 A 
ATOM     25  C   UNL     1      -0.825  11.135  22.072  0.00  0.00    +0.000 A 
ATOM     26  C   UNL     1      -0.367  11.141  20.736  0.00  0.00    +0.000 A 
ATOM     27  C   UNL     1       0.451  10.059  20.343  0.00  0.00    +0.000 A 
BRANCH  26  28
ATOM     28  C   UNL     1      -0.791  12.300  19.723  0.00  0.00    +0.000 C 
ATOM     29  C   UNL     1      -1.690  13.463  20.236  0.00  0.00    +0.000 C 
ATOM     30  O   UNL     1      -0.838  14.437  19.561  0.00  0.00    +0.000 OA
ATOM     31  C   UNL     1       0.240  13.465  19.585  0.00  0.00    +0.000 C 
BRANCH  28  32
ATOM     32  C   UNL     1      -1.221  11.727  18.358  0.00  0.00    +0.000 C 
BRANCH  32  33
ATOM     33  C   UNL     1      -2.703  11.647  18.181  0.00  0.00    +0.000 A 
ATOM     34  N   UNL     1      -3.608  11.895  19.110  0.00  0.00    +0.000 NA
ATOM     35  N   UNL     1      -4.855  11.727  18.557  0.00  0.00    +0.000 NA
ATOM     36  C   UNL     1      -4.691  11.383  17.302  0.00  0.00    +0.000 A 
ATOM     37  N   UNL     1      -3.360  11.320  17.020  0.00  0.00    +0.000 N 
ATOM     38  C   UNL     1      -2.802  10.981  15.739  0.00  0.00    +0.000 C 
ENDBRANCH  32  33
ENDBRANCH  28  32
ENDBRANCH  26  28
ENDBRANCH   3  22
TORSDOF 6
ENDMDL
MODEL 6
REMARK VINA RESULT:      -9.5      2.316      3.511
REMARK  Name = 
REMARK  8 active torsions:
REMARK  status: ('A' for Active; 'I' for Inactive)
REMARK    1  A    between atoms: C_1  and  N_2
REMARK    2  A    between atoms: C_11  and  C_12
REMARK    3  A    between atoms: N_14  and  C_15
REMARK    4  A    between atoms: C_19  and  C_20
REMARK    5  A    between atoms: C_20  and  C_21
REMARK    6  A    between atoms: C_21  and  C_22
REMARK    7  A    between atoms: N_26  and  C_27
REMARK    8  A    between atoms: C_33  and  C_34
REMARK                            x       y       z     vdW  Elec       q    Type
REMARK                         _______ _______ _______ _____ _____    ______ ____
ROOT
ATOM      1  C   UNL     1       1.922   7.734  19.307  0.00  0.00    +0.000 C 
ATOM      2  O   UNL     1       1.594   8.484  18.388  0.00  0.00    +0.000 OA
ATOM      3  N   UNL     1       1.700   7.942  20.653  0.00  0.00    +0.000 N 
ATOM      4  H   UNL     1       2.176   7.298  21.287  0.00  0.00    +0.000 HD
ENDROOT
BRANCH   1  15
ATOM      5  C   UNL     1       5.741   5.931  15.266  0.00  0.00    +0.000 C 
ATOM      6  N   UNL     1       7.073   5.862  15.868  0.00  0.00    +0.000 NA
ATOM      7  C   UNL     1       7.281   6.923  16.887  0.00  0.00    +0.000 C 
ATOM      8  C   UNL     1       7.021   6.457  18.338  0.00  0.00    +0.000 C 
ATOM      9  C   UNL     1       8.011   5.342  18.750  0.00  0.00    +0.000 C 
ATOM     10  C   UNL     1       7.012   4.438  17.976  0.00  0.00    +0.000 C 
ATOM     11  C   UNL     1       7.309   4.514  16.459  0.00  0.00    +0.000 C 
ATOM     12  N   UNL     1       6.047   5.403  18.411  0.00  0.00    +0.000 N 
ATOM     13  C   UNL     1       4.657   5.390  18.523  0.00  0.00    +0.000 A 
ATOM     14  C   UNL     1       4.019   6.545  18.884  0.00  0.00    +0.000 A 
ATOM     15  C   UNL     1       2.654   6.485  18.973  0.00  0.00    +0.000 A 
ATOM     16  N   UNL     1       1.919   5.377  18.767  0.00  0.00    +0.000 NA
ATOM     17  C   UNL     1       2.615   4.273  18.442  0.00  0.00    +0.000 A 
ATOM     18  N   UNL     1       3.963   4.254  18.305  0.00  0.00    +0.000 NA
BRANCH  17  19
ATOM     19  C   UNL     1       1.840   2.986  18.310  0.00  0.00    +0.000 C 
ATOM     20  C   UNL     1       1.717   2.044  19.491  0.00  0.00    +0.000 C 
ATOM     21  C   UNL     1       0.513   2.792  19.000  0.00  0.00    +0.000 C 
ENDBRANCH  17  19
ENDBRANCH   1  15
BRANCH   3  22
ATOM     22  C   UNL     1       0.984   9.021  21.202  0.00  0.00    +0.000 A 
ATOM     23  C   UNL     1       0.217   8.899  22.362  0.00  0.00    +0.000 A 
ATOM     24  C   UNL     1      -0.494   9.983  22.856  0.00  0.00    +0.000 A 
ATOM     25  C   UNL     1      -0.458  11.196  22.179  0.00  0.00    +0.000 A 
ATOM     26  C   UNL     1       0.290  11.368  20.994  0.00  0.00    +0.000 A 
ATOM     27  C   UNL     1       1.036  10.255  20.550  0.00  0.00    +0.000 A 
BRANCH  26  28
ATOM     28  C   UNL     1       0.253  12.746  20.187  0.00  0.00    +0.000 C 
ATOM     29  C   UNL     1      -0.897  12.996  19.169  0.00  0.00    +0.000 C 
ATOM     30  O   UNL     1      -1.080  14.348  19.687  0.00  0.00    +0.000 OA
ATOM     31  C   UNL     1      -0.457  13.924  20.928  0.00  0.00    +0.000 C 
BRANCH  28  32
ATOM     32  C   UNL     1       1.651  13.133  19.666  0.00  0.00    +0.000 C 
BRANCH  32  33
ATOM     33  C   UNL     1       2.435  13.974  20.623  0.00  0.00    +0.000 A 
ATOM     34  N   UNL     1       3.067  13.539  21.697  0.00  0.00    +0.000 NA
ATOM     35  N   UNL     1       3.680  14.610  22.303  0.00  0.00    +0.000 NA
ATOM     36  C   UNL     1       3.414  15.677  21.589  0.00  0.00    +0.000 A 
ATOM     37  N   UNL     1       2.638  15.328  20.525  0.00  0.00    +0.000 N 
ATOM     38  C   UNL     1       2.156  16.237  19.521  0.00  0.00    +0.000 C 
ENDBRANCH  32  33
ENDBRANCH  28  32
ENDBRANCH  26  28
ENDBRANCH   3  22
TORSDOF 6
ENDMDL
MODEL 7
REMARK VINA RESULT:      -9.5      1.776      2.498
REMARK  Name = 
REMARK  8 active torsions:
REMARK  status: ('A' for Active; 'I' for Inactive)
REMARK    1  A    between atoms: C_1  and  N_2
REMARK    2  A    between atoms: C_11  and  C_12
REMARK    3  A    between atoms: N_14  and  C_15
REMARK    4  A    between atoms: C_19  and  C_20
REMARK    5  A    between atoms: C_20  and  C_21
REMARK    6  A    between atoms: C_21  and  C_22
REMARK    7  A    between atoms: N_26  and  C_27
REMARK    8  A    between atoms: C_33  and  C_34
REMARK                            x       y       z     vdW  Elec       q    Type
REMARK                         _______ _______ _______ _____ _____    ______ ____
ROOT
ATOM      1  C   UNL     1       1.917   8.300  18.319  0.00  0.00    +0.000 C 
ATOM      2  O   UNL     1       2.043   9.044  17.348  0.00  0.00    +0.000 OA
ATOM      3  N   UNL     1       1.213   8.572  19.474  0.00  0.00    +0.000 N 
ATOM      4  H   UNL     1       1.343   7.909  20.241  0.00  0.00    +0.000 HD
ENDROOT
BRANCH   1  15
ATOM      5  C   UNL     1       5.987   5.624  15.088  0.00  0.00    +0.000 C 
ATOM      6  N   UNL     1       7.248   5.607  15.830  0.00  0.00    +0.000 NA
ATOM      7  C   UNL     1       7.423   6.827  16.661  0.00  0.00    +0.000 C 
ATOM      8  C   UNL     1       6.997   6.645  18.136  0.00  0.00    +0.000 C 
ATOM      9  C   UNL     1       7.871   5.581  18.841  0.00  0.00    +0.000 C 
ATOM     10  C   UNL     1       6.897   4.596  18.138  0.00  0.00    +0.000 C 
ATOM     11  C   UNL     1       7.342   4.381  16.672  0.00  0.00    +0.000 C 
ATOM     12  N   UNL     1       5.957   5.665  18.291  0.00  0.00    +0.000 N 
ATOM     13  C   UNL     1       4.564   5.734  18.256  0.00  0.00    +0.000 A 
ATOM     14  C   UNL     1       3.968   6.963  18.337  0.00  0.00    +0.000 A 
ATOM     15  C   UNL     1       2.599   6.980  18.290  0.00  0.00    +0.000 A 
ATOM     16  N   UNL     1       1.820   5.885  18.207  0.00  0.00    +0.000 NA
ATOM     17  C   UNL     1       2.473   4.712  18.158  0.00  0.00    +0.000 A 
ATOM     18  N   UNL     1       3.825   4.609  18.171  0.00  0.00    +0.000 NA
BRANCH  17  19
ATOM     19  C   UNL     1       1.637   3.457  18.175  0.00  0.00    +0.000 C 
ATOM     20  C   UNL     1       2.082   2.254  18.983  0.00  0.00    +0.000 C 
ATOM     21  C   UNL     1       0.875   3.036  19.407  0.00  0.00    +0.000 C 
ENDBRANCH  17  19
ENDBRANCH   1  15
BRANCH   3  22
ATOM     22  C   UNL     1       0.447   9.728  19.706  0.00  0.00    +0.000 A 
ATOM     23  C   UNL     1       0.720  10.610  20.753  0.00  0.00    +0.000 A 
ATOM     24  C   UNL     1      -0.077  11.726  20.962  0.00  0.00    +0.000 A 
ATOM     25  C   UNL     1      -1.168  11.958  20.134  0.00  0.00    +0.000 A 
ATOM     26  C   UNL     1      -1.496  11.089  19.071  0.00  0.00    +0.000 A 
ATOM     27  C   UNL     1      -0.634   9.990  18.862  0.00  0.00    +0.000 A 
BRANCH  26  28
ATOM     28  C   UNL     1      -2.801  11.328  18.182  0.00  0.00    +0.000 C 
ATOM     29  C   UNL     1      -2.693  11.220  16.633  0.00  0.00    +0.000 C 
ATOM     30  O   UNL     1      -3.920  10.431  16.589  0.00  0.00    +0.000 OA
ATOM     31  C   UNL     1      -3.699  10.067  17.976  0.00  0.00    +0.000 C 
BRANCH  28  32
ATOM     32  C   UNL     1      -3.604  12.550  18.674  0.00  0.00    +0.000 C 
BRANCH  32  33
ATOM     33  C   UNL     1      -4.847  12.188  19.422  0.00  0.00    +0.000 A 
ATOM     34  N   UNL     1      -4.915  11.874  20.703  0.00  0.00    +0.000 NA
ATOM     35  N   UNL     1      -6.230  11.621  21.017  0.00  0.00    +0.000 NA
ATOM     36  C   UNL     1      -6.939  11.785  19.927  0.00  0.00    +0.000 A 
ATOM     37  N   UNL     1      -6.116  12.142  18.901  0.00  0.00    +0.000 N 
ATOM     38  C   UNL     1      -6.543  12.414  17.555  0.00  0.00    +0.000 C 
ENDBRANCH  32  33
ENDBRANCH  28  32
ENDBRANCH  26  28
ENDBRANCH   3  22
TORSDOF 6
ENDMDL
MODEL 8
REMARK VINA RESULT:      -9.5      1.089      1.390
REMARK  Name = 
REMARK  8 active torsions:
REMARK  status: ('A' for Active; 'I' for Inactive)
REMARK    1  A    between atoms: C_1  and  N_2
REMARK    2  A    between atoms: C_11  and  C_12
REMARK    3  A    between atoms: N_14  and  C_15
REMARK    4  A    between atoms: C_19  and  C_20
REMARK    5  A    between atoms: C_20  and  C_21
REMARK    6  A    between atoms: C_21  and  C_22
REMARK    7  A    between atoms: N_26  and  C_27
REMARK    8  A    between atoms: C_33  and  C_34
REMARK                            x       y       z     vdW  Elec       q    Type
REMARK                         _______ _______ _______ _____ _____    ______ ____
ROOT
ATOM      1  C   UNL     1       1.890   7.919  19.561  0.00  0.00    +0.000 C 
ATOM      2  O   UNL     1       1.737   8.767  18.683  0.00  0.00    +0.000 OA
ATOM      3  N   UNL     1       1.514   8.034  20.884  0.00  0.00    +0.000 N 
ATOM      4  H   UNL     1       1.857   7.301  21.508  0.00  0.00    +0.000 HD
ENDROOT
BRANCH   1  15
ATOM      5  C   UNL     1       5.437   5.957  15.350  0.00  0.00    +0.000 C 
ATOM      6  N   UNL     1       6.795   5.850  15.885  0.00  0.00    +0.000 NA
ATOM      7  C   UNL     1       7.089   6.913  16.881  0.00  0.00    +0.000 C 
ATOM      8  C   UNL     1       6.889   6.468  18.347  0.00  0.00    +0.000 C 
ATOM      9  C   UNL     1       7.863   5.325  18.720  0.00  0.00    +0.000 C 
ATOM     10  C   UNL     1       6.797   4.448  18.008  0.00  0.00    +0.000 C 
ATOM     11  C   UNL     1       7.018   4.501  16.477  0.00  0.00    +0.000 C 
ATOM     12  N   UNL     1       5.887   5.447  18.481  0.00  0.00    +0.000 N 
ATOM     13  C   UNL     1       4.505   5.480  18.664  0.00  0.00    +0.000 A 
ATOM     14  C   UNL     1       3.923   6.659  19.044  0.00  0.00    +0.000 A 
ATOM     15  C   UNL     1       2.563   6.644  19.203  0.00  0.00    +0.000 A 
ATOM     16  N   UNL     1       1.784   5.558  19.046  0.00  0.00    +0.000 NA
ATOM     17  C   UNL     1       2.426   4.430  18.698  0.00  0.00    +0.000 A 
ATOM     18  N   UNL     1       3.764   4.366  18.493  0.00  0.00    +0.000 NA
BRANCH  17  19
ATOM     19  C   UNL     1       1.606   3.167  18.619  0.00  0.00    +0.000 C 
ATOM     20  C   UNL     1       1.975   1.962  19.461  0.00  0.00    +0.000 C 
ATOM     21  C   UNL     1       0.722   2.730  19.761  0.00  0.00    +0.000 C 
ENDBRANCH  17  19
ENDBRANCH   1  15
BRANCH   3  22
ATOM     22  C   UNL     1       0.817   9.120  21.440  0.00  0.00    +0.000 A 
ATOM     23  C   UNL     1      -0.103   8.968  22.478  0.00  0.00    +0.000 A 
ATOM     24  C   UNL     1      -0.788  10.065  22.982  0.00  0.00    +0.000 A 
ATOM     25  C   UNL     1      -0.571  11.323  22.435  0.00  0.00    +0.000 A 
ATOM     26  C   UNL     1       0.338  11.529  21.374  0.00  0.00    +0.000 A 
ATOM     27  C   UNL     1       1.049  10.396  20.921  0.00  0.00    +0.000 A 
BRANCH  26  28
ATOM     28  C   UNL     1       0.513  12.968  20.705  0.00  0.00    +0.000 C 
ATOM     29  C   UNL     1       1.496  13.988  21.349  0.00  0.00    +0.000 C 
ATOM     30  O   UNL     1       2.036  14.320  20.033  0.00  0.00    +0.000 OA
ATOM     31  C   UNL     1       1.564  13.034  19.551  0.00  0.00    +0.000 C 
BRANCH  28  32
ATOM     32  C   UNL     1      -0.847  13.572  20.300  0.00  0.00    +0.000 C 
BRANCH  32  33
ATOM     33  C   UNL     1      -1.630  12.710  19.363  0.00  0.00    +0.000 A 
ATOM     34  N   UNL     1      -1.184  12.187  18.237  0.00  0.00    +0.000 NA
ATOM     35  N   UNL     1      -2.196  11.448  17.670  0.00  0.00    +0.000 NA
ATOM     36  C   UNL     1      -3.239  11.532  18.459  0.00  0.00    +0.000 A 
ATOM     37  N   UNL     1      -2.933  12.311  19.534  0.00  0.00    +0.000 N 
ATOM     38  C   UNL     1      -3.831  12.621  20.614  0.00  0.00    +0.000 C 
ENDBRANCH  32  33
ENDBRANCH  28  32
ENDBRANCH  26  28
ENDBRANCH   3  22
TORSDOF 6
ENDMDL
MODEL 9
REMARK VINA RESULT:      -9.5      1.855      2.814
REMARK  Name = 
REMARK  8 active torsions:
REMARK  status: ('A' for Active; 'I' for Inactive)
REMARK    1  A    between atoms: C_1  and  N_2
REMARK    2  A    between atoms: C_11  and  C_12
REMARK    3  A    between atoms: N_14  and  C_15
REMARK    4  A    between atoms: C_19  and  C_20
REMARK    5  A    between atoms: C_20  and  C_21
REMARK    6  A    between atoms: C_21  and  C_22
REMARK    7  A    between atoms: N_26  and  C_27
REMARK    8  A    between atoms: C_33  and  C_34
REMARK                            x       y       z     vdW  Elec       q    Type
REMARK                         _______ _______ _______ _____ _____    ______ ____
ROOT
ATOM      1  C   UNL     1       1.997   7.781  19.468  0.00  0.00    +0.000 C 
ATOM      2  O   UNL     1       1.939   8.681  18.632  0.00  0.00    +0.000 OA
ATOM      3  N   UNL     1       1.494   7.822  20.752  0.00  0.00    +0.000 N 
ATOM      4  H   UNL     1       1.767   7.049  21.362  0.00  0.00    +0.000 HD
ENDROOT
BRANCH   1  15
ATOM      5  C   UNL     1       5.722   5.960  15.348  0.00  0.00    +0.000 C 
ATOM      6  N   UNL     1       7.059   5.846  15.932  0.00  0.00    +0.000 NA
ATOM      7  C   UNL     1       7.305   6.883  16.968  0.00  0.00    +0.000 C 
ATOM      8  C   UNL     1       7.051   6.396  18.413  0.00  0.00    +0.000 C 
ATOM      9  C   UNL     1       8.018   5.249  18.792  0.00  0.00    +0.000 C 
ATOM     10  C   UNL     1       6.988   4.385  18.014  0.00  0.00    +0.000 C 
ATOM     11  C   UNL     1       7.268   4.483  16.496  0.00  0.00    +0.000 C 
ATOM     12  N   UNL     1       6.052   5.365  18.479  0.00  0.00    +0.000 N 
ATOM     13  C   UNL     1       4.663   5.385  18.608  0.00  0.00    +0.000 A 
ATOM     14  C   UNL     1       4.059   6.549  18.997  0.00  0.00    +0.000 A 
ATOM     15  C   UNL     1       2.694   6.521  19.102  0.00  0.00    +0.000 A 
ATOM     16  N   UNL     1       1.929   5.435  18.884  0.00  0.00    +0.000 NA
ATOM     17  C   UNL     1       2.593   4.321  18.531  0.00  0.00    +0.000 A 
ATOM     18  N   UNL     1       3.939   4.271  18.377  0.00  0.00    +0.000 NA
BRANCH  17  19
ATOM     19  C   UNL     1       1.785   3.055  18.384  0.00  0.00    +0.000 C 
ATOM     20  C   UNL     1       1.937   1.932  19.390  0.00  0.00    +0.000 C 
ATOM     21  C   UNL     1       0.664   2.723  19.338  0.00  0.00    +0.000 C 
ENDBRANCH  17  19
ENDBRANCH   1  15
BRANCH   3  22
ATOM     22  C   UNL     1       0.752   8.883  21.302  0.00  0.00    +0.000 A 
ATOM     23  C   UNL     1       0.424   8.944  22.657  0.00  0.00    +0.000 A 
ATOM     24  C   UNL     1      -0.331   9.997  23.153  0.00  0.00    +0.000 A 
ATOM     25  C   UNL     1      -0.781  10.989  22.291  0.00  0.00    +0.000 A 
ATOM     26  C   UNL     1      -0.489  10.966  20.909  0.00  0.00    +0.000 A 
ATOM     27  C   UNL     1       0.320   9.903  20.451  0.00  0.00    +0.000 A 
BRANCH  26  28
ATOM     28  C   UNL     1      -1.084  12.070  19.922  0.00  0.00    +0.000 C 
ATOM     29  C   UNL     1      -0.663  12.051  18.423  0.00  0.00    +0.000 C 
ATOM     30  O   UNL     1      -2.050  12.255  18.017  0.00  0.00    +0.000 OA
ATOM     31  C   UNL     1      -2.472  11.717  19.297  0.00  0.00    +0.000 C 
BRANCH  28  32
ATOM     32  C   UNL     1      -1.065  13.472  20.564  0.00  0.00    +0.000 C 
BRANCH  32  33
ATOM     33  C   UNL     1      -0.132  14.427  19.891  0.00  0.00    +0.000 A 
ATOM     34  N   UNL     1      -0.480  15.397  19.067  0.00  0.00    +0.000 NA
ATOM     35  N   UNL     1       0.658  16.060  18.673  0.00  0.00    +0.000 NA
ATOM     36  C   UNL     1       1.678  15.486  19.263  0.00  0.00    +0.000 A 
ATOM     37  N   UNL     1       1.232  14.458  20.038  0.00  0.00    +0.000 N 
ATOM     38  C   UNL     1       2.068  13.605  20.840  0.00  0.00    +0.000 C 
ENDBRANCH  32  33
ENDBRANCH  28  32
ENDBRANCH  26  28
ENDBRANCH   3  22
TORSDOF 6
ENDMDL
