MODEL 1
REMARK VINA RESULT:      -8.1      0.000      0.000
REMARK  Name = 
REMARK  8 active torsions:
REMARK  status: ('A' for Active; 'I' for Inactive)
REMARK    1  A    between atoms: C_1  and  C_2
REMARK    2  A    between atoms: C_2  and  S_3
REMARK    3  A    between atoms: C_2  and  C_10
REMARK    4  A    between atoms: S_3  and  C_4
REMARK    5  A    between atoms: N_8  and  C_9
REMARK    6  A    between atoms: C_14  and  N_15
REMARK    7  A    between atoms: C_16  and  C_18
REMARK    8  A    between atoms: C_23  and  C_24
REMARK                            x       y       z     vdW  Elec       q    Type
REMARK                         _______ _______ _______ _____ _____    ______ ____
ROOT
ATOM      1  C   UNL     1       0.021  10.714  19.718  0.00  0.00    +0.000 A 
ATOM      2  C   UNL     1      -0.126  10.662  21.111  0.00  0.00    +0.000 A 
ATOM      3  C   UNL     1       0.522   9.685  21.859  0.00  0.00    +0.000 A 
ATOM      4  C   UNL     1       1.304   8.725  21.222  0.00  0.00    +0.000 A 
ATOM      5  C   UNL     1       1.437   8.718  19.836  0.00  0.00    +0.000 A 
ATOM      6  C   UNL     1       0.818   9.733  19.088  0.00  0.00    +0.000 A 
ENDROOT
BRANCH   5   7
ATOM      7  N   UNL     1       2.171   7.727  19.149  0.00  0.00    +0.000 N 
ATOM      8  C   UNL     1       2.293   6.398  19.520  0.00  0.00    +0.000 C 
ATOM      9  O   UNL     1       1.781   5.848  20.493  0.00  0.00    +0.000 OA
ATOM     10  H   UNL     1       2.594   7.964  18.255  0.00  0.00    +0.000 HD
BRANCH   8  11
ATOM     11  C   UNL     1       3.118   5.570  18.592  0.00  0.00    +0.000 A 
ATOM     12  C   UNL     1       2.559   4.442  18.000  0.00  0.00    +0.000 A 
ATOM     13  C   UNL     1       3.348   3.695  17.138  0.00  0.00    +0.000 A 
ATOM     14  C   UNL     1       4.658   4.101  16.908  0.00  0.00    +0.000 A 
ATOM     15  F   UNL     1       5.425   3.378  16.080  0.00  0.00    +0.000 F 
ATOM     16  C   UNL     1       5.167   5.246  17.536  0.00  0.00    +0.000 A 
ATOM     17  N   UNL     1       4.396   5.986  18.381  0.00  0.00    +0.000 NA
BRANCH  16  18
ATOM     18  C   UNL     1       6.597   5.686  17.339  0.00  0.00    +0.000 C 
ATOM     19  C   UNL     1       7.431   6.209  18.483  0.00  0.00    +0.000 C 
ATOM     20  C   UNL     1       7.703   4.841  17.935  0.00  0.00    +0.000 C 
ENDBRANCH  16  18
ENDBRANCH   8  11
ENDBRANCH   5   7
BRANCH   1  22
ATOM     21  C   UNL     1      -0.324  13.237  19.539  0.00  0.00    +0.000 C 
ATOM     22  C   UNL     1      -0.644  11.853  18.959  0.00  0.00    +0.000 C 
BRANCH  22  23
ATOM     23  S   UNL     1      -2.463  11.661  18.947  0.00  0.00    +0.000 S 
BRANCH  23  24
ATOM     24  C   UNL     1      -2.768  10.978  17.390  0.00  0.00    +0.000 A 
ATOM     25  N   UNL     1      -1.973  10.223  16.667  0.00  0.00    +0.000 NA
ATOM     26  N   UNL     1      -2.607   9.972  15.466  0.00  0.00    +0.000 NA
ATOM     27  C   UNL     1      -3.762  10.597  15.490  0.00  0.00    +0.000 A 
ATOM     28  N   UNL     1      -3.913  11.226  16.688  0.00  0.00    +0.000 N 
ATOM     29  C   UNL     1      -5.053  11.998  17.105  0.00  0.00    +0.000 C 
ENDBRANCH  23  24
ENDBRANCH  22  23
ENDBRANCH   1  22
TORSDOF 6
ENDMDL
MODEL 2
REMARK VINA RESULT:      -7.7      1.181      2.032
REMARK  Name = 
REMARK  8 active torsions:
REMARK  status: ('A' for Active; 'I' for Inactive)
REMARK    1  A    between atoms: C_1  and  C_2
REMARK    2  A    between atoms: C_2  and  S_3
REMARK    3  A    between atoms: C_2  and  C_10
REMARK    4  A    between atoms: S_3  and  C_4
REMARK    5  A    between atoms: N_8  and  C_9
REMARK    6  A    between atoms: C_14  and  N_15
REMARK    7  A    between atoms: C_16  and  C_18
REMARK    8  A    between atoms: C_23  and  C_24
REMARK                            x       y       z     vdW  Elec       q    Type
REMARK                         _______ _______ _______ _____ _____    ______ ____
ROOT
ATOM      1  C   UNL     1      -0.382  11.089  19.897  0.00  0.00    +0.000 A 
ATOM      2  C   UNL     1      -0.521  10.940  21.284  0.00  0.00    +0.000 A 
ATOM      3  C   UNL     1       0.200   9.970  21.971  0.00  0.00    +0.000 A 
ATOM      4  C   UNL     1       1.048   9.111  21.277  0.00  0.00    +0.000 A 
ATOM      5  C   UNL     1       1.177   9.199  19.894  0.00  0.00    +0.000 A 
ATOM      6  C   UNL     1       0.483  10.210  19.209  0.00  0.00    +0.000 A 
ENDROOT
BRANCH   5   7
ATOM      7  N   UNL     1       1.981   8.309  19.148  0.00  0.00    +0.000 N 
ATOM      8  C   UNL     1       2.272   6.997  19.483  0.00  0.00    +0.000 C 
ATOM      9  O   UNL     1       1.878   6.377  20.469  0.00  0.00    +0.000 OA
ATOM     10  H   UNL     1       2.325   8.608  18.239  0.00  0.00    +0.000 HD
BRANCH   8  11
ATOM     11  C   UNL     1       3.134   6.283  18.495  0.00  0.00    +0.000 A 
ATOM     12  C   UNL     1       3.909   7.020  17.606  0.00  0.00    +0.000 A 
ATOM     13  C   UNL     1       4.704   6.328  16.703  0.00  0.00    +0.000 A 
ATOM     14  C   UNL     1       4.687   4.939  16.723  0.00  0.00    +0.000 A 
ATOM     15  F   UNL     1       5.449   4.268  15.848  0.00  0.00    +0.000 F 
ATOM     16  C   UNL     1       3.881   4.251  17.641  0.00  0.00    +0.000 A 
ATOM     17  N   UNL     1       3.102   4.924  18.533  0.00  0.00    +0.000 NA
BRANCH  16  18
ATOM     18  C   UNL     1       3.810   2.744  17.657  0.00  0.00    +0.000 C 
ATOM     19  C   UNL     1       3.436   1.981  18.905  0.00  0.00    +0.000 C 
ATOM     20  C   UNL     1       2.453   2.085  17.778  0.00  0.00    +0.000 C 
ENDBRANCH  16  18
ENDBRANCH   8  11
ENDBRANCH   5   7
BRANCH   1  22
ATOM     21  C   UNL     1      -1.003  13.564  19.936  0.00  0.00    +0.000 C 
ATOM     22  C   UNL     1      -1.132  12.220  19.209  0.00  0.00    +0.000 C 
BRANCH  22  23
ATOM     23  S   UNL     1      -2.915  11.834  19.063  0.00  0.00    +0.000 S 
BRANCH  23  24
ATOM     24  C   UNL     1      -3.042  11.207  17.459  0.00  0.00    +0.000 A 
ATOM     25  N   UNL     1      -2.134  10.556  16.768  0.00  0.00    +0.000 NA
ATOM     26  N   UNL     1      -2.652  10.315  15.512  0.00  0.00    +0.000 NA
ATOM     27  C   UNL     1      -3.856  10.840  15.472  0.00  0.00    +0.000 A 
ATOM     28  N   UNL     1      -4.149  11.394  16.681  0.00  0.00    +0.000 N 
ATOM     29  C   UNL     1      -5.379  12.048  17.040  0.00  0.00    +0.000 C 
ENDBRANCH  23  24
ENDBRANCH  22  23
ENDBRANCH   1  22
TORSDOF 6
ENDMDL
MODEL 3
REMARK VINA RESULT:      -7.7      4.250      9.203
REMARK  Name = 
REMARK  8 active torsions:
REMARK  status: ('A' for Active; 'I' for Inactive)
REMARK    1  A    between atoms: C_1  and  C_2
REMARK    2  A    between atoms: C_2  and  S_3
REMARK    3  A    between atoms: C_2  and  C_10
REMARK    4  A    between atoms: S_3  and  C_4
REMARK    5  A    between atoms: N_8  and  C_9
REMARK    6  A    between atoms: C_14  and  N_15
REMARK    7  A    between atoms: C_16  and  C_18
REMARK    8  A    between atoms: C_23  and  C_24
REMARK                            x       y       z     vdW  Elec       q    Type
REMARK                         _______ _______ _______ _____ _____    ______ ____
ROOT
ATOM      1  C   UNL     1       4.331   5.404  17.421  0.00  0.00    +0.000 A 
ATOM      2  C   UNL     1       3.819   4.099  17.441  0.00  0.00    +0.000 A 
ATOM      3  C   UNL     1       2.673   3.795  18.166  0.00  0.00    +0.000 A 
ATOM      4  C   UNL     1       2.037   4.786  18.910  0.00  0.00    +0.000 A 
ATOM      5  C   UNL     1       2.541   6.083  18.951  0.00  0.00    +0.000 A 
ATOM      6  C   UNL     1       3.673   6.397  18.180  0.00  0.00    +0.000 A 
ENDROOT
BRANCH   5   7
ATOM      7  N   UNL     1       1.960   7.099  19.739  0.00  0.00    +0.000 N 
ATOM      8  C   UNL     1       1.583   8.357  19.299  0.00  0.00    +0.000 C 
ATOM      9  O   UNL     1       1.674   8.803  18.157  0.00  0.00    +0.000 OA
ATOM     10  H   UNL     1       1.711   6.888  20.702  0.00  0.00    +0.000 HD
BRANCH   8  11
ATOM     11  C   UNL     1       0.972   9.223  20.351  0.00  0.00    +0.000 A 
ATOM     12  C   UNL     1       0.615   8.665  21.574  0.00  0.00    +0.000 A 
ATOM     13  C   UNL     1       0.055   9.496  22.533  0.00  0.00    +0.000 A 
ATOM     14  C   UNL     1      -0.128  10.840  22.231  0.00  0.00    +0.000 A 
ATOM     15  F   UNL     1      -0.675  11.644  23.154  0.00  0.00    +0.000 F 
ATOM     16  C   UNL     1       0.249  11.344  20.979  0.00  0.00    +0.000 A 
ATOM     17  N   UNL     1       0.803  10.535  20.034  0.00  0.00    +0.000 NA
BRANCH  16  18
ATOM     18  C   UNL     1       0.022  12.789  20.607  0.00  0.00    +0.000 C 
ATOM     19  C   UNL     1       0.701  13.417  19.414  0.00  0.00    +0.000 C 
ATOM     20  C   UNL     1      -0.762  13.100  19.350  0.00  0.00    +0.000 C 
ENDBRANCH  16  18
ENDBRANCH   8  11
ENDBRANCH   5   7
BRANCH   1  22
ATOM     21  C   UNL     1       5.228   6.644  15.378  0.00  0.00    +0.000 C 
ATOM     22  C   UNL     1       5.539   5.697  16.545  0.00  0.00    +0.000 C 
BRANCH  22  23
ATOM     23  S   UNL     1       6.232   4.157  15.841  0.00  0.00    +0.000 S 
BRANCH  23  24
ATOM     24  C   UNL     1       7.124   4.725  14.475  0.00  0.00    +0.000 A 
ATOM     25  N   UNL     1       8.124   5.576  14.457  0.00  0.00    +0.000 NA
ATOM     26  N   UNL     1       8.475   5.786  13.138  0.00  0.00    +0.000 NA
ATOM     27  C   UNL     1       7.666   5.066  12.394  0.00  0.00    +0.000 A 
ATOM     28  N   UNL     1       6.813   4.368  13.193  0.00  0.00    +0.000 N 
ATOM     29  C   UNL     1       5.794   3.454  12.755  0.00  0.00    +0.000 C 
ENDBRANCH  23  24
ENDBRANCH  22  23
ENDBRANCH   1  22
TORSDOF 6
ENDMDL
MODEL 4
REMARK VINA RESULT:      -7.6      2.623      3.809
REMARK  Name = 
REMARK  8 active torsions:
REMARK  status: ('A' for Active; 'I' for Inactive)
REMARK    1  A    between atoms: C_1  and  C_2
REMARK    2  A    between atoms: C_2  and  S_3
REMARK    3  A    between atoms: C_2  and  C_10
REMARK    4  A    between atoms: S_3  and  C_4
REMARK    5  A    between atoms: N_8  and  C_9
REMARK    6  A    between atoms: C_14  and  N_15
REMARK    7  A    between atoms: C_16  and  C_18
REMARK    8  A    between atoms: C_23  and  C_24
REMARK                            x       y       z     vdW  Elec       q    Type
REMARK                         _______ _______ _______ _____ _____    ______ ____
ROOT
ATOM      1  C   UNL     1       0.244  10.299  19.953  0.00  0.00    +0.000 A 
ATOM      2  C   UNL     1      -0.114   9.968  21.267  0.00  0.00    +0.000 A 
ATOM      3  C   UNL     1       0.432   8.854  21.894  0.00  0.00    +0.000 A 
ATOM      4  C   UNL     1       1.322   8.034  21.205  0.00  0.00    +0.000 A 
ATOM      5  C   UNL     1       1.665   8.305  19.884  0.00  0.00    +0.000 A 
ATOM      6  C   UNL     1       1.148   9.456  19.269  0.00  0.00    +0.000 A 
ENDROOT
BRANCH   5   7
ATOM      7  N   UNL     1       2.517   7.465  19.133  0.00  0.00    +0.000 N 
ATOM      8  C   UNL     1       2.543   6.081  19.178  0.00  0.00    +0.000 C 
ATOM      9  O   UNL     1       1.831   5.345  19.859  0.00  0.00    +0.000 OA
ATOM     10  H   UNL     1       3.120   7.884  18.430  0.00  0.00    +0.000 HD
BRANCH   8  11
ATOM     11  C   UNL     1       3.535   5.451  18.257  0.00  0.00    +0.000 A 
ATOM     12  C   UNL     1       3.216   4.256  17.620  0.00  0.00    +0.000 A 
ATOM     13  C   UNL     1       4.156   3.698  16.766  0.00  0.00    +0.000 A 
ATOM     14  C   UNL     1       5.371   4.350  16.590  0.00  0.00    +0.000 A 
ATOM     15  F   UNL     1       6.283   3.810  15.770  0.00  0.00    +0.000 F 
ATOM     16  C   UNL     1       5.637   5.550  17.262  0.00  0.00    +0.000 A 
ATOM     17  N   UNL     1       4.717   6.107  18.098  0.00  0.00    +0.000 NA
BRANCH  16  18
ATOM     18  C   UNL     1       6.962   6.257  17.123  0.00  0.00    +0.000 C 
ATOM     19  C   UNL     1       7.156   7.681  17.587  0.00  0.00    +0.000 C 
ATOM     20  C   UNL     1       7.758   6.558  18.376  0.00  0.00    +0.000 C 
ENDBRANCH  16  18
ENDBRANCH   8  11
ENDBRANCH   5   7
BRANCH   1  22
ATOM     21  C   UNL     1      -1.327  11.316  18.217  0.00  0.00    +0.000 C 
ATOM     22  C   UNL     1      -0.320  11.575  19.345  0.00  0.00    +0.000 C 
BRANCH  22  23
ATOM     23  S   UNL     1       1.015  12.628  18.669  0.00  0.00    +0.000 S 
BRANCH  23  24
ATOM     24  C   UNL     1       1.470  13.591  20.029  0.00  0.00    +0.000 A 
ATOM     25  N   UNL     1       1.343  13.304  21.304  0.00  0.00    +0.000 NA
ATOM     26  N   UNL     1       1.775  14.398  22.027  0.00  0.00    +0.000 NA
ATOM     27  C   UNL     1       2.138  15.323  21.167  0.00  0.00    +0.000 A 
ATOM     28  N   UNL     1       1.981  14.851  19.900  0.00  0.00    +0.000 N 
ATOM     29  C   UNL     1       2.288  15.559  18.686  0.00  0.00    +0.000 C 
ENDBRANCH  23  24
ENDBRANCH  22  23
ENDBRANCH   1  22
TORSDOF 6
ENDMDL
MODEL 5
REMARK VINA RESULT:      -7.6      1.909      2.590
REMARK  Name = 
REMARK  8 active torsions:
REMARK  status: ('A' for Active; 'I' for Inactive)
REMARK    1  A    between atoms: C_1  and  C_2
REMARK    2  A    between atoms: C_2  and  S_3
REMARK    3  A    between atoms: C_2  and  C_10
REMARK    4  A    between atoms: S_3  and  C_4
REMARK    5  A    between atoms: N_8  and  C_9
REMARK    6  A    between atoms: C_14  and  N_15
REMARK    7  A    between atoms: C_16  and  C_18
REMARK    8  A    between atoms: C_23  and  C_24
REMARK                            x       y       z     vdW  Elec       q    Type
REMARK                         _______ _______ _______ _____ _____    ______ ____
ROOT
ATOM      1  C   UNL     1      -1.119  10.818  18.225  0.00  0.00    +0.000 A 
ATOM      2  C   UNL     1      -0.480  11.953  18.742  0.00  0.00    +0.000 A 
ATOM      3  C   UNL     1       0.901  11.982  18.898  0.00  0.00    +0.000 A 
ATOM      4  C   UNL     1       1.663  10.864  18.569  0.00  0.00    +0.000 A 
ATOM      5  C   UNL     1       1.059   9.703  18.096  0.00  0.00    +0.000 A 
ATOM      6  C   UNL     1      -0.332   9.693  17.895  0.00  0.00    +0.000 A 
ENDROOT
BRANCH   5   7
ATOM      7  N   UNL     1       1.790   8.530  17.807  0.00  0.00    +0.000 N 
ATOM      8  C   UNL     1       2.285   7.629  18.735  0.00  0.00    +0.000 C 
ATOM      9  O   UNL     1       2.169   7.682  19.958  0.00  0.00    +0.000 OA
ATOM     10  H   UNL     1       1.909   8.256  16.835  0.00  0.00    +0.000 HD
BRANCH   8  11
ATOM     11  C   UNL     1       3.005   6.463  18.142  0.00  0.00    +0.000 A 
ATOM     12  C   UNL     1       2.344   5.247  18.010  0.00  0.00    +0.000 A 
ATOM     13  C   UNL     1       3.037   4.183  17.450  0.00  0.00    +0.000 A 
ATOM     14  C   UNL     1       4.355   4.377  17.054  0.00  0.00    +0.000 A 
ATOM     15  F   UNL     1       5.029   3.349  16.519  0.00  0.00    +0.000 F 
ATOM     16  C   UNL     1       4.969   5.626  17.217  0.00  0.00    +0.000 A 
ATOM     17  N   UNL     1       4.294   6.676  17.761  0.00  0.00    +0.000 NA
BRANCH  16  18
ATOM     18  C   UNL     1       6.412   5.853  16.837  0.00  0.00    +0.000 C 
ATOM     19  C   UNL     1       7.276   6.855  17.563  0.00  0.00    +0.000 C 
ATOM     20  C   UNL     1       7.494   5.389  17.788  0.00  0.00    +0.000 C 
ENDBRANCH  16  18
ENDBRANCH   8  11
ENDBRANCH   5   7
BRANCH   1  22
ATOM     21  C   UNL     1      -3.007  11.232  16.557  0.00  0.00    +0.000 C 
ATOM     22  C   UNL     1      -2.623  10.871  17.997  0.00  0.00    +0.000 C 
BRANCH  22  23
ATOM     23  S   UNL     1      -3.413  12.093  19.107  0.00  0.00    +0.000 S 
BRANCH  23  24
ATOM     24  C   UNL     1      -5.098  11.780  18.886  0.00  0.00    +0.000 A 
ATOM     25  N   UNL     1      -5.668  10.672  18.470  0.00  0.00    +0.000 NA
ATOM     26  N   UNL     1      -7.026  10.906  18.379  0.00  0.00    +0.000 NA
ATOM     27  C   UNL     1      -7.237  12.154  18.729  0.00  0.00    +0.000 A 
ATOM     28  N   UNL     1      -6.055  12.735  19.074  0.00  0.00    +0.000 N 
ATOM     29  C   UNL     1      -5.874  14.087  19.531  0.00  0.00    +0.000 C 
ENDBRANCH  23  24
ENDBRANCH  22  23
ENDBRANCH   1  22
TORSDOF 6
ENDMDL
MODEL 6
REMARK VINA RESULT:      -7.6      1.546      2.334
REMARK  Name = 
REMARK  8 active torsions:
REMARK  status: ('A' for Active; 'I' for Inactive)
REMARK    1  A    between atoms: C_1  and  C_2
REMARK    2  A    between atoms: C_2  and  S_3
REMARK    3  A    between atoms: C_2  and  C_10
REMARK    4  A    between atoms: S_3  and  C_4
REMARK    5  A    between atoms: N_8  and  C_9
REMARK    6  A    between atoms: C_14  and  N_15
REMARK    7  A    between atoms: C_16  and  C_18
REMARK    8  A    between atoms: C_23  and  C_24
REMARK                            x       y       z     vdW  Elec       q    Type
REMARK                         _______ _______ _______ _____ _____    ______ ____
ROOT
ATOM      1  C   UNL     1       0.228  10.404  19.887  0.00  0.00    +0.000 A 
ATOM      2  C   UNL     1      -0.158  10.135  21.207  0.00  0.00    +0.000 A 
ATOM      3  C   UNL     1       0.319   9.012  21.874  0.00  0.00    +0.000 A 
ATOM      4  C   UNL     1       1.167   8.122  21.219  0.00  0.00    +0.000 A 
ATOM      5  C   UNL     1       1.535   8.332  19.893  0.00  0.00    +0.000 A 
ATOM      6  C   UNL     1       1.088   9.491  19.238  0.00  0.00    +0.000 A 
ENDROOT
BRANCH   5   7
ATOM      7  N   UNL     1       2.344   7.422  19.177  0.00  0.00    +0.000 N 
ATOM      8  C   UNL     1       2.877   7.624  17.914  0.00  0.00    +0.000 C 
ATOM      9  O   UNL     1       2.754   8.622  17.207  0.00  0.00    +0.000 OA
ATOM     10  H   UNL     1       2.643   6.567  19.638  0.00  0.00    +0.000 HD
BRANCH   8  11
ATOM     11  C   UNL     1       3.713   6.496  17.408  0.00  0.00    +0.000 A 
ATOM     12  C   UNL     1       4.767   6.761  16.540  0.00  0.00    +0.000 A 
ATOM     13  C   UNL     1       5.530   5.693  16.091  0.00  0.00    +0.000 A 
ATOM     14  C   UNL     1       5.207   4.412  16.522  0.00  0.00    +0.000 A 
ATOM     15  F   UNL     1       5.938   3.377  16.085  0.00  0.00    +0.000 F 
ATOM     16  C   UNL     1       4.130   4.206  17.395  0.00  0.00    +0.000 A 
ATOM     17  N   UNL     1       3.379   5.251  17.843  0.00  0.00    +0.000 NA
BRANCH  16  18
ATOM     18  C   UNL     1       3.729   2.823  17.844  0.00  0.00    +0.000 C 
ATOM     19  C   UNL     1       2.999   2.591  19.145  0.00  0.00    +0.000 C 
ATOM     20  C   UNL     1       2.259   2.459  17.848  0.00  0.00    +0.000 C 
ENDBRANCH  16  18
ENDBRANCH   8  11
ENDBRANCH   5   7
BRANCH   1  22
ATOM     21  C   UNL     1       0.503  12.935  19.705  0.00  0.00    +0.000 C 
ATOM     22  C   UNL     1      -0.259  11.689  19.235  0.00  0.00    +0.000 C 
BRANCH  22  23
ATOM     23  S   UNL     1      -2.037  11.965  19.570  0.00  0.00    +0.000 S 
BRANCH  23  24
ATOM     24  C   UNL     1      -2.778  11.566  18.061  0.00  0.00    +0.000 A 
ATOM     25  N   UNL     1      -2.194  11.228  16.935  0.00  0.00    +0.000 NA
ATOM     26  N   UNL     1      -3.178  11.071  15.979  0.00  0.00    +0.000 NA
ATOM     27  C   UNL     1      -4.331  11.333  16.552  0.00  0.00    +0.000 A 
ATOM     28  N   UNL     1      -4.129  11.630  17.865  0.00  0.00    +0.000 N 
ATOM     29  C   UNL     1      -5.145  11.953  18.829  0.00  0.00    +0.000 C 
ENDBRANCH  23  24
ENDBRANCH  22  23
ENDBRANCH   1  22
TORSDOF 6
ENDMDL
MODEL 7
REMARK VINA RESULT:      -7.6      3.057      4.547
REMARK  Name = 
REMARK  8 active torsions:
REMARK  status: ('A' for Active; 'I' for Inactive)
REMARK    1  A    between atoms: C_1  and  C_2
REMARK    2  A    between atoms: C_2  and  S_3
REMARK    3  A    between atoms: C_2  and  C_10
REMARK    4  A    between atoms: S_3  and  C_4
REMARK    5  A    between atoms: N_8  and  C_9
REMARK    6  A    between atoms: C_14  and  N_15
REMARK    7  A    between atoms: C_16  and  C_18
REMARK    8  A    between atoms: C_23  and  C_24
REMARK                            x       y       z     vdW  Elec       q    Type
REMARK                         _______ _______ _______ _____ _____    ______ ____
ROOT
ATOM      1  C   UNL     1      -0.882  11.690  19.368  0.00  0.00    +0.000 A 
ATOM      2  C   UNL     1      -0.111  12.855  19.262  0.00  0.00    +0.000 A 
ATOM      3  C   UNL     1       1.224  12.793  18.880  0.00  0.00    +0.000 A 
ATOM      4  C   UNL     1       1.819  11.559  18.628  0.00  0.00    +0.000 A 
ATOM      5  C   UNL     1       1.097  10.377  18.768  0.00  0.00    +0.000 A 
ATOM      6  C   UNL     1      -0.263  10.447  19.109  0.00  0.00    +0.000 A 
ENDROOT
BRANCH   5   7
ATOM      7  N   UNL     1       1.680   9.105  18.580  0.00  0.00    +0.000 N 
ATOM      8  C   UNL     1       1.900   8.155  19.564  0.00  0.00    +0.000 C 
ATOM      9  O   UNL     1       1.620   8.243  20.758  0.00  0.00    +0.000 OA
ATOM     10  H   UNL     1       1.895   8.801  17.634  0.00  0.00    +0.000 HD
BRANCH   8  11
ATOM     11  C   UNL     1       2.517   6.887  19.073  0.00  0.00    +0.000 A 
ATOM     12  C   UNL     1       3.268   6.900  17.902  0.00  0.00    +0.000 A 
ATOM     13  C   UNL     1       3.832   5.707  17.474  0.00  0.00    +0.000 A 
ATOM     14  C   UNL     1       3.620   4.558  18.226  0.00  0.00    +0.000 A 
ATOM     15  F   UNL     1       4.159   3.403  17.811  0.00  0.00    +0.000 F 
ATOM     16  C   UNL     1       2.850   4.606  19.396  0.00  0.00    +0.000 A 
ATOM     17  N   UNL     1       2.296   5.775  19.825  0.00  0.00    +0.000 NA
BRANCH  16  18
ATOM     18  C   UNL     1       2.566   3.367  20.208  0.00  0.00    +0.000 C 
ATOM     19  C   UNL     1       1.299   3.219  21.015  0.00  0.00    +0.000 C 
ATOM     20  C   UNL     1       1.465   2.435  19.749  0.00  0.00    +0.000 C 
ENDBRANCH  16  18
ENDBRANCH   8  11
ENDBRANCH   5   7
BRANCH   1  22
ATOM     21  C   UNL     1      -3.279  11.689  18.489  0.00  0.00    +0.000 C 
ATOM     22  C   UNL     1      -2.359  11.824  19.709  0.00  0.00    +0.000 C 
BRANCH  22  23
ATOM     23  S   UNL     1      -2.709  13.439  20.494  0.00  0.00    +0.000 S 
BRANCH  23  24
ATOM     24  C   UNL     1      -3.396  12.987  22.014  0.00  0.00    +0.000 A 
ATOM     25  N   UNL     1      -4.531  12.365  22.237  0.00  0.00    +0.000 NA
ATOM     26  N   UNL     1      -4.703  12.281  23.604  0.00  0.00    +0.000 NA
ATOM     27  C   UNL     1      -3.674  12.870  24.170  0.00  0.00    +0.000 A 
ATOM     28  N   UNL     1      -2.818  13.311  23.208  0.00  0.00    +0.000 N 
ATOM     29  C   UNL     1      -1.568  13.987  23.429  0.00  0.00    +0.000 C 
ENDBRANCH  23  24
ENDBRANCH  22  23
ENDBRANCH   1  22
TORSDOF 6
ENDMDL
MODEL 8
REMARK VINA RESULT:      -7.6      3.750      9.162
REMARK  Name = 
REMARK  8 active torsions:
REMARK  status: ('A' for Active; 'I' for Inactive)
REMARK    1  A    between atoms: C_1  and  C_2
REMARK    2  A    between atoms: C_2  and  S_3
REMARK    3  A    between atoms: C_2  and  C_10
REMARK    4  A    between atoms: S_3  and  C_4
REMARK    5  A    between atoms: N_8  and  C_9
REMARK    6  A    between atoms: C_14  and  N_15
REMARK    7  A    between atoms: C_16  and  C_18
REMARK    8  A    between atoms: C_23  and  C_24
REMARK                            x       y       z     vdW  Elec       q    Type
REMARK                         _______ _______ _______ _____ _____    ______ ____
ROOT
ATOM      1  C   UNL     1       4.389   5.130  17.707  0.00  0.00    +0.000 A 
ATOM      2  C   UNL     1       4.487   4.173  18.727  0.00  0.00    +0.000 A 
ATOM      3  C   UNL     1       3.704   4.272  19.871  0.00  0.00    +0.000 A 
ATOM      4  C   UNL     1       2.833   5.347  20.029  0.00  0.00    +0.000 A 
ATOM      5  C   UNL     1       2.743   6.341  19.058  0.00  0.00    +0.000 A 
ATOM      6  C   UNL     1       3.501   6.214  17.883  0.00  0.00    +0.000 A 
ENDROOT
BRANCH   5   7
ATOM      7  N   UNL     1       1.917   7.476  19.208  0.00  0.00    +0.000 N 
ATOM      8  C   UNL     1       1.866   8.566  18.355  0.00  0.00    +0.000 C 
ATOM      9  O   UNL     1       2.512   8.733  17.323  0.00  0.00    +0.000 OA
ATOM     10  H   UNL     1       1.230   7.485  19.959  0.00  0.00    +0.000 HD
BRANCH   8  11
ATOM     11  C   UNL     1       0.881   9.616  18.751  0.00  0.00    +0.000 A 
ATOM     12  C   UNL     1       1.063  10.310  19.943  0.00  0.00    +0.000 A 
ATOM     13  C   UNL     1       0.135  11.284  20.282  0.00  0.00    +0.000 A 
ATOM     14  C   UNL     1      -0.933  11.518  19.423  0.00  0.00    +0.000 A 
ATOM     15  F   UNL     1      -1.835  12.453  19.751  0.00  0.00    +0.000 F 
ATOM     16  C   UNL     1      -1.066  10.783  18.237  0.00  0.00    +0.000 A 
ATOM     17  N   UNL     1      -0.155   9.829  17.896  0.00  0.00    +0.000 NA
BRANCH  16  18
ATOM     18  C   UNL     1      -2.237  10.986  17.309  0.00  0.00    +0.000 C 
ATOM     19  C   UNL     1      -2.605   9.964  16.260  0.00  0.00    +0.000 C 
ATOM     20  C   UNL     1      -3.460  10.110  17.482  0.00  0.00    +0.000 C 
ENDBRANCH  16  18
ENDBRANCH   8  11
ENDBRANCH   5   7
BRANCH   1  22
ATOM     21  C   UNL     1       4.771   3.706  15.623  0.00  0.00    +0.000 C 
ATOM     22  C   UNL     1       5.208   4.929  16.441  0.00  0.00    +0.000 C 
BRANCH  22  23
ATOM     23  S   UNL     1       6.985   4.731  16.831  0.00  0.00    +0.000 S 
BRANCH  23  24
ATOM     24  C   UNL     1       7.440   6.310  17.363  0.00  0.00    +0.000 A 
ATOM     25  N   UNL     1       7.458   7.425  16.670  0.00  0.00    +0.000 NA
ATOM     26  N   UNL     1       7.957   8.421  17.485  0.00  0.00    +0.000 NA
ATOM     27  C   UNL     1       8.242   7.876  18.646  0.00  0.00    +0.000 A 
ATOM     28  N   UNL     1       7.914   6.555  18.620  0.00  0.00    +0.000 N 
ATOM     29  C   UNL     1       8.057   5.623  19.706  0.00  0.00    +0.000 C 
ENDBRANCH  23  24
ENDBRANCH  22  23
ENDBRANCH   1  22
TORSDOF 6
ENDMDL
MODEL 9
REMARK VINA RESULT:      -7.6      4.065      9.197
REMARK  Name = 
REMARK  8 active torsions:
REMARK  status: ('A' for Active; 'I' for Inactive)
REMARK    1  A    between atoms: C_1  and  C_2
REMARK    2  A    between atoms: C_2  and  S_3
REMARK    3  A    between atoms: C_2  and  C_10
REMARK    4  A    between atoms: S_3  and  C_4
REMARK    5  A    between atoms: N_8  and  C_9
REMARK    6  A    between atoms: C_14  and  N_15
REMARK    7  A    between atoms: C_16  and  C_18
REMARK    8  A    between atoms: C_23  and  C_24
REMARK                            x       y       z     vdW  Elec       q    Type
REMARK                         _______ _______ _______ _____ _____    ______ ____
ROOT
ATOM      1  C   UNL     1       4.864   4.517  17.345  0.00  0.00    +0.000 A 
ATOM      2  C   UNL     1       4.073   3.437  16.928  0.00  0.00    +0.000 A 
ATOM      3  C   UNL     1       2.712   3.403  17.208  0.00  0.00    +0.000 A 
ATOM      4  C   UNL     1       2.125   4.433  17.938  0.00  0.00    +0.000 A 
ATOM      5  C   UNL     1       2.887   5.499  18.408  0.00  0.00    +0.000 A 
ATOM      6  C   UNL     1       4.253   5.553  18.084  0.00  0.00    +0.000 A 
ENDROOT
BRANCH   5   7
ATOM      7  N   UNL     1       2.341   6.531  19.201  0.00  0.00    +0.000 N 
ATOM      8  C   UNL     1       2.069   7.823  18.783  0.00  0.00    +0.000 C 
ATOM      9  O   UNL     1       2.240   8.293  17.660  0.00  0.00    +0.000 OA
ATOM     10  H   UNL     1       2.037   6.311  20.146  0.00  0.00    +0.000 HD
BRANCH   8  11
ATOM     11  C   UNL     1       1.473   8.700  19.834  0.00  0.00    +0.000 A 
ATOM     12  C   UNL     1       1.431   8.258  21.152  0.00  0.00    +0.000 A 
ATOM     13  C   UNL     1       0.876   9.098  22.107  0.00  0.00    +0.000 A 
ATOM     14  C   UNL     1       0.383  10.334  21.706  0.00  0.00    +0.000 A 
ATOM     15  F   UNL     1      -0.160  11.144  22.625  0.00  0.00    +0.000 F 
ATOM     16  C   UNL     1       0.449  10.723  20.361  0.00  0.00    +0.000 A 
ATOM     17  N   UNL     1       0.997   9.906  19.419  0.00  0.00    +0.000 NA
BRANCH  16  18
ATOM     18  C   UNL     1      -0.117  12.040  19.890  0.00  0.00    +0.000 C 
ATOM     19  C   UNL     1      -0.676  12.212  18.499  0.00  0.00    +0.000 C 
ATOM     20  C   UNL     1      -1.610  12.150  19.669  0.00  0.00    +0.000 C 
ENDBRANCH  16  18
ENDBRANCH   8  11
ENDBRANCH   5   7
BRANCH   1  22
ATOM     21  C   UNL     1       7.274   4.897  18.097  0.00  0.00    +0.000 C 
ATOM     22  C   UNL     1       6.330   4.542  16.940  0.00  0.00    +0.000 C 
BRANCH  22  23
ATOM     23  S   UNL     1       6.621   5.750  15.596  0.00  0.00    +0.000 S 
BRANCH  23  24
ATOM     24  C   UNL     1       6.464   4.784  14.172  0.00  0.00    +0.000 A 
ATOM     25  N   UNL     1       5.588   3.837  13.927  0.00  0.00    +0.000 NA
ATOM     26  N   UNL     1       5.888   3.294  12.694  0.00  0.00    +0.000 NA
ATOM     27  C   UNL     1       6.948   3.919  12.233  0.00  0.00    +0.000 A 
ATOM     28  N   UNL     1       7.332   4.877  13.121  0.00  0.00    +0.000 N 
ATOM     29  C   UNL     1       8.437   5.784  12.966  0.00  0.00    +0.000 C 
ENDBRANCH  23  24
ENDBRANCH  22  23
ENDBRANCH   1  22
TORSDOF 6
ENDMDL
