MODEL 1
REMARK VINA RESULT:      -8.2      0.000      0.000
REMARK  Name = 
REMARK  9 active torsions:
REMARK  status: ('A' for Active; 'I' for Inactive)
REMARK    1  A    between atoms: C_1  and  C_2
REMARK    2  A    between atoms: C_2  and  S_3
REMARK    3  A    between atoms: C_2  and  C_10
REMARK    4  A    between atoms: S_3  and  C_4
REMARK    5  A    between atoms: N_8  and  C_9
REMARK    6  A    between atoms: C_14  and  N_15
REMARK    7  A    between atoms: C_17  and  C_18
REMARK    8  A    between atoms: C_22  and  C_23
REMARK    9  A    between atoms: C_23  and  O_24
REMARK                            x       y       z     vdW  Elec       q    Type
REMARK                         _______ _______ _______ _____ _____    ______ ____
ROOT
ATOM      1  C   UNL     1       2.300   7.644  19.143  0.00  0.00    +0.000 A 
ATOM      2  C   UNL     1       2.224   8.280  17.892  0.00  0.00    +0.000 A 
ATOM      3  C   UNL     1       1.564   9.497  17.742  0.00  0.00    +0.000 A 
ATOM      4  C   UNL     1       0.953  10.099  18.838  0.00  0.00    +0.000 A 
ATOM      5  C   UNL     1       1.000   9.479  20.094  0.00  0.00    +0.000 A 
ATOM      6  C   UNL     1       1.667   8.253  20.243  0.00  0.00    +0.000 A 
ENDROOT
BRANCH   5   7
ATOM      7  N   UNL     1       0.382  10.090  21.214  0.00  0.00    +0.000 N 
ATOM      8  C   UNL     1      -0.416  11.211  21.241  0.00  0.00    +0.000 A 
ATOM      9  C   UNL     1      -0.735  11.386  22.565  0.00  0.00    +0.000 A 
ATOM     10  N   UNL     1      -0.163  10.387  23.301  0.00  0.00    +0.000 NA
ATOM     11  N   UNL     1       0.518   9.601  22.477  0.00  0.00    +0.000 NA
BRANCH   9  12
ATOM     12  C   UNL     1      -1.582  12.429  23.109  0.00  0.00    +0.000 A 
ATOM     13  C   UNL     1      -1.078  13.707  23.392  0.00  0.00    +0.000 A 
ATOM     14  C   UNL     1      -1.919  14.705  23.886  0.00  0.00    +0.000 A 
ATOM     15  C   UNL     1      -3.269  14.435  24.100  0.00  0.00    +0.000 A 
ATOM     16  C   UNL     1      -3.794  13.164  23.828  0.00  0.00    +0.000 A 
ATOM     17  C   UNL     1      -2.939  12.167  23.342  0.00  0.00    +0.000 A 
BRANCH  16  18
ATOM     18  C   UNL     1      -5.258  12.888  24.036  0.00  0.00    +0.000 C 
BRANCH  18  19
ATOM     19  O   UNL     1      -5.433  11.662  24.734  0.00  0.00    +0.000 OA
ATOM     20  H   UNL     1      -5.425  11.879  25.683  0.00  0.00    +0.000 HD
ENDBRANCH  18  19
ENDBRANCH  16  18
ENDBRANCH   9  12
ENDBRANCH   5   7
BRANCH   1  22
ATOM     21  C   UNL     1       4.194   6.182  18.339  0.00  0.00    +0.000 C 
ATOM     22  C   UNL     1       3.014   6.302  19.313  0.00  0.00    +0.000 C 
BRANCH  22  23
ATOM     23  S   UNL     1       1.765   4.971  19.110  0.00  0.00    +0.000 S 
BRANCH  23  24
ATOM     24  C   UNL     1       2.227   3.770  20.256  0.00  0.00    +0.000 A 
ATOM     25  N   UNL     1       1.808   3.623  21.491  0.00  0.00    +0.000 NA
ATOM     26  N   UNL     1       2.532   2.602  22.064  0.00  0.00    +0.000 NA
ATOM     27  C   UNL     1       3.356   2.139  21.153  0.00  0.00    +0.000 A 
ATOM     28  N   UNL     1       3.176   2.823  19.987  0.00  0.00    +0.000 N 
ATOM     29  C   UNL     1       3.851   2.564  18.744  0.00  0.00    +0.000 C 
ENDBRANCH  23  24
ENDBRANCH  22  23
ENDBRANCH   1  22
TORSDOF 7
ENDMDL
MODEL 2
REMARK VINA RESULT:      -8.1      4.184     10.076
REMARK  Name = 
REMARK  9 active torsions:
REMARK  status: ('A' for Active; 'I' for Inactive)
REMARK    1  A    between atoms: C_1  and  C_2
REMARK    2  A    between atoms: C_2  and  S_3
REMARK    3  A    between atoms: C_2  and  C_10
REMARK    4  A    between atoms: S_3  and  C_4
REMARK    5  A    between atoms: N_8  and  C_9
REMARK    6  A    between atoms: C_14  and  N_15
REMARK    7  A    between atoms: C_17  and  C_18
REMARK    8  A    between atoms: C_22  and  C_23
REMARK    9  A    between atoms: C_23  and  O_24
REMARK                            x       y       z     vdW  Elec       q    Type
REMARK                         _______ _______ _______ _____ _____    ______ ____
ROOT
ATOM      1  C   UNL     1      -0.705  10.908  21.152  0.00  0.00    +0.000 A 
ATOM      2  C   UNL     1      -0.530  10.451  22.470  0.00  0.00    +0.000 A 
ATOM      3  C   UNL     1       0.357   9.417  22.761  0.00  0.00    +0.000 A 
ATOM      4  C   UNL     1       1.079   8.809  21.739  0.00  0.00    +0.000 A 
ATOM      5  C   UNL     1       0.913   9.235  20.414  0.00  0.00    +0.000 A 
ATOM      6  C   UNL     1       0.019  10.278  20.123  0.00  0.00    +0.000 A 
ENDROOT
BRANCH   5   7
ATOM      7  N   UNL     1       1.649   8.620  19.370  0.00  0.00    +0.000 N 
ATOM      8  C   UNL     1       2.205   7.362  19.346  0.00  0.00    +0.000 A 
ATOM      9  C   UNL     1       2.819   7.271  18.121  0.00  0.00    +0.000 A 
ATOM     10  N   UNL     1       2.616   8.431  17.428  0.00  0.00    +0.000 NA
ATOM     11  N   UNL     1       1.905   9.251  18.192  0.00  0.00    +0.000 NA
BRANCH   9  12
ATOM     12  C   UNL     1       3.532   6.119  17.606  0.00  0.00    +0.000 A 
ATOM     13  C   UNL     1       4.648   6.263  16.769  0.00  0.00    +0.000 A 
ATOM     14  C   UNL     1       5.339   5.141  16.310  0.00  0.00    +0.000 A 
ATOM     15  C   UNL     1       4.920   3.866  16.685  0.00  0.00    +0.000 A 
ATOM     16  C   UNL     1       3.805   3.696  17.517  0.00  0.00    +0.000 A 
ATOM     17  C   UNL     1       3.114   4.830  17.964  0.00  0.00    +0.000 A 
BRANCH  16  18
ATOM     18  C   UNL     1       3.375   2.318  17.939  0.00  0.00    +0.000 C 
BRANCH  18  19
ATOM     19  O   UNL     1       2.049   2.060  17.500  0.00  0.00    +0.000 OA
ATOM     20  H   UNL     1       1.632   2.926  17.352  0.00  0.00    +0.000 HD
ENDBRANCH  18  19
ENDBRANCH  16  18
ENDBRANCH   9  12
ENDBRANCH   5   7
BRANCH   1  22
ATOM     21  C   UNL     1      -1.301  12.732  19.513  0.00  0.00    +0.000 C 
ATOM     22  C   UNL     1      -1.686  12.035  20.824  0.00  0.00    +0.000 C 
BRANCH  22  23
ATOM     23  S   UNL     1      -1.739  13.172  22.266  0.00  0.00    +0.000 S 
BRANCH  23  24
ATOM     24  C   UNL     1      -3.289  12.901  22.969  0.00  0.00    +0.000 A 
ATOM     25  N   UNL     1      -3.605  12.078  23.942  0.00  0.00    +0.000 NA
ATOM     26  N   UNL     1      -4.973  12.111  24.095  0.00  0.00    +0.000 NA
ATOM     27  C   UNL     1      -5.449  12.973  23.226  0.00  0.00    +0.000 A 
ATOM     28  N   UNL     1      -4.421  13.520  22.517  0.00  0.00    +0.000 N 
ATOM     29  C   UNL     1      -4.537  14.547  21.518  0.00  0.00    +0.000 C 
ENDBRANCH  23  24
ENDBRANCH  22  23
ENDBRANCH   1  22
TORSDOF 7
ENDMDL
MODEL 3
REMARK VINA RESULT:      -8.0      1.017      1.202
REMARK  Name = 
REMARK  9 active torsions:
REMARK  status: ('A' for Active; 'I' for Inactive)
REMARK    1  A    between atoms: C_1  and  C_2
REMARK    2  A    between atoms: C_2  and  S_3
REMARK    3  A    between atoms: C_2  and  C_10
REMARK    4  A    between atoms: S_3  and  C_4
REMARK    5  A    between atoms: N_8  and  C_9
REMARK    6  A    between atoms: C_14  and  N_15
REMARK    7  A    between atoms: C_17  and  C_18
REMARK    8  A    between atoms: C_22  and  C_23
REMARK    9  A    between atoms: C_23  and  O_24
REMARK                            x       y       z     vdW  Elec       q    Type
REMARK                         _______ _______ _______ _____ _____    ______ ____
ROOT
ATOM      1  C   UNL     1       2.486   7.421  19.154  0.00  0.00    +0.000 A 
ATOM      2  C   UNL     1       2.408   8.026  17.887  0.00  0.00    +0.000 A 
ATOM      3  C   UNL     1       1.670   9.191  17.690  0.00  0.00    +0.000 A 
ATOM      4  C   UNL     1       0.983   9.769  18.753  0.00  0.00    +0.000 A 
ATOM      5  C   UNL     1       1.031   9.180  20.023  0.00  0.00    +0.000 A 
ATOM      6  C   UNL     1       1.777   8.006  20.220  0.00  0.00    +0.000 A 
ENDROOT
BRANCH   5   7
ATOM      7  N   UNL     1       0.336   9.767  21.110  0.00  0.00    +0.000 N 
ATOM      8  C   UNL     1      -0.251  11.010  21.173  0.00  0.00    +0.000 A 
ATOM      9  C   UNL     1      -0.767  11.093  22.443  0.00  0.00    +0.000 A 
ATOM     10  N   UNL     1      -0.516   9.926  23.107  0.00  0.00    +0.000 NA
ATOM     11  N   UNL     1       0.158   9.122  22.295  0.00  0.00    +0.000 NA
BRANCH   9  12
ATOM     12  C   UNL     1      -1.508  12.211  22.993  0.00  0.00    +0.000 A 
ATOM     13  C   UNL     1      -0.926  13.481  23.123  0.00  0.00    +0.000 A 
ATOM     14  C   UNL     1      -1.667  14.550  23.626  0.00  0.00    +0.000 A 
ATOM     15  C   UNL     1      -2.996  14.361  24.002  0.00  0.00    +0.000 A 
ATOM     16  C   UNL     1      -3.598  13.101  23.884  0.00  0.00    +0.000 A 
ATOM     17  C   UNL     1      -2.840  12.031  23.387  0.00  0.00    +0.000 A 
BRANCH  16  18
ATOM     18  C   UNL     1      -5.040  12.909  24.266  0.00  0.00    +0.000 C 
BRANCH  18  19
ATOM     19  O   UNL     1      -5.141  12.048  25.391  0.00  0.00    +0.000 OA
ATOM     20  H   UNL     1      -5.938  12.320  25.879  0.00  0.00    +0.000 HD
ENDBRANCH  18  19
ENDBRANCH  16  18
ENDBRANCH   9  12
ENDBRANCH   5   7
BRANCH   1  22
ATOM     21  C   UNL     1       3.581   5.439  18.041  0.00  0.00    +0.000 C 
ATOM     22  C   UNL     1       3.286   6.136  19.375  0.00  0.00    +0.000 C 
BRANCH  22  23
ATOM     23  S   UNL     1       2.347   5.085  20.554  0.00  0.00    +0.000 S 
BRANCH  23  24
ATOM     24  C   UNL     1       1.896   3.702  19.630  0.00  0.00    +0.000 A 
ATOM     25  N   UNL     1       0.795   3.509  18.944  0.00  0.00    +0.000 NA
ATOM     26  N   UNL     1       0.817   2.218  18.463  0.00  0.00    +0.000 NA
ATOM     27  C   UNL     1       1.946   1.670  18.852  0.00  0.00    +0.000 A 
ATOM     28  N   UNL     1       2.672   2.578  19.562  0.00  0.00    +0.000 N 
ATOM     29  C   UNL     1       3.990   2.370  20.100  0.00  0.00    +0.000 C 
ENDBRANCH  23  24
ENDBRANCH  22  23
ENDBRANCH   1  22
TORSDOF 7
ENDMDL
MODEL 4
REMARK VINA RESULT:      -8.0      1.600      2.280
REMARK  Name = 
REMARK  9 active torsions:
REMARK  status: ('A' for Active; 'I' for Inactive)
REMARK    1  A    between atoms: C_1  and  C_2
REMARK    2  A    between atoms: C_2  and  S_3
REMARK    3  A    between atoms: C_2  and  C_10
REMARK    4  A    between atoms: S_3  and  C_4
REMARK    5  A    between atoms: N_8  and  C_9
REMARK    6  A    between atoms: C_14  and  N_15
REMARK    7  A    between atoms: C_17  and  C_18
REMARK    8  A    between atoms: C_22  and  C_23
REMARK    9  A    between atoms: C_23  and  O_24
REMARK                            x       y       z     vdW  Elec       q    Type
REMARK                         _______ _______ _______ _____ _____    ______ ____
ROOT
ATOM      1  C   UNL     1       2.326   7.524  19.335  0.00  0.00    +0.000 A 
ATOM      2  C   UNL     1       2.187   8.092  18.056  0.00  0.00    +0.000 A 
ATOM      3  C   UNL     1       1.460   9.266  17.866  0.00  0.00    +0.000 A 
ATOM      4  C   UNL     1       0.847   9.889  18.948  0.00  0.00    +0.000 A 
ATOM      5  C   UNL     1       0.956   9.336  20.230  0.00  0.00    +0.000 A 
ATOM      6  C   UNL     1       1.690   8.153  20.421  0.00  0.00    +0.000 A 
ENDROOT
BRANCH   5   7
ATOM      7  N   UNL     1       0.335   9.970  21.336  0.00  0.00    +0.000 N 
ATOM      8  C   UNL     1      -0.518  11.049  21.330  0.00  0.00    +0.000 A 
ATOM      9  C   UNL     1      -0.813  11.273  22.653  0.00  0.00    +0.000 A 
ATOM     10  N   UNL     1      -0.173  10.341  23.421  0.00  0.00    +0.000 NA
ATOM     11  N   UNL     1       0.527   9.551  22.617  0.00  0.00    +0.000 NA
BRANCH   9  12
ATOM     12  C   UNL     1      -1.699  12.297  23.169  0.00  0.00    +0.000 A 
ATOM     13  C   UNL     1      -3.033  12.013  23.496  0.00  0.00    +0.000 A 
ATOM     14  C   UNL     1      -3.860  13.007  24.021  0.00  0.00    +0.000 A 
ATOM     15  C   UNL     1      -3.360  14.292  24.225  0.00  0.00    +0.000 A 
ATOM     16  C   UNL     1      -2.032  14.601  23.902  0.00  0.00    +0.000 A 
ATOM     17  C   UNL     1      -1.214  13.597  23.366  0.00  0.00    +0.000 A 
BRANCH  16  18
ATOM     18  C   UNL     1      -1.492  15.982  24.149  0.00  0.00    +0.000 C 
BRANCH  18  19
ATOM     19  O   UNL     1      -1.446  16.718  22.935  0.00  0.00    +0.000 OA
ATOM     20  H   UNL     1      -0.594  17.190  22.927  0.00  0.00    +0.000 HD
ENDBRANCH  18  19
ENDBRANCH  16  18
ENDBRANCH   9  12
ENDBRANCH   5   7
BRANCH   1  22
ATOM     21  C   UNL     1       3.961   5.893  18.316  0.00  0.00    +0.000 C 
ATOM     22  C   UNL     1       3.113   6.229  19.549  0.00  0.00    +0.000 C 
BRANCH  22  23
ATOM     23  S   UNL     1       1.914   4.909  19.990  0.00  0.00    +0.000 S 
BRANCH  23  24
ATOM     24  C   UNL     1       2.257   3.632  18.885  0.00  0.00    +0.000 A 
ATOM     25  N   UNL     1       1.673   3.372  17.739  0.00  0.00    +0.000 NA
ATOM     26  N   UNL     1       2.196   2.192  17.257  0.00  0.00    +0.000 NA
ATOM     27  C   UNL     1       3.102   1.781  18.113  0.00  0.00    +0.000 A 
ATOM     28  N   UNL     1       3.199   2.674  19.138  0.00  0.00    +0.000 N 
ATOM     29  C   UNL     1       4.124   2.600  20.236  0.00  0.00    +0.000 C 
ENDBRANCH  23  24
ENDBRANCH  22  23
ENDBRANCH   1  22
TORSDOF 7
ENDMDL
MODEL 5
REMARK VINA RESULT:      -7.9      5.227     11.260
REMARK  Name = 
REMARK  9 active torsions:
REMARK  status: ('A' for Active; 'I' for Inactive)
REMARK    1  A    between atoms: C_1  and  C_2
REMARK    2  A    between atoms: C_2  and  S_3
REMARK    3  A    between atoms: C_2  and  C_10
REMARK    4  A    between atoms: S_3  and  C_4
REMARK    5  A    between atoms: N_8  and  C_9
REMARK    6  A    between atoms: C_14  and  N_15
REMARK    7  A    between atoms: C_17  and  C_18
REMARK    8  A    between atoms: C_22  and  C_23
REMARK    9  A    between atoms: C_23  and  O_24
REMARK                            x       y       z     vdW  Elec       q    Type
REMARK                         _______ _______ _______ _____ _____    ______ ____
ROOT
ATOM      1  C   UNL     1       2.307   6.917  19.845  0.00  0.00    +0.000 A 
ATOM      2  C   UNL     1       1.760   5.859  20.593  0.00  0.00    +0.000 A 
ATOM      3  C   UNL     1       2.207   4.551  20.423  0.00  0.00    +0.000 A 
ATOM      4  C   UNL     1       3.201   4.270  19.490  0.00  0.00    +0.000 A 
ATOM      5  C   UNL     1       3.753   5.302  18.721  0.00  0.00    +0.000 A 
ATOM      6  C   UNL     1       3.302   6.621  18.895  0.00  0.00    +0.000 A 
ENDROOT
BRANCH   5   7
ATOM      7  N   UNL     1       4.768   5.020  17.772  0.00  0.00    +0.000 N 
ATOM      8  C   UNL     1       4.671   5.006  16.400  0.00  0.00    +0.000 A 
ATOM      9  C   UNL     1       5.925   4.658  15.960  0.00  0.00    +0.000 A 
ATOM     10  N   UNL     1       6.749   4.493  17.038  0.00  0.00    +0.000 NA
ATOM     11  N   UNL     1       6.042   4.711  18.139  0.00  0.00    +0.000 NA
BRANCH   9  12
ATOM     12  C   UNL     1       6.341   4.531  14.578  0.00  0.00    +0.000 A 
ATOM     13  C   UNL     1       7.423   5.265  14.070  0.00  0.00    +0.000 A 
ATOM     14  C   UNL     1       7.827   5.103  12.744  0.00  0.00    +0.000 A 
ATOM     15  C   UNL     1       7.155   4.206  11.916  0.00  0.00    +0.000 A 
ATOM     16  C   UNL     1       6.069   3.465  12.401  0.00  0.00    +0.000 A 
ATOM     17  C   UNL     1       5.666   3.642  13.731  0.00  0.00    +0.000 A 
BRANCH  16  18
ATOM     18  C   UNL     1       5.365   2.479  11.509  0.00  0.00    +0.000 C 
BRANCH  18  19
ATOM     19  O   UNL     1       4.041   2.918  11.238  0.00  0.00    +0.000 OA
ATOM     20  H   UNL     1       4.097   3.509  10.466  0.00  0.00    +0.000 HD
ENDBRANCH  18  19
ENDBRANCH  16  18
ENDBRANCH   9  12
ENDBRANCH   5   7
BRANCH   1  22
ATOM     21  C   UNL     1       0.665   8.419  21.035  0.00  0.00    +0.000 C 
ATOM     22  C   UNL     1       1.814   8.354  20.019  0.00  0.00    +0.000 C 
BRANCH  22  23
ATOM     23  S   UNL     1       1.356   8.997  18.360  0.00  0.00    +0.000 S 
BRANCH  23  24
ATOM     24  C   UNL     1       0.646  10.535  18.677  0.00  0.00    +0.000 A 
ATOM     25  N   UNL     1       1.166  11.550  19.326  0.00  0.00    +0.000 NA
ATOM     26  N   UNL     1       0.198  12.524  19.431  0.00  0.00    +0.000 NA
ATOM     27  C   UNL     1      -0.877  12.083  18.821  0.00  0.00    +0.000 A 
ATOM     28  N   UNL     1      -0.631  10.847  18.301  0.00  0.00    +0.000 N 
ATOM     29  C   UNL     1      -1.544  10.067  17.510  0.00  0.00    +0.000 C 
ENDBRANCH  23  24
ENDBRANCH  22  23
ENDBRANCH   1  22
TORSDOF 7
ENDMDL
MODEL 6
REMARK VINA RESULT:      -7.9      1.224      1.766
REMARK  Name = 
REMARK  9 active torsions:
REMARK  status: ('A' for Active; 'I' for Inactive)
REMARK    1  A    between atoms: C_1  and  C_2
REMARK    2  A    between atoms: C_2  and  S_3
REMARK    3  A    between atoms: C_2  and  C_10
REMARK    4  A    between atoms: S_3  and  C_4
REMARK    5  A    between atoms: N_8  and  C_9
REMARK    6  A    between atoms: C_14  and  N_15
REMARK    7  A    between atoms: C_17  and  C_18
REMARK    8  A    between atoms: C_22  and  C_23
REMARK    9  A    between atoms: C_23  and  O_24
REMARK                            x       y       z     vdW  Elec       q    Type
REMARK                         _______ _______ _______ _____ _____    ______ ____
ROOT
ATOM      1  C   UNL     1       2.427   7.472  19.076  0.00  0.00    +0.000 A 
ATOM      2  C   UNL     1       2.344   8.122  17.832  0.00  0.00    +0.000 A 
ATOM      3  C   UNL     1       1.662   9.329  17.695  0.00  0.00    +0.000 A 
ATOM      4  C   UNL     1       1.038   9.906  18.797  0.00  0.00    +0.000 A 
ATOM      5  C   UNL     1       1.092   9.272  20.045  0.00  0.00    +0.000 A 
ATOM      6  C   UNL     1       1.780   8.055  20.181  0.00  0.00    +0.000 A 
ENDROOT
BRANCH   5   7
ATOM      7  N   UNL     1       0.460   9.857  21.171  0.00  0.00    +0.000 N 
ATOM      8  C   UNL     1      -0.343  10.973  21.212  0.00  0.00    +0.000 A 
ATOM      9  C   UNL     1      -0.676  11.121  22.536  0.00  0.00    +0.000 A 
ATOM     10  N   UNL     1      -0.107  10.110  23.258  0.00  0.00    +0.000 NA
ATOM     11  N   UNL     1       0.586   9.344  22.425  0.00  0.00    +0.000 NA
BRANCH   9  12
ATOM     12  C   UNL     1      -1.533  12.148  23.092  0.00  0.00    +0.000 A 
ATOM     13  C   UNL     1      -2.855  11.871  23.474  0.00  0.00    +0.000 A 
ATOM     14  C   UNL     1      -3.653  12.867  24.036  0.00  0.00    +0.000 A 
ATOM     15  C   UNL     1      -3.137  14.148  24.224  0.00  0.00    +0.000 A 
ATOM     16  C   UNL     1      -1.822  14.451  23.847  0.00  0.00    +0.000 A 
ATOM     17  C   UNL     1      -1.033  13.444  23.274  0.00  0.00    +0.000 A 
BRANCH  16  18
ATOM     18  C   UNL     1      -1.264  15.828  24.077  0.00  0.00    +0.000 C 
BRANCH  18  19
ATOM     19  O   UNL     1      -2.179  16.611  24.830  0.00  0.00    +0.000 OA
ATOM     20  H   UNL     1      -2.578  17.246  24.210  0.00  0.00    +0.000 HD
ENDBRANCH  18  19
ENDBRANCH  16  18
ENDBRANCH   9  12
ENDBRANCH   5   7
BRANCH   1  22
ATOM     21  C   UNL     1       4.454   6.129  18.400  0.00  0.00    +0.000 C 
ATOM     22  C   UNL     1       3.164   6.140  19.230  0.00  0.00    +0.000 C 
BRANCH  22  23
ATOM     23  S   UNL     1       1.996   4.795  18.780  0.00  0.00    +0.000 S 
BRANCH  23  24
ATOM     24  C   UNL     1       2.043   3.719  20.124  0.00  0.00    +0.000 A 
ATOM     25  N   UNL     1       1.167   3.593  21.094  0.00  0.00    +0.000 NA
ATOM     26  N   UNL     1       1.673   2.693  22.005  0.00  0.00    +0.000 NA
ATOM     27  C   UNL     1       2.832   2.278  21.552  0.00  0.00    +0.000 A 
ATOM     28  N   UNL     1       3.092   2.872  20.353  0.00  0.00    +0.000 N 
ATOM     29  C   UNL     1       4.236   2.624  19.518  0.00  0.00    +0.000 C 
ENDBRANCH  23  24
ENDBRANCH  22  23
ENDBRANCH   1  22
TORSDOF 7
ENDMDL
MODEL 7
REMARK VINA RESULT:      -7.9      4.814      9.957
REMARK  Name = 
REMARK  9 active torsions:
REMARK  status: ('A' for Active; 'I' for Inactive)
REMARK    1  A    between atoms: C_1  and  C_2
REMARK    2  A    between atoms: C_2  and  S_3
REMARK    3  A    between atoms: C_2  and  C_10
REMARK    4  A    between atoms: S_3  and  C_4
REMARK    5  A    between atoms: N_8  and  C_9
REMARK    6  A    between atoms: C_14  and  N_15
REMARK    7  A    between atoms: C_17  and  C_18
REMARK    8  A    between atoms: C_22  and  C_23
REMARK    9  A    between atoms: C_23  and  O_24
REMARK                            x       y       z     vdW  Elec       q    Type
REMARK                         _______ _______ _______ _____ _____    ______ ____
ROOT
ATOM      1  C   UNL     1      -0.464  11.416  21.341  0.00  0.00    +0.000 A 
ATOM      2  C   UNL     1      -0.716  10.718  22.535  0.00  0.00    +0.000 A 
ATOM      3  C   UNL     1      -0.249   9.419  22.721  0.00  0.00    +0.000 A 
ATOM      4  C   UNL     1       0.469   8.785  21.712  0.00  0.00    +0.000 A 
ATOM      5  C   UNL     1       0.722   9.451  20.506  0.00  0.00    +0.000 A 
ATOM      6  C   UNL     1       0.251  10.762  20.320  0.00  0.00    +0.000 A 
ENDROOT
BRANCH   5   7
ATOM      7  N   UNL     1       1.456   8.810  19.477  0.00  0.00    +0.000 N 
ATOM      8  C   UNL     1       2.129   7.612  19.530  0.00  0.00    +0.000 A 
ATOM      9  C   UNL     1       2.682   7.460  18.282  0.00  0.00    +0.000 A 
ATOM     10  N   UNL     1       2.329   8.525  17.502  0.00  0.00    +0.000 NA
ATOM     11  N   UNL     1       1.586   9.347  18.233  0.00  0.00    +0.000 NA
BRANCH   9  12
ATOM     12  C   UNL     1       3.474   6.335  17.829  0.00  0.00    +0.000 A 
ATOM     13  C   UNL     1       2.925   5.047  17.732  0.00  0.00    +0.000 A 
ATOM     14  C   UNL     1       3.697   3.983  17.263  0.00  0.00    +0.000 A 
ATOM     15  C   UNL     1       5.021   4.197  16.887  0.00  0.00    +0.000 A 
ATOM     16  C   UNL     1       5.592   5.473  16.979  0.00  0.00    +0.000 A 
ATOM     17  C   UNL     1       4.811   6.532  17.460  0.00  0.00    +0.000 A 
BRANCH  16  18
ATOM     18  C   UNL     1       7.014   5.702  16.546  0.00  0.00    +0.000 C 
BRANCH  18  19
ATOM     19  O   UNL     1       7.379   4.767  15.540  0.00  0.00    +0.000 OA
ATOM     20  H   UNL     1       7.744   5.283  14.800  0.00  0.00    +0.000 HD
ENDBRANCH  18  19
ENDBRANCH  16  18
ENDBRANCH   9  12
ENDBRANCH   5   7
BRANCH   1  22
ATOM     21  C   UNL     1      -2.461  12.826  20.713  0.00  0.00    +0.000 C 
ATOM     22  C   UNL     1      -0.983  12.839  21.125  0.00  0.00    +0.000 C 
BRANCH  22  23
ATOM     23  S   UNL     1       0.109  13.656  19.895  0.00  0.00    +0.000 S 
BRANCH  23  24
ATOM     24  C   UNL     1       1.515  14.091  20.791  0.00  0.00    +0.000 A 
ATOM     25  N   UNL     1       1.605  14.379  22.068  0.00  0.00    +0.000 NA
ATOM     26  N   UNL     1       2.899  14.778  22.321  0.00  0.00    +0.000 NA
ATOM     27  C   UNL     1       3.566  14.697  21.193  0.00  0.00    +0.000 A 
ATOM     28  N   UNL     1       2.743  14.237  20.209  0.00  0.00    +0.000 N 
ATOM     29  C   UNL     1       3.125  13.958  18.851  0.00  0.00    +0.000 C 
ENDBRANCH  23  24
ENDBRANCH  22  23
ENDBRANCH   1  22
TORSDOF 7
ENDMDL
MODEL 8
REMARK VINA RESULT:      -7.8      4.140     10.047
REMARK  Name = 
REMARK  9 active torsions:
REMARK  status: ('A' for Active; 'I' for Inactive)
REMARK    1  A    between atoms: C_1  and  C_2
REMARK    2  A    between atoms: C_2  and  S_3
REMARK    3  A    between atoms: C_2  and  C_10
REMARK    4  A    between atoms: S_3  and  C_4
REMARK    5  A    between atoms: N_8  and  C_9
REMARK    6  A    between atoms: C_14  and  N_15
REMARK    7  A    between atoms: C_17  and  C_18
REMARK    8  A    between atoms: C_22  and  C_23
REMARK    9  A    between atoms: C_23  and  O_24
REMARK                            x       y       z     vdW  Elec       q    Type
REMARK                         _______ _______ _______ _____ _____    ______ ____
ROOT
ATOM      1  C   UNL     1      -0.556  11.593  21.809  0.00  0.00    +0.000 A 
ATOM      2  C   UNL     1      -0.769  10.824  22.967  0.00  0.00    +0.000 A 
ATOM      3  C   UNL     1      -0.310   9.512  23.053  0.00  0.00    +0.000 A 
ATOM      4  C   UNL     1       0.360   8.935  21.979  0.00  0.00    +0.000 A 
ATOM      5  C   UNL     1       0.572   9.673  20.807  0.00  0.00    +0.000 A 
ATOM      6  C   UNL     1       0.109  10.996  20.722  0.00  0.00    +0.000 A 
ENDROOT
BRANCH   5   7
ATOM      7  N   UNL     1       1.256   9.090  19.710  0.00  0.00    +0.000 N 
ATOM      8  C   UNL     1       1.901   7.876  19.657  0.00  0.00    +0.000 A 
ATOM      9  C   UNL     1       2.409   7.801  18.384  0.00  0.00    +0.000 A 
ATOM     10  N   UNL     1       2.058   8.927  17.692  0.00  0.00    +0.000 NA
ATOM     11  N   UNL     1       1.358   9.710  18.503  0.00  0.00    +0.000 NA
BRANCH   9  12
ATOM     12  C   UNL     1       3.158   6.693  17.826  0.00  0.00    +0.000 A 
ATOM     13  C   UNL     1       4.385   6.893  17.176  0.00  0.00    +0.000 A 
ATOM     14  C   UNL     1       5.105   5.808  16.674  0.00  0.00    +0.000 A 
ATOM     15  C   UNL     1       4.605   4.515  16.818  0.00  0.00    +0.000 A 
ATOM     16  C   UNL     1       3.380   4.291  17.460  0.00  0.00    +0.000 A 
ATOM     17  C   UNL     1       2.661   5.389  17.951  0.00  0.00    +0.000 A 
BRANCH  16  18
ATOM     18  C   UNL     1       2.860   2.891  17.635  0.00  0.00    +0.000 C 
BRANCH  18  19
ATOM     19  O   UNL     1       2.791   2.560  19.015  0.00  0.00    +0.000 OA
ATOM     20  H   UNL     1       1.861   2.674  19.282  0.00  0.00    +0.000 HD
ENDBRANCH  18  19
ENDBRANCH  16  18
ENDBRANCH   9  12
ENDBRANCH   5   7
BRANCH   1  22
ATOM     21  C   UNL     1      -1.012  13.733  23.065  0.00  0.00    +0.000 C 
ATOM     22  C   UNL     1      -1.068  13.031  21.703  0.00  0.00    +0.000 C 
BRANCH  22  23
ATOM     23  S   UNL     1      -2.755  12.976  20.979  0.00  0.00    +0.000 S 
BRANCH  23  24
ATOM     24  C   UNL     1      -3.808  13.066  22.340  0.00  0.00    +0.000 A 
ATOM     25  N   UNL     1      -4.102  12.121  23.202  0.00  0.00    +0.000 NA
ATOM     26  N   UNL     1      -5.071  12.609  24.051  0.00  0.00    +0.000 NA
ATOM     27  C   UNL     1      -5.322  13.848  23.695  0.00  0.00    +0.000 A 
ATOM     28  N   UNL     1      -4.526  14.190  22.642  0.00  0.00    +0.000 N 
ATOM     29  C   UNL     1      -4.467  15.482  22.014  0.00  0.00    +0.000 C 
ENDBRANCH  23  24
ENDBRANCH  22  23
ENDBRANCH   1  22
TORSDOF 7
ENDMDL
MODEL 9
REMARK VINA RESULT:      -7.8      5.018     10.146
REMARK  Name = 
REMARK  9 active torsions:
REMARK  status: ('A' for Active; 'I' for Inactive)
REMARK    1  A    between atoms: C_1  and  C_2
REMARK    2  A    between atoms: C_2  and  S_3
REMARK    3  A    between atoms: C_2  and  C_10
REMARK    4  A    between atoms: S_3  and  C_4
REMARK    5  A    between atoms: N_8  and  C_9
REMARK    6  A    between atoms: C_14  and  N_15
REMARK    7  A    between atoms: C_17  and  C_18
REMARK    8  A    between atoms: C_22  and  C_23
REMARK    9  A    between atoms: C_23  and  O_24
REMARK                            x       y       z     vdW  Elec       q    Type
REMARK                         _______ _______ _______ _____ _____    ______ ____
ROOT
ATOM      1  C   UNL     1       0.267  10.292  19.705  0.00  0.00    +0.000 A 
ATOM      2  C   UNL     1      -0.143  10.324  21.050  0.00  0.00    +0.000 A 
ATOM      3  C   UNL     1       0.262   9.340  21.950  0.00  0.00    +0.000 A 
ATOM      4  C   UNL     1       1.076   8.296  21.521  0.00  0.00    +0.000 A 
ATOM      5  C   UNL     1       1.486   8.231  20.183  0.00  0.00    +0.000 A 
ATOM      6  C   UNL     1       1.077   9.224  19.278  0.00  0.00    +0.000 A 
ENDROOT
BRANCH   5   7
ATOM      7  N   UNL     1       2.318   7.170  19.743  0.00  0.00    +0.000 N 
ATOM      8  C   UNL     1       3.353   7.219  18.837  0.00  0.00    +0.000 A 
ATOM      9  C   UNL     1       3.810   5.927  18.753  0.00  0.00    +0.000 A 
ATOM     10  N   UNL     1       3.084   5.137  19.600  0.00  0.00    +0.000 NA
ATOM     11  N   UNL     1       2.175   5.896  20.199  0.00  0.00    +0.000 NA
BRANCH   9  12
ATOM     12  C   UNL     1       4.916   5.463  17.940  0.00  0.00    +0.000 A 
ATOM     13  C   UNL     1       6.187   5.241  18.493  0.00  0.00    +0.000 A 
ATOM     14  C   UNL     1       7.230   4.764  17.698  0.00  0.00    +0.000 A 
ATOM     15  C   UNL     1       7.013   4.505  16.346  0.00  0.00    +0.000 A 
ATOM     16  C   UNL     1       5.754   4.723  15.771  0.00  0.00    +0.000 A 
ATOM     17  C   UNL     1       4.716   5.212  16.576  0.00  0.00    +0.000 A 
BRANCH  16  18
ATOM     18  C   UNL     1       5.519   4.416  14.318  0.00  0.00    +0.000 C 
BRANCH  18  19
ATOM     19  O   UNL     1       6.341   3.333  13.904  0.00  0.00    +0.000 OA
ATOM     20  H   UNL     1       7.252   3.673  13.868  0.00  0.00    +0.000 HD
ENDBRANCH  18  19
ENDBRANCH  16  18
ENDBRANCH   9  12
ENDBRANCH   5   7
BRANCH   1  22
ATOM     21  C   UNL     1       0.546  12.687  18.962  0.00  0.00    +0.000 C 
ATOM     22  C   UNL     1      -0.184  11.362  18.710  0.00  0.00    +0.000 C 
BRANCH  22  23
ATOM     23  S   UNL     1      -2.012  11.504  18.826  0.00  0.00    +0.000 S 
BRANCH  23  24
ATOM     24  C   UNL     1      -2.587  10.881  17.327  0.00  0.00    +0.000 A 
ATOM     25  N   UNL     1      -1.952  10.118  16.468  0.00  0.00    +0.000 NA
ATOM     26  N   UNL     1      -2.759   9.962  15.363  0.00  0.00    +0.000 NA
ATOM     27  C   UNL     1      -3.874  10.616  15.591  0.00  0.00    +0.000 A 
ATOM     28  N   UNL     1      -3.824  11.183  16.830  0.00  0.00    +0.000 N 
ATOM     29  C   UNL     1      -4.881  11.927  17.460  0.00  0.00    +0.000 C 
ENDBRANCH  23  24
ENDBRANCH  22  23
ENDBRANCH   1  22
TORSDOF 7
ENDMDL
