MODEL 1
REMARK VINA RESULT:     -10.3      0.000      0.000
REMARK  Name = 
REMARK  7 active torsions:
REMARK  status: ('A' for Active; 'I' for Inactive)
REMARK    1  A    between atoms: C_1  and  N_2
REMARK    2  A    between atoms: C_6  and  C_7
REMARK    3  A    between atoms: C_7  and  C_8
REMARK    4  A    between atoms: C_8  and  C_9
REMARK    5  A    between atoms: C_13  and  N_14
REMARK    6  A    between atoms: C_19  and  C_20
REMARK    7  A    between atoms: C_25  and  C_26
REMARK                            x       y       z     vdW  Elec       q    Type
REMARK                         _______ _______ _______ _____ _____    ______ ____
ROOT
ATOM      1  N   UNL     1       1.493   8.153  20.138  0.00  0.00    +0.000 N 
ATOM      2  C   UNL     1       1.566   6.801  20.658  0.00  0.00    +0.000 C 
ATOM      3  C   UNL     1       2.311   6.056  19.625  0.00  0.00    +0.000 A 
ATOM      4  C   UNL     1       2.761   6.927  18.640  0.00  0.00    +0.000 A 
ATOM      5  C   UNL     1       3.564   6.483  17.605  0.00  0.00    +0.000 A 
ATOM      6  C   UNL     1       3.927   5.116  17.549  0.00  0.00    +0.000 A 
ATOM      7  C   UNL     1       3.368   4.247  18.531  0.00  0.00    +0.000 A 
ATOM      8  C   UNL     1       2.568   4.694  19.585  0.00  0.00    +0.000 A 
ATOM      9  C   UNL     1       2.213   8.279  18.944  0.00  0.00    +0.000 C 
ATOM     10  O   UNL     1       2.381   9.246  18.225  0.00  0.00    +0.000 OA
ENDROOT
BRANCH   1  15
ATOM     11  C   UNL     1      -0.754  11.127  20.528  0.00  0.00    +0.000 A 
ATOM     12  C   UNL     1      -0.876  11.158  21.922  0.00  0.00    +0.000 A 
ATOM     13  C   UNL     1      -0.268  10.186  22.735  0.00  0.00    +0.000 A 
ATOM     14  C   UNL     1       0.509   9.163  22.179  0.00  0.00    +0.000 A 
ATOM     15  C   UNL     1       0.669   9.095  20.803  0.00  0.00    +0.000 A 
ATOM     16  C   UNL     1       0.005  10.064  20.020  0.00  0.00    +0.000 A 
BRANCH  11  17
ATOM     17  C   UNL     1      -1.411  12.197  19.509  0.00  0.00    +0.000 C 
ATOM     18  C   UNL     1      -0.508  12.611  18.316  0.00  0.00    +0.000 C 
ATOM     19  O   UNL     1      -0.492  13.994  18.713  0.00  0.00    +0.000 OA
ATOM     20  C   UNL     1      -1.296  13.710  19.877  0.00  0.00    +0.000 C 
BRANCH  17  21
ATOM     21  C   UNL     1      -2.845  11.777  19.089  0.00  0.00    +0.000 C 
BRANCH  21  27
ATOM     22  C   UNL     1      -5.244  12.094  17.018  0.00  0.00    +0.000 C 
ATOM     23  N   UNL     1      -4.015  11.369  16.835  0.00  0.00    +0.000 N 
ATOM     24  C   UNL     1      -3.702  10.662  15.710  0.00  0.00    +0.000 A 
ATOM     25  N   UNL     1      -2.535  10.085  15.870  0.00  0.00    +0.000 NA
ATOM     26  N   UNL     1      -2.082  10.403  17.125  0.00  0.00    +0.000 NA
ATOM     27  C   UNL     1      -2.958  11.204  17.704  0.00  0.00    +0.000 A 
ENDBRANCH  21  27
ENDBRANCH  17  21
ENDBRANCH  11  17
ENDBRANCH   1  15
BRANCH   6  28
ATOM     28  C   UNL     1       4.932   4.515  16.480  0.00  0.00    +0.000 C 
ATOM     29  C   UNL     1       5.372   5.381  15.270  0.00  0.00    +0.000 C 
ATOM     30  C   UNL     1       6.785   4.787  15.419  0.00  0.00    +0.000 C 
ATOM     31  C   UNL     1       6.441   4.497  16.886  0.00  0.00    +0.000 C 
ENDBRANCH   6  28
BRANCH   8  32
ATOM     32  C   UNL     1       2.018   3.727  20.602  0.00  0.00    +0.000 C 
ATOM     33  F   UNL     1       2.385   2.435  20.396  0.00  0.00    +0.000 F 
ATOM     34  F   UNL     1       2.411   4.035  21.868  0.00  0.00    +0.000 F 
ATOM     35  F   UNL     1       0.657   3.721  20.621  0.00  0.00    +0.000 F 
ENDBRANCH   8  32
TORSDOF 6
ENDMDL
MODEL 2
REMARK VINA RESULT:     -10.1      1.913      3.051
REMARK  Name = 
REMARK  7 active torsions:
REMARK  status: ('A' for Active; 'I' for Inactive)
REMARK    1  A    between atoms: C_1  and  N_2
REMARK    2  A    between atoms: C_6  and  C_7
REMARK    3  A    between atoms: C_7  and  C_8
REMARK    4  A    between atoms: C_8  and  C_9
REMARK    5  A    between atoms: C_13  and  N_14
REMARK    6  A    between atoms: C_19  and  C_20
REMARK    7  A    between atoms: C_25  and  C_26
REMARK                            x       y       z     vdW  Elec       q    Type
REMARK                         _______ _______ _______ _____ _____    ______ ____
ROOT
ATOM      1  N   UNL     1       1.525   8.145  20.071  0.00  0.00    +0.000 N 
ATOM      2  C   UNL     1       1.601   6.807  20.624  0.00  0.00    +0.000 C 
ATOM      3  C   UNL     1       2.345   6.038  19.610  0.00  0.00    +0.000 A 
ATOM      4  C   UNL     1       2.792   6.884  18.602  0.00  0.00    +0.000 A 
ATOM      5  C   UNL     1       3.595   6.415  17.578  0.00  0.00    +0.000 A 
ATOM      6  C   UNL     1       3.960   5.047  17.556  0.00  0.00    +0.000 A 
ATOM      7  C   UNL     1       3.403   4.203  18.560  0.00  0.00    +0.000 A 
ATOM      8  C   UNL     1       2.604   4.675  19.603  0.00  0.00    +0.000 A 
ATOM      9  C   UNL     1       2.243   8.242  18.874  0.00  0.00    +0.000 C 
ATOM     10  O   UNL     1       2.409   9.191  18.130  0.00  0.00    +0.000 OA
ENDROOT
BRANCH   1  15
ATOM     11  C   UNL     1      -0.775  11.088  20.380  0.00  0.00    +0.000 A 
ATOM     12  C   UNL     1      -0.855  11.188  21.775  0.00  0.00    +0.000 A 
ATOM     13  C   UNL     1      -0.201  10.272  22.616  0.00  0.00    +0.000 A 
ATOM     14  C   UNL     1       0.581   9.238  22.088  0.00  0.00    +0.000 A 
ATOM     15  C   UNL     1       0.701   9.103  20.713  0.00  0.00    +0.000 A 
ATOM     16  C   UNL     1      -0.008  10.016  19.904  0.00  0.00    +0.000 A 
BRANCH  11  17
ATOM     17  C   UNL     1      -1.486  12.091  19.331  0.00  0.00    +0.000 C 
ATOM     18  C   UNL     1      -3.038  12.122  19.397  0.00  0.00    +0.000 C 
ATOM     19  O   UNL     1      -3.178  11.664  18.040  0.00  0.00    +0.000 OA
ATOM     20  C   UNL     1      -1.748  11.559  17.886  0.00  0.00    +0.000 C 
BRANCH  17  21
ATOM     21  C   UNL     1      -0.833  13.499  19.355  0.00  0.00    +0.000 C 
BRANCH  21  27
ATOM     22  C   UNL     1       1.176  14.418  21.649  0.00  0.00    +0.000 C 
ATOM     23  N   UNL     1       1.505  13.905  20.346  0.00  0.00    +0.000 N 
ATOM     24  C   UNL     1       2.780  13.758  19.879  0.00  0.00    +0.000 A 
ATOM     25  N   UNL     1       2.742  13.307  18.648  0.00  0.00    +0.000 NA
ATOM     26  N   UNL     1       1.423  13.171  18.295  0.00  0.00    +0.000 NA
ATOM     27  C   UNL     1       0.669  13.502  19.327  0.00  0.00    +0.000 A 
ENDBRANCH  21  27
ENDBRANCH  17  21
ENDBRANCH  11  17
ENDBRANCH   1  15
BRANCH   6  28
ATOM     28  C   UNL     1       4.964   4.421  16.501  0.00  0.00    +0.000 C 
ATOM     29  C   UNL     1       5.376   5.245  15.252  0.00  0.00    +0.000 C 
ATOM     30  C   UNL     1       6.801   4.682  15.409  0.00  0.00    +0.000 C 
ATOM     31  C   UNL     1       6.478   4.445  16.890  0.00  0.00    +0.000 C 
ENDBRANCH   6  28
BRANCH   8  32
ATOM     32  C   UNL     1       2.056   3.733  20.645  0.00  0.00    +0.000 C 
ATOM     33  F   UNL     1       2.442   4.024  21.915  0.00  0.00    +0.000 F 
ATOM     34  F   UNL     1       0.695   3.718  20.658  0.00  0.00    +0.000 F 
ATOM     35  F   UNL     1       2.445   2.448  20.431  0.00  0.00    +0.000 F 
ENDBRANCH   8  32
TORSDOF 6
ENDMDL
MODEL 3
REMARK VINA RESULT:     -10.0      1.956      3.024
REMARK  Name = 
REMARK  7 active torsions:
REMARK  status: ('A' for Active; 'I' for Inactive)
REMARK    1  A    between atoms: C_1  and  N_2
REMARK    2  A    between atoms: C_6  and  C_7
REMARK    3  A    between atoms: C_7  and  C_8
REMARK    4  A    between atoms: C_8  and  C_9
REMARK    5  A    between atoms: C_13  and  N_14
REMARK    6  A    between atoms: C_19  and  C_20
REMARK    7  A    between atoms: C_25  and  C_26
REMARK                            x       y       z     vdW  Elec       q    Type
REMARK                         _______ _______ _______ _____ _____    ______ ____
ROOT
ATOM      1  N   UNL     1       1.610   8.122  19.918  0.00  0.00    +0.000 N 
ATOM      2  C   UNL     1       1.652   6.805  20.523  0.00  0.00    +0.000 C 
ATOM      3  C   UNL     1       2.417   5.989  19.562  0.00  0.00    +0.000 A 
ATOM      4  C   UNL     1       2.905   6.792  18.537  0.00  0.00    +0.000 A 
ATOM      5  C   UNL     1       3.733   6.275  17.556  0.00  0.00    +0.000 A 
ATOM      6  C   UNL     1       4.080   4.904  17.597  0.00  0.00    +0.000 A 
ATOM      7  C   UNL     1       3.483   4.104  18.614  0.00  0.00    +0.000 A 
ATOM      8  C   UNL     1       2.659   4.624  19.614  0.00  0.00    +0.000 A 
ATOM      9  C   UNL     1       2.365   8.165  18.741  0.00  0.00    +0.000 C 
ATOM     10  O   UNL     1       2.566   9.084  17.967  0.00  0.00    +0.000 OA
ENDROOT
BRANCH   1  15
ATOM     11  C   UNL     1      -0.870  10.929  20.040  0.00  0.00    +0.000 A 
ATOM     12  C   UNL     1      -0.825  11.234  21.406  0.00  0.00    +0.000 A 
ATOM     13  C   UNL     1      -0.026  10.498  22.297  0.00  0.00    +0.000 A 
ATOM     14  C   UNL     1       0.781   9.446  21.845  0.00  0.00    +0.000 A 
ATOM     15  C   UNL     1       0.779   9.113  20.498  0.00  0.00    +0.000 A 
ATOM     16  C   UNL     1      -0.071   9.848  19.645  0.00  0.00    +0.000 A 
BRANCH  11  17
ATOM     17  C   UNL     1      -1.752  11.716  18.938  0.00  0.00    +0.000 C 
ATOM     18  C   UNL     1      -3.070  12.340  19.472  0.00  0.00    +0.000 C 
ATOM     19  O   UNL     1      -3.889  11.546  18.594  0.00  0.00    +0.000 OA
ATOM     20  C   UNL     1      -2.731  10.873  18.059  0.00  0.00    +0.000 C 
BRANCH  17  21
ATOM     21  C   UNL     1      -0.885  12.703  18.112  0.00  0.00    +0.000 C 
BRANCH  21  27
ATOM     22  C   UNL     1       2.282  12.563  18.413  0.00  0.00    +0.000 C 
ATOM     23  N   UNL     1       1.382  13.503  19.026  0.00  0.00    +0.000 N 
ATOM     24  C   UNL     1       1.773  14.494  19.880  0.00  0.00    +0.000 A 
ATOM     25  N   UNL     1       0.716  15.151  20.295  0.00  0.00    +0.000 NA
ATOM     26  N   UNL     1      -0.387  14.573  19.718  0.00  0.00    +0.000 NA
ATOM     27  C   UNL     1       0.011  13.594  18.925  0.00  0.00    +0.000 A 
ENDBRANCH  21  27
ENDBRANCH  17  21
ENDBRANCH  11  17
ENDBRANCH   1  15
BRANCH   6  28
ATOM     28  C   UNL     1       5.108   4.227  16.597  0.00  0.00    +0.000 C 
ATOM     29  C   UNL     1       5.332   4.846  15.192  0.00  0.00    +0.000 C 
ATOM     30  C   UNL     1       6.830   4.515  15.337  0.00  0.00    +0.000 C 
ATOM     31  C   UNL     1       6.621   4.523  16.857  0.00  0.00    +0.000 C 
ENDBRANCH   6  28
BRANCH   8  32
ATOM     32  C   UNL     1       2.068   3.729  20.673  0.00  0.00    +0.000 C 
ATOM     33  F   UNL     1       0.709   3.722  20.700  0.00  0.00    +0.000 F 
ATOM     34  F   UNL     1       2.449   2.432  20.520  0.00  0.00    +0.000 F 
ATOM     35  F   UNL     1       2.455   4.091  21.925  0.00  0.00    +0.000 F 
ENDBRANCH   8  32
TORSDOF 6
ENDMDL
MODEL 4
REMARK VINA RESULT:      -9.9      2.047      3.014
REMARK  Name = 
REMARK  7 active torsions:
REMARK  status: ('A' for Active; 'I' for Inactive)
REMARK    1  A    between atoms: C_1  and  N_2
REMARK    2  A    between atoms: C_6  and  C_7
REMARK    3  A    between atoms: C_7  and  C_8
REMARK    4  A    between atoms: C_8  and  C_9
REMARK    5  A    between atoms: C_13  and  N_14
REMARK    6  A    between atoms: C_19  and  C_20
REMARK    7  A    between atoms: C_25  and  C_26
REMARK                            x       y       z     vdW  Elec       q    Type
REMARK                         _______ _______ _______ _____ _____    ______ ____
ROOT
ATOM      1  N   UNL     1       1.480   8.100  20.237  0.00  0.00    +0.000 N 
ATOM      2  C   UNL     1       1.577   6.745  20.744  0.00  0.00    +0.000 C 
ATOM      3  C   UNL     1       2.308   6.016  19.691  0.00  0.00    +0.000 A 
ATOM      4  C   UNL     1       2.728   6.898  18.703  0.00  0.00    +0.000 A 
ATOM      5  C   UNL     1       3.514   6.470  17.649  0.00  0.00    +0.000 A 
ATOM      6  C   UNL     1       3.889   5.107  17.575  0.00  0.00    +0.000 A 
ATOM      7  C   UNL     1       3.360   4.226  18.561  0.00  0.00    +0.000 A 
ATOM      8  C   UNL     1       2.577   4.656  19.634  0.00  0.00    +0.000 A 
ATOM      9  C   UNL     1       2.174   8.242  19.030  0.00  0.00    +0.000 C 
ATOM     10  O   UNL     1       2.317   9.216  18.314  0.00  0.00    +0.000 OA
ENDROOT
BRANCH   1  15
ATOM     11  C   UNL     1      -0.710  11.104  20.713  0.00  0.00    +0.000 A 
ATOM     12  C   UNL     1      -0.865  11.073  22.104  0.00  0.00    +0.000 A 
ATOM     13  C   UNL     1      -0.300  10.050  22.884  0.00  0.00    +0.000 A 
ATOM     14  C   UNL     1       0.469   9.036  22.299  0.00  0.00    +0.000 A 
ATOM     15  C   UNL     1       0.661   9.029  20.925  0.00  0.00    +0.000 A 
ATOM     16  C   UNL     1       0.038  10.048  20.174  0.00  0.00    +0.000 A 
BRANCH  11  17
ATOM     17  C   UNL     1      -1.318  12.235  19.731  0.00  0.00    +0.000 C 
ATOM     18  C   UNL     1      -2.723  11.918  19.151  0.00  0.00    +0.000 C 
ATOM     19  O   UNL     1      -2.247  11.937  17.793  0.00  0.00    +0.000 OA
ATOM     20  C   UNL     1      -0.896  12.191  18.228  0.00  0.00    +0.000 C 
BRANCH  17  21
ATOM     21  C   UNL     1      -1.208  13.651  20.356  0.00  0.00    +0.000 C 
BRANCH  21  27
ATOM     22  C   UNL     1       1.951  13.541  20.749  0.00  0.00    +0.000 C 
ATOM     23  N   UNL     1       1.199  14.455  19.932  0.00  0.00    +0.000 N 
ATOM     24  C   UNL     1       1.754  15.463  19.199  0.00  0.00    +0.000 A 
ATOM     25  N   UNL     1       0.803  16.139  18.599  0.00  0.00    +0.000 NA
ATOM     26  N   UNL     1      -0.396  15.577  18.957  0.00  0.00    +0.000 NA
ATOM     27  C   UNL     1      -0.164  14.538  19.740  0.00  0.00    +0.000 A 
ENDBRANCH  21  27
ENDBRANCH  17  21
ENDBRANCH  11  17
ENDBRANCH   1  15
BRANCH   6  28
ATOM     28  C   UNL     1       4.878   4.524  16.481  0.00  0.00    +0.000 C 
ATOM     29  C   UNL     1       5.371   5.439  15.328  0.00  0.00    +0.000 C 
ATOM     30  C   UNL     1       6.754   4.772  15.454  0.00  0.00    +0.000 C 
ATOM     31  C   UNL     1       6.380   4.412  16.898  0.00  0.00    +0.000 C 
ENDBRANCH   6  28
BRANCH   8  32
ATOM     32  C   UNL     1       2.057   3.676  20.656  0.00  0.00    +0.000 C 
ATOM     33  F   UNL     1       2.465   2.396  20.455  0.00  0.00    +0.000 F 
ATOM     34  F   UNL     1       2.441   4.001  21.920  0.00  0.00    +0.000 F 
ATOM     35  F   UNL     1       0.698   3.627  20.674  0.00  0.00    +0.000 F 
ENDBRANCH   8  32
TORSDOF 6
ENDMDL
MODEL 5
REMARK VINA RESULT:      -9.9      2.051      2.854
REMARK  Name = 
REMARK  7 active torsions:
REMARK  status: ('A' for Active; 'I' for Inactive)
REMARK    1  A    between atoms: C_1  and  N_2
REMARK    2  A    between atoms: C_6  and  C_7
REMARK    3  A    between atoms: C_7  and  C_8
REMARK    4  A    between atoms: C_8  and  C_9
REMARK    5  A    between atoms: C_13  and  N_14
REMARK    6  A    between atoms: C_19  and  C_20
REMARK    7  A    between atoms: C_25  and  C_26
REMARK                            x       y       z     vdW  Elec       q    Type
REMARK                         _______ _______ _______ _____ _____    ______ ____
ROOT
ATOM      1  N   UNL     1       1.495   8.105  20.205  0.00  0.00    +0.000 N 
ATOM      2  C   UNL     1       1.567   6.743  20.699  0.00  0.00    +0.000 C 
ATOM      3  C   UNL     1       2.304   6.015  19.650  0.00  0.00    +0.000 A 
ATOM      4  C   UNL     1       2.752   6.902  18.678  0.00  0.00    +0.000 A 
ATOM      5  C   UNL     1       3.549   6.475  17.632  0.00  0.00    +0.000 A 
ATOM      6  C   UNL     1       3.907   5.108  17.549  0.00  0.00    +0.000 A 
ATOM      7  C   UNL     1       3.350   4.223  18.517  0.00  0.00    +0.000 A 
ATOM      8  C   UNL     1       2.557   4.653  19.583  0.00  0.00    +0.000 A 
ATOM      9  C   UNL     1       2.210   8.250  19.011  0.00  0.00    +0.000 C 
ATOM     10  O   UNL     1       2.377   9.230  18.308  0.00  0.00    +0.000 OA
ENDROOT
BRANCH   1  15
ATOM     11  C   UNL     1      -0.715  11.096  20.666  0.00  0.00    +0.000 A 
ATOM     12  C   UNL     1      -0.850  11.086  22.059  0.00  0.00    +0.000 A 
ATOM     13  C   UNL     1      -0.264  10.080  22.847  0.00  0.00    +0.000 A 
ATOM     14  C   UNL     1       0.505   9.064  22.267  0.00  0.00    +0.000 A 
ATOM     15  C   UNL     1       0.677   9.037  20.891  0.00  0.00    +0.000 A 
ATOM     16  C   UNL     1       0.035  10.039  20.133  0.00  0.00    +0.000 A 
BRANCH  11  17
ATOM     17  C   UNL     1      -1.347  12.206  19.675  0.00  0.00    +0.000 C 
ATOM     18  C   UNL     1      -2.852  12.015  19.346  0.00  0.00    +0.000 C 
ATOM     19  O   UNL     1      -2.599  11.862  17.937  0.00  0.00    +0.000 OA
ATOM     20  C   UNL     1      -1.177  11.986  18.138  0.00  0.00    +0.000 C 
BRANCH  17  21
ATOM     21  C   UNL     1      -0.987  13.646  20.130  0.00  0.00    +0.000 C 
BRANCH  21  27
ATOM     22  C   UNL     1      -0.371  16.336  18.541  0.00  0.00    +0.000 C 
ATOM     23  N   UNL     1       0.567  15.329  18.960  0.00  0.00    +0.000 N 
ATOM     24  C   UNL     1       1.906  15.373  18.701  0.00  0.00    +0.000 A 
ATOM     25  N   UNL     1       2.477  14.293  19.179  0.00  0.00    +0.000 NA
ATOM     26  N   UNL     1       1.494  13.519  19.744  0.00  0.00    +0.000 NA
ATOM     27  C   UNL     1       0.340  14.153  19.642  0.00  0.00    +0.000 A 
ENDBRANCH  21  27
ENDBRANCH  17  21
ENDBRANCH  11  17
ENDBRANCH   1  15
BRANCH   6  28
ATOM     28  C   UNL     1       4.905   4.523  16.465  0.00  0.00    +0.000 C 
ATOM     29  C   UNL     1       5.383   5.428  15.297  0.00  0.00    +0.000 C 
ATOM     30  C   UNL     1       6.777   4.785  15.434  0.00  0.00    +0.000 C 
ATOM     31  C   UNL     1       6.409   4.442  16.883  0.00  0.00    +0.000 C 
ENDBRANCH   6  28
BRANCH   8  32
ATOM     32  C   UNL     1       2.008   3.669  20.585  0.00  0.00    +0.000 C 
ATOM     33  F   UNL     1       2.366   2.379  20.351  0.00  0.00    +0.000 F 
ATOM     34  F   UNL     1       2.414   3.949  21.854  0.00  0.00    +0.000 F 
ATOM     35  F   UNL     1       0.648   3.671  20.615  0.00  0.00    +0.000 F 
ENDBRANCH   8  32
TORSDOF 6
ENDMDL
MODEL 6
REMARK VINA RESULT:      -9.8      2.227      3.266
REMARK  Name = 
REMARK  7 active torsions:
REMARK  status: ('A' for Active; 'I' for Inactive)
REMARK    1  A    between atoms: C_1  and  N_2
REMARK    2  A    between atoms: C_6  and  C_7
REMARK    3  A    between atoms: C_7  and  C_8
REMARK    4  A    between atoms: C_8  and  C_9
REMARK    5  A    between atoms: C_13  and  N_14
REMARK    6  A    between atoms: C_19  and  C_20
REMARK    7  A    between atoms: C_25  and  C_26
REMARK                            x       y       z     vdW  Elec       q    Type
REMARK                         _______ _______ _______ _____ _____    ______ ____
ROOT
ATOM      1  N   UNL     1       1.817   7.616  19.990  0.00  0.00    +0.000 N 
ATOM      2  C   UNL     1       1.846   6.238  20.439  0.00  0.00    +0.000 C 
ATOM      3  C   UNL     1       2.569   5.524  19.370  0.00  0.00    +0.000 A 
ATOM      4  C   UNL     1       3.050   6.430  18.432  0.00  0.00    +0.000 A 
ATOM      5  C   UNL     1       3.842   6.014  17.377  0.00  0.00    +0.000 A 
ATOM      6  C   UNL     1       4.161   4.641  17.250  0.00  0.00    +0.000 A 
ATOM      7  C   UNL     1       3.571   3.741  18.184  0.00  0.00    +0.000 A 
ATOM      8  C   UNL     1       2.782   4.158  19.259  0.00  0.00    +0.000 A 
ATOM      9  C   UNL     1       2.545   7.780  18.806  0.00  0.00    +0.000 C 
ATOM     10  O   UNL     1       2.746   8.778  18.138  0.00  0.00    +0.000 OA
ENDROOT
BRANCH   1  15
ATOM     11  C   UNL     1      -0.290  10.665  20.542  0.00  0.00    +0.000 A 
ATOM     12  C   UNL     1      -0.451  10.602  21.932  0.00  0.00    +0.000 A 
ATOM     13  C   UNL     1       0.084   9.543  22.685  0.00  0.00    +0.000 A 
ATOM     14  C   UNL     1       0.826   8.524  22.075  0.00  0.00    +0.000 A 
ATOM     15  C   UNL     1       1.022   8.549  20.702  0.00  0.00    +0.000 A 
ATOM     16  C   UNL     1       0.430   9.604  19.977  0.00  0.00    +0.000 A 
BRANCH  11  17
ATOM     17  C   UNL     1      -0.864  11.839  19.589  0.00  0.00    +0.000 C 
ATOM     18  C   UNL     1      -2.146  12.544  20.112  0.00  0.00    +0.000 C 
ATOM     19  O   UNL     1      -2.920  12.144  18.966  0.00  0.00    +0.000 OA
ATOM     20  C   UNL     1      -1.801  11.422  18.412  0.00  0.00    +0.000 C 
BRANCH  17  21
ATOM     21  C   UNL     1       0.257  12.823  19.160  0.00  0.00    +0.000 C 
BRANCH  21  27
ATOM     22  C   UNL     1      -0.396  15.872  19.806  0.00  0.00    +0.000 C 
ATOM     23  N   UNL     1       0.498  14.996  20.515  0.00  0.00    +0.000 N 
ATOM     24  C   UNL     1       1.244  15.371  21.595  0.00  0.00    +0.000 A 
ATOM     25  N   UNL     1       1.981  14.359  21.986  0.00  0.00    +0.000 NA
ATOM     26  N   UNL     1       1.729  13.309  21.140  0.00  0.00    +0.000 NA
ATOM     27  C   UNL     1       0.810  13.677  20.266  0.00  0.00    +0.000 A 
ENDBRANCH  21  27
ENDBRANCH  17  21
ENDBRANCH  11  17
ENDBRANCH   1  15
BRANCH   6  28
ATOM     28  C   UNL     1       5.150   4.064  16.153  0.00  0.00    +0.000 C 
ATOM     29  C   UNL     1       5.298   4.798  14.793  0.00  0.00    +0.000 C 
ATOM     30  C   UNL     1       6.805   4.483  14.842  0.00  0.00    +0.000 C 
ATOM     31  C   UNL     1       6.669   4.365  16.366  0.00  0.00    +0.000 C 
ENDBRANCH   6  28
BRANCH   8  32
ATOM     32  C   UNL     1       2.198   3.158  20.224  0.00  0.00    +0.000 C 
ATOM     33  F   UNL     1       2.701   3.241  21.484  0.00  0.00    +0.000 F 
ATOM     34  F   UNL     1       0.849   3.290  20.345  0.00  0.00    +0.000 F 
ATOM     35  F   UNL     1       2.417   1.875  19.829  0.00  0.00    +0.000 F 
ENDBRANCH   8  32
TORSDOF 6
ENDMDL
MODEL 7
REMARK VINA RESULT:      -9.8      1.792      2.427
REMARK  Name = 
REMARK  7 active torsions:
REMARK  status: ('A' for Active; 'I' for Inactive)
REMARK    1  A    between atoms: C_1  and  N_2
REMARK    2  A    between atoms: C_6  and  C_7
REMARK    3  A    between atoms: C_7  and  C_8
REMARK    4  A    between atoms: C_8  and  C_9
REMARK    5  A    between atoms: C_13  and  N_14
REMARK    6  A    between atoms: C_19  and  C_20
REMARK    7  A    between atoms: C_25  and  C_26
REMARK                            x       y       z     vdW  Elec       q    Type
REMARK                         _______ _______ _______ _____ _____    ______ ____
ROOT
ATOM      1  N   UNL     1       1.460   8.680  19.486  0.00  0.00    +0.000 N 
ATOM      2  C   UNL     1       1.555   7.423  20.202  0.00  0.00    +0.000 C 
ATOM      3  C   UNL     1       2.343   6.555  19.307  0.00  0.00    +0.000 A 
ATOM      4  C   UNL     1       2.794   7.282  18.212  0.00  0.00    +0.000 A 
ATOM      5  C   UNL     1       3.632   6.713  17.271  0.00  0.00    +0.000 A 
ATOM      6  C   UNL     1       4.030   5.363  17.426  0.00  0.00    +0.000 A 
ATOM      7  C   UNL     1       3.470   4.634  18.514  0.00  0.00    +0.000 A 
ATOM      8  C   UNL     1       2.634   5.209  19.474  0.00  0.00    +0.000 A 
ATOM      9  C   UNL     1       2.206   8.648  18.302  0.00  0.00    +0.000 C 
ATOM     10  O   UNL     1       2.367   9.503  17.450  0.00  0.00    +0.000 OA
ENDROOT
BRANCH   1  15
ATOM     11  C   UNL     1      -1.436  11.058  19.527  0.00  0.00    +0.000 A 
ATOM     12  C   UNL     1      -1.154  11.764  20.703  0.00  0.00    +0.000 A 
ATOM     13  C   UNL     1      -0.051  11.437  21.509  0.00  0.00    +0.000 A 
ATOM     14  C   UNL     1       0.829  10.409  21.150  0.00  0.00    +0.000 A 
ATOM     15  C   UNL     1       0.598   9.687  19.987  0.00  0.00    +0.000 A 
ATOM     16  C   UNL     1      -0.546  10.017  19.230  0.00  0.00    +0.000 A 
BRANCH  11  17
ATOM     17  C   UNL     1      -2.676  11.357  18.534  0.00  0.00    +0.000 C 
ATOM     18  C   UNL     1      -3.508  10.111  18.125  0.00  0.00    +0.000 C 
ATOM     19  O   UNL     1      -3.207  10.278  16.727  0.00  0.00    +0.000 OA
ATOM     20  C   UNL     1      -2.376  11.424  17.002  0.00  0.00    +0.000 C 
BRANCH  17  21
ATOM     21  C   UNL     1      -3.539  12.543  19.041  0.00  0.00    +0.000 C 
BRANCH  21  27
ATOM     22  C   UNL     1      -6.293  12.381  17.450  0.00  0.00    +0.000 C 
ATOM     23  N   UNL     1      -6.065  12.100  18.842  0.00  0.00    +0.000 N 
ATOM     24  C   UNL     1      -7.043  11.734  19.721  0.00  0.00    +0.000 A 
ATOM     25  N   UNL     1      -6.521  11.590  20.916  0.00  0.00    +0.000 NA
ATOM     26  N   UNL     1      -5.184  11.882  20.824  0.00  0.00    +0.000 NA
ATOM     27  C   UNL     1      -4.894  12.162  19.567  0.00  0.00    +0.000 A 
ENDBRANCH  21  27
ENDBRANCH  17  21
ENDBRANCH  11  17
ENDBRANCH   1  15
BRANCH   6  28
ATOM     28  C   UNL     1       5.075   4.639  16.478  0.00  0.00    +0.000 C 
ATOM     29  C   UNL     1       5.609   5.377  15.221  0.00  0.00    +0.000 C 
ATOM     30  C   UNL     1       6.993   4.764  15.508  0.00  0.00    +0.000 C 
ATOM     31  C   UNL     1       6.558   4.621  16.972  0.00  0.00    +0.000 C 
ENDBRANCH   6  28
BRANCH   8  32
ATOM     32  C   UNL     1       2.084   4.388  20.612  0.00  0.00    +0.000 C 
ATOM     33  F   UNL     1       2.541   4.760  21.837  0.00  0.00    +0.000 F 
ATOM     34  F   UNL     1       0.726   4.451  20.681  0.00  0.00    +0.000 F 
ATOM     35  F   UNL     1       2.395   3.069  20.492  0.00  0.00    +0.000 F 
ENDBRANCH   8  32
TORSDOF 6
ENDMDL
MODEL 8
REMARK VINA RESULT:      -9.7      0.767      1.346
REMARK  Name = 
REMARK  7 active torsions:
REMARK  status: ('A' for Active; 'I' for Inactive)
REMARK    1  A    between atoms: C_1  and  N_2
REMARK    2  A    between atoms: C_6  and  C_7
REMARK    3  A    between atoms: C_7  and  C_8
REMARK    4  A    between atoms: C_8  and  C_9
REMARK    5  A    between atoms: C_13  and  N_14
REMARK    6  A    between atoms: C_19  and  C_20
REMARK    7  A    between atoms: C_25  and  C_26
REMARK                            x       y       z     vdW  Elec       q    Type
REMARK                         _______ _______ _______ _____ _____    ______ ____
ROOT
ATOM      1  N   UNL     1       1.673   7.864  19.908  0.00  0.00    +0.000 N 
ATOM      2  C   UNL     1       1.691   6.533  20.482  0.00  0.00    +0.000 C 
ATOM      3  C   UNL     1       2.439   5.725  19.501  0.00  0.00    +0.000 A 
ATOM      4  C   UNL     1       2.941   6.541  18.494  0.00  0.00    +0.000 A 
ATOM      5  C   UNL     1       3.757   6.032  17.500  0.00  0.00    +0.000 A 
ATOM      6  C   UNL     1       4.079   4.654  17.508  0.00  0.00    +0.000 A 
ATOM      7  C   UNL     1       3.468   3.843  18.508  0.00  0.00    +0.000 A 
ATOM      8  C   UNL     1       2.655   4.355  19.521  0.00  0.00    +0.000 A 
ATOM      9  C   UNL     1       2.428   7.920  18.730  0.00  0.00    +0.000 C 
ATOM     10  O   UNL     1       2.644   8.852  17.978  0.00  0.00    +0.000 OA
ENDROOT
BRANCH   1  15
ATOM     11  C   UNL     1      -0.313  11.031  20.168  0.00  0.00    +0.000 A 
ATOM     12  C   UNL     1      -0.615  11.017  21.535  0.00  0.00    +0.000 A 
ATOM     13  C   UNL     1      -0.215   9.956  22.365  0.00  0.00    +0.000 A 
ATOM     14  C   UNL     1       0.528   8.882  21.858  0.00  0.00    +0.000 A 
ATOM     15  C   UNL     1       0.862   8.856  20.512  0.00  0.00    +0.000 A 
ATOM     16  C   UNL     1       0.403   9.919  19.705  0.00  0.00    +0.000 A 
BRANCH  11  17
ATOM     17  C   UNL     1      -0.724  12.204  19.134  0.00  0.00    +0.000 C 
ATOM     18  C   UNL     1       0.398  13.232  18.823  0.00  0.00    +0.000 C 
ATOM     19  O   UNL     1      -0.366  14.334  19.346  0.00  0.00    +0.000 OA
ATOM     20  C   UNL     1      -1.451  13.458  19.714  0.00  0.00    +0.000 C 
BRANCH  17  21
ATOM     21  C   UNL     1      -1.412  11.630  17.866  0.00  0.00    +0.000 C 
BRANCH  21  27
ATOM     22  C   UNL     1      -3.455  10.960  15.517  0.00  0.00    +0.000 C 
ATOM     23  N   UNL     1      -3.763  11.271  16.887  0.00  0.00    +0.000 N 
ATOM     24  C   UNL     1      -5.030  11.353  17.390  0.00  0.00    +0.000 A 
ATOM     25  N   UNL     1      -4.974  11.692  18.656  0.00  0.00    +0.000 NA
ATOM     26  N   UNL     1      -3.652  11.853  18.986  0.00  0.00    +0.000 NA
ATOM     27  C   UNL     1      -2.911  11.571  17.929  0.00  0.00    +0.000 A 
ENDBRANCH  21  27
ENDBRANCH  17  21
ENDBRANCH  11  17
ENDBRANCH   1  15
BRANCH   6  28
ATOM     28  C   UNL     1       5.093   3.981  16.492  0.00  0.00    +0.000 C 
ATOM     29  C   UNL     1       5.189   4.516  15.038  0.00  0.00    +0.000 C 
ATOM     30  C   UNL     1       6.713   4.298  15.110  0.00  0.00    +0.000 C 
ATOM     31  C   UNL     1       6.593   4.396  16.636  0.00  0.00    +0.000 C 
ENDBRANCH   6  28
BRANCH   8  32
ATOM     32  C   UNL     1       2.049   3.447  20.560  0.00  0.00    +0.000 C 
ATOM     33  F   UNL     1       0.712   3.619  20.737  0.00  0.00    +0.000 F 
ATOM     34  F   UNL     1       2.223   2.132  20.257  0.00  0.00    +0.000 F 
ATOM     35  F   UNL     1       2.605   3.628  21.788  0.00  0.00    +0.000 F 
ENDBRANCH   8  32
TORSDOF 6
ENDMDL
MODEL 9
REMARK VINA RESULT:      -9.7      1.920      2.689
REMARK  Name = 
REMARK  7 active torsions:
REMARK  status: ('A' for Active; 'I' for Inactive)
REMARK    1  A    between atoms: C_1  and  N_2
REMARK    2  A    between atoms: C_6  and  C_7
REMARK    3  A    between atoms: C_7  and  C_8
REMARK    4  A    between atoms: C_8  and  C_9
REMARK    5  A    between atoms: C_13  and  N_14
REMARK    6  A    between atoms: C_19  and  C_20
REMARK    7  A    between atoms: C_25  and  C_26
REMARK                            x       y       z     vdW  Elec       q    Type
REMARK                         _______ _______ _______ _____ _____    ______ ____
ROOT
ATOM      1  N   UNL     1       1.434   8.187  20.228  0.00  0.00    +0.000 N 
ATOM      2  C   UNL     1       1.545   6.833  20.734  0.00  0.00    +0.000 C 
ATOM      3  C   UNL     1       2.277   6.110  19.677  0.00  0.00    +0.000 A 
ATOM      4  C   UNL     1       2.687   6.997  18.688  0.00  0.00    +0.000 A 
ATOM      5  C   UNL     1       3.472   6.576  17.631  0.00  0.00    +0.000 A 
ATOM      6  C   UNL     1       3.858   5.216  17.554  0.00  0.00    +0.000 A 
ATOM      7  C   UNL     1       3.340   4.330  18.542  0.00  0.00    +0.000 A 
ATOM      8  C   UNL     1       2.558   4.753  19.619  0.00  0.00    +0.000 A 
ATOM      9  C   UNL     1       2.122   8.336  19.018  0.00  0.00    +0.000 C 
ATOM     10  O   UNL     1       2.255   9.312  18.303  0.00  0.00    +0.000 OA
ENDROOT
BRANCH   1  15
ATOM     11  C   UNL     1      -0.869  11.107  20.695  0.00  0.00    +0.000 A 
ATOM     12  C   UNL     1      -0.947  11.133  22.093  0.00  0.00    +0.000 A 
ATOM     13  C   UNL     1      -0.291  10.175  22.884  0.00  0.00    +0.000 A 
ATOM     14  C   UNL     1       0.492   9.171  22.302  0.00  0.00    +0.000 A 
ATOM     15  C   UNL     1       0.610   9.109  20.920  0.00  0.00    +0.000 A 
ATOM     16  C   UNL     1      -0.101  10.062  20.162  0.00  0.00    +0.000 A 
BRANCH  11  17
ATOM     17  C   UNL     1      -1.583  12.162  19.701  0.00  0.00    +0.000 C 
ATOM     18  C   UNL     1      -2.569  11.538  18.675  0.00  0.00    +0.000 C 
ATOM     19  O   UNL     1      -1.804  12.003  17.548  0.00  0.00    +0.000 OA
ATOM     20  C   UNL     1      -0.806  12.583  18.413  0.00  0.00    +0.000 C 
BRANCH  17  21
ATOM     21  C   UNL     1      -2.175  13.368  20.479  0.00  0.00    +0.000 C 
BRANCH  21  27
ATOM     22  C   UNL     1      -2.868  13.932  23.535  0.00  0.00    +0.000 C 
ATOM     23  N   UNL     1      -3.721  13.350  22.534  0.00  0.00    +0.000 N 
ATOM     24  C   UNL     1      -4.993  12.914  22.769  0.00  0.00    +0.000 A 
ATOM     25  N   UNL     1      -5.488  12.401  21.667  0.00  0.00    +0.000 NA
ATOM     26  N   UNL     1      -4.519  12.485  20.699  0.00  0.00    +0.000 NA
ATOM     27  C   UNL     1      -3.458  13.085  21.207  0.00  0.00    +0.000 A 
ENDBRANCH  21  27
ENDBRANCH  17  21
ENDBRANCH  11  17
ENDBRANCH   1  15
BRANCH   6  28
ATOM     28  C   UNL     1       4.848   4.643  16.456  0.00  0.00    +0.000 C 
ATOM     29  C   UNL     1       5.421   5.592  15.370  0.00  0.00    +0.000 C 
ATOM     30  C   UNL     1       6.763   4.847  15.495  0.00  0.00    +0.000 C 
ATOM     31  C   UNL     1       6.329   4.428  16.906  0.00  0.00    +0.000 C 
ENDBRANCH   6  28
BRANCH   8  32
ATOM     32  C   UNL     1       2.050   3.768  20.641  0.00  0.00    +0.000 C 
ATOM     33  F   UNL     1       2.451   2.487  20.426  0.00  0.00    +0.000 F 
ATOM     34  F   UNL     1       2.454   4.083  21.902  0.00  0.00    +0.000 F 
ATOM     35  F   UNL     1       0.691   3.723  20.680  0.00  0.00    +0.000 F 
ENDBRANCH   8  32
TORSDOF 6
ENDMDL
