MODEL 1
REMARK VINA RESULT:      -9.8      0.000      0.000
REMARK  Name = 
REMARK  8 active torsions:
REMARK  status: ('A' for Active; 'I' for Inactive)
REMARK    1  A    between atoms: C_1  and  N_2
REMARK    2  A    between atoms: C_6  and  C_7
REMARK    3  A    between atoms: C_7  and  C_8
REMARK    4  A    between atoms: C_8  and  C_9
REMARK    5  A    between atoms: C_13  and  N_14
REMARK    6  A    between atoms: C_19  and  C_20
REMARK    7  A    between atoms: C_20  and  N_21
REMARK    8  A    between atoms: C_31  and  C_32
REMARK                            x       y       z     vdW  Elec       q    Type
REMARK                         _______ _______ _______ _____ _____    ______ ____
ROOT
ATOM      1  N   UNL     1       2.310   7.548  19.300  0.00  0.00    +0.000 N 
ATOM      2  C   UNL     1       1.587   7.889  20.495  0.00  0.00    +0.000 C 
ATOM      3  C   UNL     1       0.894   9.152  20.185  0.00  0.00    +0.000 A 
ATOM      4  C   UNL     1       1.183   9.572  18.899  0.00  0.00    +0.000 A 
ATOM      5  C   UNL     1       0.681  10.800  18.435  0.00  0.00    +0.000 A 
ATOM      6  C   UNL     1      -0.191  11.550  19.280  0.00  0.00    +0.000 A 
ATOM      7  C   UNL     1      -0.503  11.027  20.566  0.00  0.00    +0.000 A 
ATOM      8  C   UNL     1       0.081   9.857  21.061  0.00  0.00    +0.000 A 
ATOM      9  C   UNL     1       2.126   8.538  18.312  0.00  0.00    +0.000 C 
ATOM     10  O   UNL     1       2.605   8.614  17.199  0.00  0.00    +0.000 OA
ENDROOT
BRANCH   1  15
ATOM     11  C   UNL     1       5.346   5.361  18.814  0.00  0.00    +0.000 A 
ATOM     12  C   UNL     1       4.841   4.140  19.276  0.00  0.00    +0.000 A 
ATOM     13  C   UNL     1       3.527   4.026  19.767  0.00  0.00    +0.000 A 
ATOM     14  C   UNL     1       2.650   5.132  19.798  0.00  0.00    +0.000 A 
ATOM     15  C   UNL     1       3.096   6.357  19.337  0.00  0.00    +0.000 A 
ATOM     16  C   UNL     1       4.436   6.427  18.864  0.00  0.00    +0.000 A 
BRANCH  11  17
ATOM     17  C   UNL     1       6.856   5.599  18.266  0.00  0.00    +0.000 C 
ATOM     18  C   UNL     1       7.910   5.959  19.350  0.00  0.00    +0.000 C 
ATOM     19  O   UNL     1       8.200   7.234  18.751  0.00  0.00    +0.000 OA
ATOM     20  C   UNL     1       7.229   7.010  17.708  0.00  0.00    +0.000 C 
BRANCH  17  21
ATOM     21  C   UNL     1       7.304   4.447  17.339  0.00  0.00    +0.000 C 
BRANCH  21  27
ATOM     22  C   UNL     1       4.628   3.554  15.898  0.00  0.00    +0.000 C 
ATOM     23  N   UNL     1       5.770   4.190  15.299  0.00  0.00    +0.000 N 
ATOM     24  C   UNL     1       5.900   4.465  13.971  0.00  0.00    +0.000 A 
ATOM     25  N   UNL     1       7.054   5.046  13.756  0.00  0.00    +0.000 NA
ATOM     26  N   UNL     1       7.699   5.144  14.963  0.00  0.00    +0.000 NA
ATOM     27  C   UNL     1       6.930   4.620  15.899  0.00  0.00    +0.000 A 
ENDBRANCH  21  27
ENDBRANCH  17  21
ENDBRANCH  11  17
ENDBRANCH   1  15
BRANCH   8  28
ATOM     28  C   UNL     1      -0.096   9.434  22.499  0.00  0.00    +0.000 C 
ATOM     29  F   UNL     1      -0.773   8.264  22.648  0.00  0.00    +0.000 F 
ATOM     30  F   UNL     1       1.099   9.242  23.124  0.00  0.00    +0.000 F 
ATOM     31  F   UNL     1      -0.778  10.350  23.240  0.00  0.00    +0.000 F 
ENDBRANCH   8  28
BRANCH   6  32
ATOM     32  C   UNL     1      -0.665  12.994  19.026  0.00  0.00    +0.000 C 
BRANCH  32  33
ATOM     33  N   UNL     1       0.347  14.041  18.889  0.00  0.00    +0.000 NA
ATOM     34  C   UNL     1       1.362  14.139  19.946  0.00  0.00    +0.000 C 
ATOM     35  C   UNL     1       2.109  15.428  19.553  0.00  0.00    +0.000 C 
ATOM     36  C   UNL     1       1.135  16.188  18.656  0.00  0.00    +0.000 C 
ATOM     37  C   UNL     1      -0.176  15.425  18.832  0.00  0.00    +0.000 C 
ATOM     38  C   UNL     1      -0.899  15.907  20.107  0.00  0.00    +0.000 C 
ATOM     39  C   UNL     1      -0.275  15.437  21.424  0.00  0.00    +0.000 C 
ATOM     40  F   UNL     1       0.389  16.499  21.974  0.00  0.00    +0.000 F 
ATOM     41  C   UNL     1       0.712  14.275  21.331  0.00  0.00    +0.000 C 
ENDBRANCH  32  33
ENDBRANCH   6  32
TORSDOF 7
ENDMDL
MODEL 2
REMARK VINA RESULT:      -9.8      0.626      1.484
REMARK  Name = 
REMARK  8 active torsions:
REMARK  status: ('A' for Active; 'I' for Inactive)
REMARK    1  A    between atoms: C_1  and  N_2
REMARK    2  A    between atoms: C_6  and  C_7
REMARK    3  A    between atoms: C_7  and  C_8
REMARK    4  A    between atoms: C_8  and  C_9
REMARK    5  A    between atoms: C_13  and  N_14
REMARK    6  A    between atoms: C_19  and  C_20
REMARK    7  A    between atoms: C_20  and  N_21
REMARK    8  A    between atoms: C_31  and  C_32
REMARK                            x       y       z     vdW  Elec       q    Type
REMARK                         _______ _______ _______ _____ _____    ______ ____
ROOT
ATOM      1  N   UNL     1       2.301   7.564  19.325  0.00  0.00    +0.000 N 
ATOM      2  C   UNL     1       1.577   7.894  20.523  0.00  0.00    +0.000 C 
ATOM      3  C   UNL     1       0.890   9.165  20.226  0.00  0.00    +0.000 A 
ATOM      4  C   UNL     1       1.185   9.598  18.945  0.00  0.00    +0.000 A 
ATOM      5  C   UNL     1       0.690  10.834  18.494  0.00  0.00    +0.000 A 
ATOM      6  C   UNL     1      -0.180  11.578  19.347  0.00  0.00    +0.000 A 
ATOM      7  C   UNL     1      -0.497  11.042  20.625  0.00  0.00    +0.000 A 
ATOM      8  C   UNL     1       0.080   9.864  21.109  0.00  0.00    +0.000 A 
ATOM      9  C   UNL     1       2.124   8.566  18.348  0.00  0.00    +0.000 C 
ATOM     10  O   UNL     1       2.606   8.653  17.237  0.00  0.00    +0.000 OA
ENDROOT
BRANCH   1  15
ATOM     11  C   UNL     1       5.324   5.365  18.811  0.00  0.00    +0.000 A 
ATOM     12  C   UNL     1       4.814   4.144  19.265  0.00  0.00    +0.000 A 
ATOM     13  C   UNL     1       3.501   4.032  19.760  0.00  0.00    +0.000 A 
ATOM     14  C   UNL     1       2.631   5.142  19.803  0.00  0.00    +0.000 A 
ATOM     15  C   UNL     1       3.081   6.369  19.350  0.00  0.00    +0.000 A 
ATOM     16  C   UNL     1       4.419   6.435  18.872  0.00  0.00    +0.000 A 
BRANCH  11  17
ATOM     17  C   UNL     1       6.833   5.600  18.259  0.00  0.00    +0.000 C 
ATOM     18  C   UNL     1       7.888   5.965  19.339  0.00  0.00    +0.000 C 
ATOM     19  O   UNL     1       8.178   7.237  18.732  0.00  0.00    +0.000 OA
ATOM     20  C   UNL     1       7.206   7.008  17.693  0.00  0.00    +0.000 C 
BRANCH  17  21
ATOM     21  C   UNL     1       7.280   4.443  17.337  0.00  0.00    +0.000 C 
BRANCH  21  27
ATOM     22  C   UNL     1       4.623   3.540  15.864  0.00  0.00    +0.000 C 
ATOM     23  N   UNL     1       5.769   4.184  15.279  0.00  0.00    +0.000 N 
ATOM     24  C   UNL     1       5.913   4.463  13.953  0.00  0.00    +0.000 A 
ATOM     25  N   UNL     1       7.065   5.051  13.753  0.00  0.00    +0.000 NA
ATOM     26  N   UNL     1       7.697   5.149  14.967  0.00  0.00    +0.000 NA
ATOM     27  C   UNL     1       6.921   4.618  15.893  0.00  0.00    +0.000 A 
ENDBRANCH  21  27
ENDBRANCH  17  21
ENDBRANCH  11  17
ENDBRANCH   1  15
BRANCH   8  28
ATOM     28  C   UNL     1      -0.103   9.425  22.541  0.00  0.00    +0.000 C 
ATOM     29  F   UNL     1       1.065   9.244  23.214  0.00  0.00    +0.000 F 
ATOM     30  F   UNL     1      -0.801  10.342  23.268  0.00  0.00    +0.000 F 
ATOM     31  F   UNL     1      -0.777   8.248  22.652  0.00  0.00    +0.000 F 
ENDBRANCH   8  28
BRANCH   6  32
ATOM     32  C   UNL     1      -0.647  13.027  19.109  0.00  0.00    +0.000 C 
BRANCH  32  33
ATOM     33  N   UNL     1      -0.478  13.996  20.192  0.00  0.00    +0.000 NA
ATOM     34  C   UNL     1      -0.899  15.379  19.930  0.00  0.00    +0.000 C 
ATOM     35  C   UNL     1      -0.410  16.106  21.198  0.00  0.00    +0.000 C 
ATOM     36  C   UNL     1       0.670  15.198  21.779  0.00  0.00    +0.000 C 
ATOM     37  C   UNL     1       0.912  14.179  20.668  0.00  0.00    +0.000 C 
ATOM     38  C   UNL     1       1.892  14.758  19.627  0.00  0.00    +0.000 C 
ATOM     39  C   UNL     1       1.305  15.839  18.714  0.00  0.00    +0.000 C 
ATOM     40  F   UNL     1       1.786  17.048  19.135  0.00  0.00    +0.000 F 
ATOM     41  C   UNL     1      -0.218  15.938  18.672  0.00  0.00    +0.000 C 
ENDBRANCH  32  33
ENDBRANCH   6  32
TORSDOF 7
ENDMDL
MODEL 3
REMARK VINA RESULT:      -9.4      1.514      2.417
REMARK  Name = 
REMARK  8 active torsions:
REMARK  status: ('A' for Active; 'I' for Inactive)
REMARK    1  A    between atoms: C_1  and  N_2
REMARK    2  A    between atoms: C_6  and  C_7
REMARK    3  A    between atoms: C_7  and  C_8
REMARK    4  A    between atoms: C_8  and  C_9
REMARK    5  A    between atoms: C_13  and  N_14
REMARK    6  A    between atoms: C_19  and  C_20
REMARK    7  A    between atoms: C_20  and  N_21
REMARK    8  A    between atoms: C_31  and  C_32
REMARK                            x       y       z     vdW  Elec       q    Type
REMARK                         _______ _______ _______ _____ _____    ______ ____
ROOT
ATOM      1  N   UNL     1       2.220   7.487  19.189  0.00  0.00    +0.000 N 
ATOM      2  C   UNL     1       1.555   7.840  20.413  0.00  0.00    +0.000 C 
ATOM      3  C   UNL     1       1.003   9.187  20.184  0.00  0.00    +0.000 A 
ATOM      4  C   UNL     1       1.322   9.642  18.916  0.00  0.00    +0.000 A 
ATOM      5  C   UNL     1       0.954  10.942  18.527  0.00  0.00    +0.000 A 
ATOM      6  C   UNL     1       0.182  11.737  19.428  0.00  0.00    +0.000 A 
ATOM      7  C   UNL     1      -0.170  11.182  20.689  0.00  0.00    +0.000 A 
ATOM      8  C   UNL     1       0.286   9.929  21.111  0.00  0.00    +0.000 A 
ATOM      9  C   UNL     1       2.135   8.543  18.258  0.00  0.00    +0.000 C 
ATOM     10  O   UNL     1       2.606   8.627  17.142  0.00  0.00    +0.000 OA
ENDROOT
BRANCH   1  15
ATOM     11  C   UNL     1       4.504   4.781  17.885  0.00  0.00    +0.000 A 
ATOM     12  C   UNL     1       4.253   3.778  18.828  0.00  0.00    +0.000 A 
ATOM     13  C   UNL     1       3.364   3.981  19.900  0.00  0.00    +0.000 A 
ATOM     14  C   UNL     1       2.668   5.198  20.063  0.00  0.00    +0.000 A 
ATOM     15  C   UNL     1       2.869   6.216  19.148  0.00  0.00    +0.000 A 
ATOM     16  C   UNL     1       3.787   5.969  18.090  0.00  0.00    +0.000 A 
BRANCH  11  17
ATOM     17  C   UNL     1       5.539   4.654  16.640  0.00  0.00    +0.000 C 
ATOM     18  C   UNL     1       5.263   5.609  15.445  0.00  0.00    +0.000 C 
ATOM     19  O   UNL     1       5.059   4.520  14.527  0.00  0.00    +0.000 OA
ATOM     20  C   UNL     1       5.278   3.548  15.568  0.00  0.00    +0.000 C 
BRANCH  17  21
ATOM     21  C   UNL     1       7.006   4.691  17.124  0.00  0.00    +0.000 C 
BRANCH  21  27
ATOM     22  C   UNL     1       8.054   5.703  19.938  0.00  0.00    +0.000 C 
ATOM     23  N   UNL     1       7.930   6.468  18.727  0.00  0.00    +0.000 N 
ATOM     24  C   UNL     1       8.202   7.799  18.616  0.00  0.00    +0.000 A 
ATOM     25  N   UNL     1       7.990   8.187  17.384  0.00  0.00    +0.000 NA
ATOM     26  N   UNL     1       7.558   7.095  16.674  0.00  0.00    +0.000 NA
ATOM     27  C   UNL     1       7.513   6.053  17.483  0.00  0.00    +0.000 A 
ENDBRANCH  21  27
ENDBRANCH  17  21
ENDBRANCH  11  17
ENDBRANCH   1  15
BRANCH   8  28
ATOM     28  C   UNL     1       0.080   9.451  22.527  0.00  0.00    +0.000 C 
ATOM     29  F   UNL     1       1.233   9.127  23.172  0.00  0.00    +0.000 F 
ATOM     30  F   UNL     1      -0.513  10.401  23.304  0.00  0.00    +0.000 F 
ATOM     31  F   UNL     1      -0.707   8.343  22.603  0.00  0.00    +0.000 F 
ENDBRANCH   8  28
BRANCH   6  32
ATOM     32  C   UNL     1      -0.131  13.236  19.259  0.00  0.00    +0.000 C 
BRANCH  32  33
ATOM     33  N   UNL     1       0.963  14.134  18.890  0.00  0.00    +0.000 NA
ATOM     34  C   UNL     1       2.162  14.121  19.740  0.00  0.00    +0.000 C 
ATOM     35  C   UNL     1       2.980  15.288  19.156  0.00  0.00    +0.000 C 
ATOM     36  C   UNL     1       1.961  16.150  18.416  0.00  0.00    +0.000 C 
ATOM     37  C   UNL     1       0.619  15.574  18.863  0.00  0.00    +0.000 C 
ATOM     38  C   UNL     1       0.213  16.179  20.223  0.00  0.00    +0.000 C 
ATOM     39  C   UNL     1       1.007  15.661  21.426  0.00  0.00    +0.000 C 
ATOM     40  F   UNL     1       1.892  16.636  21.794  0.00  0.00    +0.000 F 
ATOM     41  C   UNL     1       1.803  14.375  21.211  0.00  0.00    +0.000 C 
ENDBRANCH  32  33
ENDBRANCH   6  32
TORSDOF 7
ENDMDL
MODEL 4
REMARK VINA RESULT:      -9.4      1.551      2.716
REMARK  Name = 
REMARK  8 active torsions:
REMARK  status: ('A' for Active; 'I' for Inactive)
REMARK    1  A    between atoms: C_1  and  N_2
REMARK    2  A    between atoms: C_6  and  C_7
REMARK    3  A    between atoms: C_7  and  C_8
REMARK    4  A    between atoms: C_8  and  C_9
REMARK    5  A    between atoms: C_13  and  N_14
REMARK    6  A    between atoms: C_19  and  C_20
REMARK    7  A    between atoms: C_20  and  N_21
REMARK    8  A    between atoms: C_31  and  C_32
REMARK                            x       y       z     vdW  Elec       q    Type
REMARK                         _______ _______ _______ _____ _____    ______ ____
ROOT
ATOM      1  N   UNL     1       2.268   7.447  19.163  0.00  0.00    +0.000 N 
ATOM      2  C   UNL     1       1.586   7.812  20.375  0.00  0.00    +0.000 C 
ATOM      3  C   UNL     1       1.019   9.148  20.117  0.00  0.00    +0.000 A 
ATOM      4  C   UNL     1       1.344   9.585  18.845  0.00  0.00    +0.000 A 
ATOM      5  C   UNL     1       0.963  10.873  18.429  0.00  0.00    +0.000 A 
ATOM      6  C   UNL     1       0.172  11.673  19.308  0.00  0.00    +0.000 A 
ATOM      7  C   UNL     1      -0.185  11.135  20.576  0.00  0.00    +0.000 A 
ATOM      8  C   UNL     1       0.284   9.896  21.024  0.00  0.00    +0.000 A 
ATOM      9  C   UNL     1       2.178   8.486  18.213  0.00  0.00    +0.000 C 
ATOM     10  O   UNL     1       2.659   8.557  17.100  0.00  0.00    +0.000 OA
ENDROOT
BRANCH   1  15
ATOM     11  C   UNL     1       4.570   4.734  17.906  0.00  0.00    +0.000 A 
ATOM     12  C   UNL     1       4.347   3.756  18.883  0.00  0.00    +0.000 A 
ATOM     13  C   UNL     1       3.472   3.980  19.962  0.00  0.00    +0.000 A 
ATOM     14  C   UNL     1       2.762   5.192  20.099  0.00  0.00    +0.000 A 
ATOM     15  C   UNL     1       2.934   6.184  19.150  0.00  0.00    +0.000 A 
ATOM     16  C   UNL     1       3.839   5.917  18.086  0.00  0.00    +0.000 A 
BRANCH  11  17
ATOM     17  C   UNL     1       5.587   4.583  16.649  0.00  0.00    +0.000 C 
ATOM     18  C   UNL     1       5.280   5.498  15.431  0.00  0.00    +0.000 C 
ATOM     19  O   UNL     1       5.077   4.379  14.549  0.00  0.00    +0.000 OA
ATOM     20  C   UNL     1       5.325   3.441  15.615  0.00  0.00    +0.000 C 
BRANCH  17  21
ATOM     21  C   UNL     1       7.061   4.654  17.109  0.00  0.00    +0.000 C 
BRANCH  21  27
ATOM     22  C   UNL     1       8.043   5.699  19.934  0.00  0.00    +0.000 C 
ATOM     23  N   UNL     1       7.928   6.455  18.716  0.00  0.00    +0.000 N 
ATOM     24  C   UNL     1       8.181   7.790  18.602  0.00  0.00    +0.000 A 
ATOM     25  N   UNL     1       7.984   8.167  17.363  0.00  0.00    +0.000 NA
ATOM     26  N   UNL     1       7.582   7.063  16.653  0.00  0.00    +0.000 NA
ATOM     27  C   UNL     1       7.539   6.026  17.468  0.00  0.00    +0.000 A 
ENDBRANCH  21  27
ENDBRANCH  17  21
ENDBRANCH  11  17
ENDBRANCH   1  15
BRANCH   8  28
ATOM     28  C   UNL     1       0.070   9.440  22.446  0.00  0.00    +0.000 C 
ATOM     29  F   UNL     1       1.217   9.094  23.091  0.00  0.00    +0.000 F 
ATOM     30  F   UNL     1      -0.495  10.414  23.214  0.00  0.00    +0.000 F 
ATOM     31  F   UNL     1      -0.745   8.353  22.537  0.00  0.00    +0.000 F 
ENDBRANCH   8  28
BRANCH   6  32
ATOM     32  C   UNL     1      -0.159  13.164  19.111  0.00  0.00    +0.000 C 
BRANCH  32  33
ATOM     33  N   UNL     1      -0.058  14.055  20.267  0.00  0.00    +0.000 NA
ATOM     34  C   UNL     1      -0.777  15.334  20.197  0.00  0.00    +0.000 C 
ATOM     35  C   UNL     1      -0.294  16.042  21.477  0.00  0.00    +0.000 C 
ATOM     36  C   UNL     1       1.010  15.340  21.846  0.00  0.00    +0.000 C 
ATOM     37  C   UNL     1       1.314  14.490  20.614  0.00  0.00    +0.000 C 
ATOM     38  C   UNL     1       2.023  15.346  19.545  0.00  0.00    +0.000 C 
ATOM     39  C   UNL     1       1.123  16.348  18.816  0.00  0.00    +0.000 C 
ATOM     40  F   UNL     1       1.398  17.594  19.311  0.00  0.00    +0.000 F 
ATOM     41  C   UNL     1      -0.383  16.126  18.941  0.00  0.00    +0.000 C 
ENDBRANCH  32  33
ENDBRANCH   6  32
TORSDOF 7
ENDMDL
MODEL 5
REMARK VINA RESULT:      -9.4      0.667      1.106
REMARK  Name = 
REMARK  8 active torsions:
REMARK  status: ('A' for Active; 'I' for Inactive)
REMARK    1  A    between atoms: C_1  and  N_2
REMARK    2  A    between atoms: C_6  and  C_7
REMARK    3  A    between atoms: C_7  and  C_8
REMARK    4  A    between atoms: C_8  and  C_9
REMARK    5  A    between atoms: C_13  and  N_14
REMARK    6  A    between atoms: C_19  and  C_20
REMARK    7  A    between atoms: C_20  and  N_21
REMARK    8  A    between atoms: C_31  and  C_32
REMARK                            x       y       z     vdW  Elec       q    Type
REMARK                         _______ _______ _______ _____ _____    ______ ____
ROOT
ATOM      1  N   UNL     1       2.289   7.669  19.287  0.00  0.00    +0.000 N 
ATOM      2  C   UNL     1       1.591   7.989  20.502  0.00  0.00    +0.000 C 
ATOM      3  C   UNL     1       0.960   9.298  20.256  0.00  0.00    +0.000 A 
ATOM      4  C   UNL     1       1.263   9.763  18.988  0.00  0.00    +0.000 A 
ATOM      5  C   UNL     1       0.820  11.035  18.585  0.00  0.00    +0.000 A 
ATOM      6  C   UNL     1      -0.008  11.787  19.472  0.00  0.00    +0.000 A 
ATOM      7  C   UNL     1      -0.339  11.220  20.734  0.00  0.00    +0.000 A 
ATOM      8  C   UNL     1       0.189  10.001  21.170  0.00  0.00    +0.000 A 
ATOM      9  C   UNL     1       2.150   8.712  18.347  0.00  0.00    +0.000 C 
ATOM     10  O   UNL     1       2.626   8.816  17.235  0.00  0.00    +0.000 OA
ENDROOT
BRANCH   1  15
ATOM     11  C   UNL     1       5.228   5.368  18.729  0.00  0.00    +0.000 A 
ATOM     12  C   UNL     1       4.651   4.147  19.094  0.00  0.00    +0.000 A 
ATOM     13  C   UNL     1       3.319   4.066  19.543  0.00  0.00    +0.000 A 
ATOM     14  C   UNL     1       2.497   5.211  19.627  0.00  0.00    +0.000 A 
ATOM     15  C   UNL     1       3.015   6.440  19.262  0.00  0.00    +0.000 A 
ATOM     16  C   UNL     1       4.369   6.473  18.828  0.00  0.00    +0.000 A 
BRANCH  11  17
ATOM     17  C   UNL     1       6.763   5.566  18.237  0.00  0.00    +0.000 C 
ATOM     18  C   UNL     1       7.785   5.897  19.359  0.00  0.00    +0.000 C 
ATOM     19  O   UNL     1       8.131   7.164  18.772  0.00  0.00    +0.000 OA
ATOM     20  C   UNL     1       7.193   6.967  17.694  0.00  0.00    +0.000 C 
BRANCH  17  21
ATOM     21  C   UNL     1       7.213   4.402  17.325  0.00  0.00    +0.000 C 
BRANCH  21  27
ATOM     22  C   UNL     1       4.618   3.456  15.774  0.00  0.00    +0.000 C 
ATOM     23  N   UNL     1       5.764   4.128  15.225  0.00  0.00    +0.000 N 
ATOM     24  C   UNL     1       5.938   4.421  13.906  0.00  0.00    +0.000 A 
ATOM     25  N   UNL     1       7.083   5.035  13.742  0.00  0.00    +0.000 NA
ATOM     26  N   UNL     1       7.680   5.136  14.974  0.00  0.00    +0.000 NA
ATOM     27  C   UNL     1       6.890   4.582  15.874  0.00  0.00    +0.000 A 
ENDBRANCH  21  27
ENDBRANCH  17  21
ENDBRANCH  11  17
ENDBRANCH   1  15
BRANCH   8  28
ATOM     28  C   UNL     1      -0.003   9.521  22.588  0.00  0.00    +0.000 C 
ATOM     29  F   UNL     1      -0.640  10.416  23.390  0.00  0.00    +0.000 F 
ATOM     30  F   UNL     1      -0.755   8.386  22.643  0.00  0.00    +0.000 F 
ATOM     31  F   UNL     1       1.172   9.237  23.214  0.00  0.00    +0.000 F 
ENDBRANCH   8  28
BRANCH   6  32
ATOM     32  C   UNL     1      -0.411  13.263  19.289  0.00  0.00    +0.000 C 
BRANCH  32  33
ATOM     33  N   UNL     1       0.469  14.294  19.838  0.00  0.00    +0.000 NA
ATOM     34  C   UNL     1       0.022  14.980  21.058  0.00  0.00    +0.000 C 
ATOM     35  C   UNL     1       1.090  16.079  21.215  0.00  0.00    +0.000 C 
ATOM     36  C   UNL     1       1.701  16.235  19.825  0.00  0.00    +0.000 C 
ATOM     37  C   UNL     1       0.758  15.429  18.933  0.00  0.00    +0.000 C 
ATOM     38  C   UNL     1      -0.463  16.288  18.545  0.00  0.00    +0.000 C 
ATOM     39  C   UNL     1      -1.479  16.516  19.668  0.00  0.00    +0.000 C 
ATOM     40  F   UNL     1      -1.321  17.797  20.120  0.00  0.00    +0.000 F 
ATOM     41  C   UNL     1      -1.377  15.586  20.875  0.00  0.00    +0.000 C 
ENDBRANCH  32  33
ENDBRANCH   6  32
TORSDOF 7
ENDMDL
MODEL 6
REMARK VINA RESULT:      -9.3      1.542      2.511
REMARK  Name = 
REMARK  8 active torsions:
REMARK  status: ('A' for Active; 'I' for Inactive)
REMARK    1  A    between atoms: C_1  and  N_2
REMARK    2  A    between atoms: C_6  and  C_7
REMARK    3  A    between atoms: C_7  and  C_8
REMARK    4  A    between atoms: C_8  and  C_9
REMARK    5  A    between atoms: C_13  and  N_14
REMARK    6  A    between atoms: C_19  and  C_20
REMARK    7  A    between atoms: C_20  and  N_21
REMARK    8  A    between atoms: C_31  and  C_32
REMARK                            x       y       z     vdW  Elec       q    Type
REMARK                         _______ _______ _______ _____ _____    ______ ____
ROOT
ATOM      1  N   UNL     1       2.206   7.500  19.189  0.00  0.00    +0.000 N 
ATOM      2  C   UNL     1       1.540   7.859  20.411  0.00  0.00    +0.000 C 
ATOM      3  C   UNL     1       0.972   9.197  20.168  0.00  0.00    +0.000 A 
ATOM      4  C   UNL     1       1.283   9.642  18.895  0.00  0.00    +0.000 A 
ATOM      5  C   UNL     1       0.900  10.933  18.492  0.00  0.00    +0.000 A 
ATOM      6  C   UNL     1       0.121  11.729  19.385  0.00  0.00    +0.000 A 
ATOM      7  C   UNL     1      -0.223  11.184  20.653  0.00  0.00    +0.000 A 
ATOM      8  C   UNL     1       0.249   9.942  21.088  0.00  0.00    +0.000 A 
ATOM      9  C   UNL     1       2.108   8.545  18.246  0.00  0.00    +0.000 C 
ATOM     10  O   UNL     1       2.575   8.622  17.128  0.00  0.00    +0.000 OA
ENDROOT
BRANCH   1  15
ATOM     11  C   UNL     1       4.515   4.804  17.907  0.00  0.00    +0.000 A 
ATOM     12  C   UNL     1       4.281   3.811  18.864  0.00  0.00    +0.000 A 
ATOM     13  C   UNL     1       3.395   4.017  19.938  0.00  0.00    +0.000 A 
ATOM     14  C   UNL     1       2.686   5.229  20.089  0.00  0.00    +0.000 A 
ATOM     15  C   UNL     1       2.870   6.236  19.160  0.00  0.00    +0.000 A 
ATOM     16  C   UNL     1       3.785   5.986  18.101  0.00  0.00    +0.000 A 
BRANCH  11  17
ATOM     17  C   UNL     1       5.544   4.674  16.657  0.00  0.00    +0.000 C 
ATOM     18  C   UNL     1       5.266   5.627  15.463  0.00  0.00    +0.000 C 
ATOM     19  O   UNL     1       5.056   4.538  14.547  0.00  0.00    +0.000 OA
ATOM     20  C   UNL     1       5.276   3.566  15.588  0.00  0.00    +0.000 C 
BRANCH  17  21
ATOM     21  C   UNL     1       7.014   4.707  17.135  0.00  0.00    +0.000 C 
BRANCH  21  27
ATOM     22  C   UNL     1       8.081   5.720  19.941  0.00  0.00    +0.000 C 
ATOM     23  N   UNL     1       7.951   6.485  18.731  0.00  0.00    +0.000 N 
ATOM     24  C   UNL     1       8.225   7.815  18.616  0.00  0.00    +0.000 A 
ATOM     25  N   UNL     1       8.006   8.202  17.385  0.00  0.00    +0.000 NA
ATOM     26  N   UNL     1       7.567   7.110  16.679  0.00  0.00    +0.000 NA
ATOM     27  C   UNL     1       7.525   6.070  17.490  0.00  0.00    +0.000 A 
ENDBRANCH  21  27
ENDBRANCH  17  21
ENDBRANCH  11  17
ENDBRANCH   1  15
BRANCH   8  28
ATOM     28  C   UNL     1       0.051   9.476  22.510  0.00  0.00    +0.000 C 
ATOM     29  F   UNL     1      -0.562  10.392  23.308  0.00  0.00    +0.000 F 
ATOM     30  F   UNL     1      -0.728   8.360  22.576  0.00  0.00    +0.000 F 
ATOM     31  F   UNL     1       1.221   9.169  23.134  0.00  0.00    +0.000 F 
ENDBRANCH   8  28
BRANCH   6  32
ATOM     32  C   UNL     1      -0.210  13.222  19.201  0.00  0.00    +0.000 C 
BRANCH  32  33
ATOM     33  N   UNL     1       0.731  14.210  19.728  0.00  0.00    +0.000 NA
ATOM     34  C   UNL     1       0.395  14.844  21.010  0.00  0.00    +0.000 C 
ATOM     35  C   UNL     1       1.494  15.915  21.135  0.00  0.00    +0.000 C 
ATOM     36  C   UNL     1       1.999  16.127  19.710  0.00  0.00    +0.000 C 
ATOM     37  C   UNL     1       0.975  15.383  18.858  0.00  0.00    +0.000 C 
ATOM     38  C   UNL     1      -0.254  16.281  18.606  0.00  0.00    +0.000 C 
ATOM     39  C   UNL     1      -1.176  16.472  19.814  0.00  0.00    +0.000 C 
ATOM     40  F   UNL     1      -0.956  17.727  20.313  0.00  0.00    +0.000 F 
ATOM     41  C   UNL     1      -1.001  15.483  20.965  0.00  0.00    +0.000 C 
ENDBRANCH  32  33
ENDBRANCH   6  32
TORSDOF 7
ENDMDL
MODEL 7
REMARK VINA RESULT:      -9.1      1.156      1.471
REMARK  Name = 
REMARK  8 active torsions:
REMARK  status: ('A' for Active; 'I' for Inactive)
REMARK    1  A    between atoms: C_1  and  N_2
REMARK    2  A    between atoms: C_6  and  C_7
REMARK    3  A    between atoms: C_7  and  C_8
REMARK    4  A    between atoms: C_8  and  C_9
REMARK    5  A    between atoms: C_13  and  N_14
REMARK    6  A    between atoms: C_19  and  C_20
REMARK    7  A    between atoms: C_20  and  N_21
REMARK    8  A    between atoms: C_31  and  C_32
REMARK                            x       y       z     vdW  Elec       q    Type
REMARK                         _______ _______ _______ _____ _____    ______ ____
ROOT
ATOM      1  N   UNL     1       2.113   7.617  18.913  0.00  0.00    +0.000 N 
ATOM      2  C   UNL     1       1.446   7.883  20.157  0.00  0.00    +0.000 C 
ATOM      3  C   UNL     1       1.038   9.298  20.087  0.00  0.00    +0.000 A 
ATOM      4  C   UNL     1       1.442   9.870  18.894  0.00  0.00    +0.000 A 
ATOM      5  C   UNL     1       1.219  11.239  18.663  0.00  0.00    +0.000 A 
ATOM      6  C   UNL     1       0.499  11.991  19.639  0.00  0.00    +0.000 A 
ATOM      7  C   UNL     1       0.052  11.325  20.813  0.00  0.00    +0.000 A 
ATOM      8  C   UNL     1       0.367   9.990  21.085  0.00  0.00    +0.000 A 
ATOM      9  C   UNL     1       2.165   8.783  18.120  0.00  0.00    +0.000 C 
ATOM     10  O   UNL     1       2.679   8.954  17.033  0.00  0.00    +0.000 OA
ENDROOT
BRANCH   1  15
ATOM     11  C   UNL     1       4.557   4.960  17.813  0.00  0.00    +0.000 A 
ATOM     12  C   UNL     1       3.863   3.813  18.214  0.00  0.00    +0.000 A 
ATOM     13  C   UNL     1       2.616   3.895  18.862  0.00  0.00    +0.000 A 
ATOM     14  C   UNL     1       1.997   5.138  19.119  0.00  0.00    +0.000 A 
ATOM     15  C   UNL     1       2.635   6.301  18.726  0.00  0.00    +0.000 A 
ATOM     16  C   UNL     1       3.898   6.167  18.088  0.00  0.00    +0.000 A 
BRANCH  11  17
ATOM     17  C   UNL     1       6.013   4.967  17.095  0.00  0.00    +0.000 C 
ATOM     18  C   UNL     1       7.225   4.749  18.044  0.00  0.00    +0.000 C 
ATOM     19  O   UNL     1       7.797   6.030  17.727  0.00  0.00    +0.000 OA
ATOM     20  C   UNL     1       6.707   6.343  16.837  0.00  0.00    +0.000 C 
BRANCH  17  21
ATOM     21  C   UNL     1       6.033   4.040  15.858  0.00  0.00    +0.000 C 
BRANCH  21  27
ATOM     22  C   UNL     1       5.486   3.429  12.798  0.00  0.00    +0.000 C 
ATOM     23  N   UNL     1       6.497   4.291  13.347  0.00  0.00    +0.000 N 
ATOM     24  C   UNL     1       7.436   4.955  12.616  0.00  0.00    +0.000 A 
ATOM     25  N   UNL     1       8.202   5.652  13.417  0.00  0.00    +0.000 NA
ATOM     26  N   UNL     1       7.766   5.434  14.700  0.00  0.00    +0.000 NA
ATOM     27  C   UNL     1       6.740   4.605  14.664  0.00  0.00    +0.000 A 
ENDBRANCH  21  27
ENDBRANCH  17  21
ENDBRANCH  11  17
ENDBRANCH   1  15
BRANCH   8  28
ATOM     28  C   UNL     1       0.067   9.365  22.425  0.00  0.00    +0.000 C 
ATOM     29  F   UNL     1       1.176   8.973  23.109  0.00  0.00    +0.000 F 
ATOM     30  F   UNL     1      -0.582  10.229  23.255  0.00  0.00    +0.000 F 
ATOM     31  F   UNL     1      -0.718   8.257  22.329  0.00  0.00    +0.000 F 
ENDBRANCH   8  28
BRANCH   6  32
ATOM     32  C   UNL     1       0.342  13.524  19.653  0.00  0.00    +0.000 C 
BRANCH  32  33
ATOM     33  N   UNL     1       1.405  14.335  19.060  0.00  0.00    +0.000 NA
ATOM     34  C   UNL     1       2.679  14.411  19.787  0.00  0.00    +0.000 C 
ATOM     35  C   UNL     1       3.451  15.465  18.969  0.00  0.00    +0.000 C 
ATOM     36  C   UNL     1       2.375  16.239  18.213  0.00  0.00    +0.000 C 
ATOM     37  C   UNL     1       1.076  15.765  18.861  0.00  0.00    +0.000 C 
ATOM     38  C   UNL     1       0.810  16.564  20.154  0.00  0.00    +0.000 C 
ATOM     39  C   UNL     1       1.710  16.200  21.338  0.00  0.00    +0.000 C 
ATOM     40  F   UNL     1       2.637  17.196  21.480  0.00  0.00    +0.000 F 
ATOM     41  C   UNL     1       2.467  14.878  21.235  0.00  0.00    +0.000 C 
ENDBRANCH  32  33
ENDBRANCH   6  32
TORSDOF 7
ENDMDL
MODEL 8
REMARK VINA RESULT:      -9.0      4.641     11.538
REMARK  Name = 
REMARK  8 active torsions:
REMARK  status: ('A' for Active; 'I' for Inactive)
REMARK    1  A    between atoms: C_1  and  N_2
REMARK    2  A    between atoms: C_6  and  C_7
REMARK    3  A    between atoms: C_7  and  C_8
REMARK    4  A    between atoms: C_8  and  C_9
REMARK    5  A    between atoms: C_13  and  N_14
REMARK    6  A    between atoms: C_19  and  C_20
REMARK    7  A    between atoms: C_20  and  N_21
REMARK    8  A    between atoms: C_31  and  C_32
REMARK                            x       y       z     vdW  Elec       q    Type
REMARK                         _______ _______ _______ _____ _____    ______ ____
ROOT
ATOM      1  N   UNL     1       0.153  11.297  21.573  0.00  0.00    +0.000 N 
ATOM      2  C   UNL     1       0.614  11.015  20.241  0.00  0.00    +0.000 C 
ATOM      3  C   UNL     1       0.954   9.580  20.241  0.00  0.00    +0.000 A 
ATOM      4  C   UNL     1       0.737   9.022  21.488  0.00  0.00    +0.000 A 
ATOM      5  C   UNL     1       1.074   7.677  21.720  0.00  0.00    +0.000 A 
ATOM      6  C   UNL     1       1.558   6.892  20.631  0.00  0.00    +0.000 A 
ATOM      7  C   UNL     1       1.692   7.511  19.357  0.00  0.00    +0.000 A 
ATOM      8  C   UNL     1       1.454   8.874  19.157  0.00  0.00    +0.000 A 
ATOM      9  C   UNL     1       0.228  10.141  22.378  0.00  0.00    +0.000 C 
ATOM     10  O   UNL     1      -0.035  10.003  23.555  0.00  0.00    +0.000 OA
ENDROOT
BRANCH   1  15
ATOM     11  C   UNL     1      -1.872  14.106  23.074  0.00  0.00    +0.000 A 
ATOM     12  C   UNL     1      -1.195  15.206  22.535  0.00  0.00    +0.000 A 
ATOM     13  C   UNL     1      -0.070  15.044  21.705  0.00  0.00    +0.000 A 
ATOM     14  C   UNL     1       0.417  13.765  21.361  0.00  0.00    +0.000 A 
ATOM     15  C   UNL     1      -0.227  12.645  21.854  0.00  0.00    +0.000 A 
ATOM     16  C   UNL     1      -1.350  12.858  22.700  0.00  0.00    +0.000 A 
BRANCH  11  17
ATOM     17  C   UNL     1      -3.152  14.192  24.069  0.00  0.00    +0.000 C 
ATOM     18  C   UNL     1      -4.104  15.396  23.827  0.00  0.00    +0.000 C 
ATOM     19  O   UNL     1      -3.881  15.932  25.143  0.00  0.00    +0.000 OA
ATOM     20  C   UNL     1      -2.963  14.868  25.465  0.00  0.00    +0.000 C 
BRANCH  17  21
ATOM     21  C   UNL     1      -3.891  12.837  24.150  0.00  0.00    +0.000 C 
BRANCH  21  27
ATOM     22  C   UNL     1      -4.756  12.792  21.103  0.00  0.00    +0.000 C 
ATOM     23  N   UNL     1      -5.617  12.859  22.252  0.00  0.00    +0.000 N 
ATOM     24  C   UNL     1      -6.975  12.971  22.203  0.00  0.00    +0.000 A 
ATOM     25  N   UNL     1      -7.455  13.005  23.421  0.00  0.00    +0.000 NA
ATOM     26  N   UNL     1      -6.393  12.926  24.287  0.00  0.00    +0.000 NA
ATOM     27  C   UNL     1      -5.278  12.846  23.586  0.00  0.00    +0.000 A 
ENDBRANCH  21  27
ENDBRANCH  17  21
ENDBRANCH  11  17
ENDBRANCH   1  15
BRANCH   8  28
ATOM     28  C   UNL     1       1.804   9.554  17.856  0.00  0.00    +0.000 C 
ATOM     29  F   UNL     1       2.561  10.674  18.007  0.00  0.00    +0.000 F 
ATOM     30  F   UNL     1       2.525   8.739  17.035  0.00  0.00    +0.000 F 
ATOM     31  F   UNL     1       0.708   9.944  17.150  0.00  0.00    +0.000 F 
ENDBRANCH   8  28
BRANCH   6  32
ATOM     32  C   UNL     1       2.164   5.480  20.741  0.00  0.00    +0.000 C 
BRANCH  32  33
ATOM     33  N   UNL     1       1.667   4.441  19.840  0.00  0.00    +0.000 NA
ATOM     34  C   UNL     1       1.568   3.076  20.374  0.00  0.00    +0.000 C 
ATOM     35  C   UNL     1       1.194   2.267  19.117  0.00  0.00    +0.000 C 
ATOM     36  C   UNL     1       1.631   3.141  17.944  0.00  0.00    +0.000 C 
ATOM     37  C   UNL     1       2.464   4.235  18.608  0.00  0.00    +0.000 C 
ATOM     38  C   UNL     1       3.906   3.735  18.835  0.00  0.00    +0.000 C 
ATOM     39  C   UNL     1       4.068   2.715  19.966  0.00  0.00    +0.000 C 
ATOM     40  F   UNL     1       4.238   1.483  19.396  0.00  0.00    +0.000 F 
ATOM     41  C   UNL     1       2.910   2.608  20.956  0.00  0.00    +0.000 C 
ENDBRANCH  32  33
ENDBRANCH   6  32
TORSDOF 7
ENDMDL
MODEL 9
REMARK VINA RESULT:      -9.0      4.628     11.541
REMARK  Name = 
REMARK  8 active torsions:
REMARK  status: ('A' for Active; 'I' for Inactive)
REMARK    1  A    between atoms: C_1  and  N_2
REMARK    2  A    between atoms: C_6  and  C_7
REMARK    3  A    between atoms: C_7  and  C_8
REMARK    4  A    between atoms: C_8  and  C_9
REMARK    5  A    between atoms: C_13  and  N_14
REMARK    6  A    between atoms: C_19  and  C_20
REMARK    7  A    between atoms: C_20  and  N_21
REMARK    8  A    between atoms: C_31  and  C_32
REMARK                            x       y       z     vdW  Elec       q    Type
REMARK                         _______ _______ _______ _____ _____    ______ ____
ROOT
ATOM      1  N   UNL     1       0.047  11.471  21.636  0.00  0.00    +0.000 N 
ATOM      2  C   UNL     1       0.524  11.195  20.308  0.00  0.00    +0.000 C 
ATOM      3  C   UNL     1       0.853   9.758  20.302  0.00  0.00    +0.000 A 
ATOM      4  C   UNL     1       0.615   9.192  21.542  0.00  0.00    +0.000 A 
ATOM      5  C   UNL     1       0.940   7.842  21.768  0.00  0.00    +0.000 A 
ATOM      6  C   UNL     1       1.433   7.063  20.679  0.00  0.00    +0.000 A 
ATOM      7  C   UNL     1       1.589   7.690  19.412  0.00  0.00    +0.000 A 
ATOM      8  C   UNL     1       1.364   9.057  19.219  0.00  0.00    +0.000 A 
ATOM      9  C   UNL     1       0.102  10.308  22.433  0.00  0.00    +0.000 C 
ATOM     10  O   UNL     1      -0.178  10.163  23.605  0.00  0.00    +0.000 OA
ENDROOT
BRANCH   1  15
ATOM     11  C   UNL     1      -2.179  14.308  22.749  0.00  0.00    +0.000 A 
ATOM     12  C   UNL     1      -1.317  15.389  22.535  0.00  0.00    +0.000 A 
ATOM     13  C   UNL     1      -0.008  15.203  22.054  0.00  0.00    +0.000 A 
ATOM     14  C   UNL     1       0.491  13.919  21.745  0.00  0.00    +0.000 A 
ATOM     15  C   UNL     1      -0.328  12.819  21.922  0.00  0.00    +0.000 A 
ATOM     16  C   UNL     1      -1.637  13.055  22.424  0.00  0.00    +0.000 A 
BRANCH  11  17
ATOM     17  C   UNL     1      -3.689  14.419  23.336  0.00  0.00    +0.000 C 
ATOM     18  C   UNL     1      -4.621  15.416  22.592  0.00  0.00    +0.000 C 
ATOM     19  O   UNL     1      -4.815  16.224  23.767  0.00  0.00    +0.000 OA
ATOM     20  C   UNL     1      -3.948  15.374  24.544  0.00  0.00    +0.000 C 
BRANCH  17  21
ATOM     21  C   UNL     1      -4.321  13.021  23.527  0.00  0.00    +0.000 C 
BRANCH  21  27
ATOM     22  C   UNL     1      -7.405  13.328  24.183  0.00  0.00    +0.000 C 
ATOM     23  N   UNL     1      -6.818  12.847  22.962  0.00  0.00    +0.000 N 
ATOM     24  C   UNL     1      -7.519  12.385  21.889  0.00  0.00    +0.000 A 
ATOM     25  N   UNL     1      -6.687  12.027  20.944  0.00  0.00    +0.000 NA
ATOM     26  N   UNL     1      -5.414  12.244  21.408  0.00  0.00    +0.000 NA
ATOM     27  C   UNL     1      -5.487  12.733  22.632  0.00  0.00    +0.000 A 
ENDBRANCH  21  27
ENDBRANCH  17  21
ENDBRANCH  11  17
ENDBRANCH   1  15
BRANCH   8  28
ATOM     28  C   UNL     1       1.736   9.744  17.929  0.00  0.00    +0.000 C 
ATOM     29  F   UNL     1       2.350   8.928  17.029  0.00  0.00    +0.000 F 
ATOM     30  F   UNL     1       0.643  10.237  17.281  0.00  0.00    +0.000 F 
ATOM     31  F   UNL     1       2.584  10.793  18.113  0.00  0.00    +0.000 F 
ENDBRANCH   8  28
BRANCH   6  32
ATOM     32  C   UNL     1       2.027   5.645  20.787  0.00  0.00    +0.000 C 
BRANCH  32  33
ATOM     33  N   UNL     1       1.548   4.621  19.859  0.00  0.00    +0.000 NA
ATOM     34  C   UNL     1       1.383   3.260  20.385  0.00  0.00    +0.000 C 
ATOM     35  C   UNL     1       1.051   2.462  19.109  0.00  0.00    +0.000 C 
ATOM     36  C   UNL     1       1.574   3.324  17.962  0.00  0.00    +0.000 C 
ATOM     37  C   UNL     1       2.402   4.393  18.671  0.00  0.00    +0.000 C 
ATOM     38  C   UNL     1       3.815   3.852  18.971  0.00  0.00    +0.000 C 
ATOM     39  C   UNL     1       3.889   2.828  20.107  0.00  0.00    +0.000 C 
ATOM     40  F   UNL     1       4.054   1.591  19.545  0.00  0.00    +0.000 F 
ATOM     41  C   UNL     1       2.679   2.753  21.035  0.00  0.00    +0.000 C 
ENDBRANCH  32  33
ENDBRANCH   6  32
TORSDOF 7
ENDMDL
