MODEL 1
REMARK VINA RESULT:      -9.7      0.000      0.000
REMARK  Name = 
REMARK  8 active torsions:
REMARK  status: ('A' for Active; 'I' for Inactive)
REMARK    1  A    between atoms: C_1  and  N_2
REMARK    2  A    between atoms: C_6  and  C_7
REMARK    3  A    between atoms: C_7  and  C_8
REMARK    4  A    between atoms: C_8  and  C_9
REMARK    5  A    between atoms: C_13  and  N_14
REMARK    6  A    between atoms: C_19  and  C_20
REMARK    7  A    between atoms: C_20  and  N_21
REMARK    8  A    between atoms: C_28  and  C_29
REMARK                            x       y       z     vdW  Elec       q    Type
REMARK                         _______ _______ _______ _____ _____    ______ ____
ROOT
ATOM      1  N   UNL     1       2.377   7.265  19.349  0.00  0.00    +0.000 N 
ATOM      2  C   UNL     1       1.596   7.615  20.522  0.00  0.00    +0.000 C 
ATOM      3  C   UNL     1       1.023   8.937  20.197  0.00  0.00    +0.000 A 
ATOM      4  C   UNL     1       1.333   9.271  18.884  0.00  0.00    +0.000 A 
ATOM      5  C   UNL     1       0.845  10.431  18.315  0.00  0.00    +0.000 A 
ATOM      6  C   UNL     1       0.019  11.263  19.105  0.00  0.00    +0.000 A 
ATOM      7  C   UNL     1      -0.234  10.925  20.457  0.00  0.00    +0.000 A 
ATOM      8  C   UNL     1       0.278   9.758  21.032  0.00  0.00    +0.000 A 
ATOM      9  C   UNL     1       2.235   8.211  18.338  0.00  0.00    +0.000 C 
ATOM     10  O   UNL     1       2.726   8.269  17.221  0.00  0.00    +0.000 OA
ENDROOT
BRANCH   1  15
ATOM     11  C   UNL     1       5.480   5.225  18.865  0.00  0.00    +0.000 A 
ATOM     12  C   UNL     1       5.022   3.973  19.293  0.00  0.00    +0.000 A 
ATOM     13  C   UNL     1       3.715   3.798  19.781  0.00  0.00    +0.000 A 
ATOM     14  C   UNL     1       2.810   4.870  19.837  0.00  0.00    +0.000 A 
ATOM     15  C   UNL     1       3.220   6.128  19.420  0.00  0.00    +0.000 A 
ATOM     16  C   UNL     1       4.552   6.268  18.985  0.00  0.00    +0.000 A 
BRANCH  11  17
ATOM     17  C   UNL     1       6.955   5.536  18.283  0.00  0.00    +0.000 C 
ATOM     18  C   UNL     1       8.010   5.932  19.351  0.00  0.00    +0.000 C 
ATOM     19  O   UNL     1       8.221   7.231  18.769  0.00  0.00    +0.000 OA
ATOM     20  C   UNL     1       7.235   6.978  17.747  0.00  0.00    +0.000 C 
BRANCH  17  21
ATOM     21  C   UNL     1       7.433   4.423  17.308  0.00  0.00    +0.000 C 
BRANCH  21  27
ATOM     22  C   UNL     1       4.697   3.481  15.936  0.00  0.00    +0.000 C 
ATOM     23  N   UNL     1       5.797   4.180  15.331  0.00  0.00    +0.000 N 
ATOM     24  C   UNL     1       5.840   4.539  14.013  0.00  0.00    +0.000 A 
ATOM     25  N   UNL     1       6.990   5.111  13.752  0.00  0.00    +0.000 NA
ATOM     26  N   UNL     1       7.718   5.124  14.914  0.00  0.00    +0.000 NA
ATOM     27  C   UNL     1       6.992   4.594  15.879  0.00  0.00    +0.000 A 
ENDBRANCH  21  27
ENDBRANCH  17  21
ENDBRANCH  11  17
ENDBRANCH   1  15
BRANCH   8  28
ATOM     28  C   UNL     1       0.048   9.441  22.488  0.00  0.00    +0.000 C 
ATOM     29  F   UNL     1      -0.549  10.443  23.187  0.00  0.00    +0.000 F 
ATOM     30  F   UNL     1      -0.742   8.345  22.656  0.00  0.00    +0.000 F 
ATOM     31  F   UNL     1       1.206   9.177  23.152  0.00  0.00    +0.000 F 
ENDBRANCH   8  28
BRANCH   6  32
ATOM     32  C   UNL     1      -0.631  12.506  18.530  0.00  0.00    +0.000 C 
BRANCH  32  33
ATOM     33  N   UNL     1      -1.942  12.243  17.924  0.00  0.00    +0.000 NA
ATOM     34  C   UNL     1      -3.032  12.182  18.916  0.00  0.00    +0.000 C 
ATOM     35  C   UNL     1      -3.850  10.985  18.566  0.00  0.00    +0.000 C 
ATOM     36  C   UNL     1      -4.542  10.836  17.235  0.00  0.00    +0.000 C 
ATOM     37  C   UNL     1      -3.168  10.261  17.472  0.00  0.00    +0.000 C 
ATOM     38  C   UNL     1      -1.924  11.006  17.119  0.00  0.00    +0.000 C 
ENDBRANCH  32  33
ENDBRANCH   6  32
TORSDOF 7
ENDMDL
MODEL 2
REMARK VINA RESULT:      -9.5      1.287      2.501
REMARK  Name = 
REMARK  8 active torsions:
REMARK  status: ('A' for Active; 'I' for Inactive)
REMARK    1  A    between atoms: C_1  and  N_2
REMARK    2  A    between atoms: C_6  and  C_7
REMARK    3  A    between atoms: C_7  and  C_8
REMARK    4  A    between atoms: C_8  and  C_9
REMARK    5  A    between atoms: C_13  and  N_14
REMARK    6  A    between atoms: C_19  and  C_20
REMARK    7  A    between atoms: C_20  and  N_21
REMARK    8  A    between atoms: C_28  and  C_29
REMARK                            x       y       z     vdW  Elec       q    Type
REMARK                         _______ _______ _______ _____ _____    ______ ____
ROOT
ATOM      1  N   UNL     1       2.361   7.341  19.326  0.00  0.00    +0.000 N 
ATOM      2  C   UNL     1       1.603   7.723  20.505  0.00  0.00    +0.000 C 
ATOM      3  C   UNL     1       1.019   9.034  20.153  0.00  0.00    +0.000 A 
ATOM      4  C   UNL     1       1.301   9.330  18.824  0.00  0.00    +0.000 A 
ATOM      5  C   UNL     1       0.798  10.472  18.232  0.00  0.00    +0.000 A 
ATOM      6  C   UNL     1      -0.014  11.324  19.014  0.00  0.00    +0.000 A 
ATOM      7  C   UNL     1      -0.239  11.026  20.381  0.00  0.00    +0.000 A 
ATOM      8  C   UNL     1       0.288   9.877  20.978  0.00  0.00    +0.000 A 
ATOM      9  C   UNL     1       2.195   8.257  18.292  0.00  0.00    +0.000 C 
ATOM     10  O   UNL     1       2.663   8.283  17.164  0.00  0.00    +0.000 OA
ENDROOT
BRANCH   1  15
ATOM     11  C   UNL     1       5.465   5.302  18.855  0.00  0.00    +0.000 A 
ATOM     12  C   UNL     1       5.016   4.057  19.314  0.00  0.00    +0.000 A 
ATOM     13  C   UNL     1       3.715   3.889  19.820  0.00  0.00    +0.000 A 
ATOM     14  C   UNL     1       2.807   4.959  19.862  0.00  0.00    +0.000 A 
ATOM     15  C   UNL     1       3.208   6.208  19.413  0.00  0.00    +0.000 A 
ATOM     16  C   UNL     1       4.535   6.343  18.962  0.00  0.00    +0.000 A 
BRANCH  11  17
ATOM     17  C   UNL     1       6.933   5.604  18.251  0.00  0.00    +0.000 C 
ATOM     18  C   UNL     1       7.996   6.034  19.299  0.00  0.00    +0.000 C 
ATOM     19  O   UNL     1       8.195   7.318  18.680  0.00  0.00    +0.000 OA
ATOM     20  C   UNL     1       7.200   7.033  17.675  0.00  0.00    +0.000 C 
BRANCH  17  21
ATOM     21  C   UNL     1       7.408   4.468  17.301  0.00  0.00    +0.000 C 
BRANCH  21  27
ATOM     22  C   UNL     1       4.672   3.536  15.923  0.00  0.00    +0.000 C 
ATOM     23  N   UNL     1       5.787   4.209  15.315  0.00  0.00    +0.000 N 
ATOM     24  C   UNL     1       5.846   4.542  13.991  0.00  0.00    +0.000 A 
ATOM     25  N   UNL     1       7.006   5.094  13.728  0.00  0.00    +0.000 NA
ATOM     26  N   UNL     1       7.724   5.119  14.897  0.00  0.00    +0.000 NA
ATOM     27  C   UNL     1       6.983   4.618  15.866  0.00  0.00    +0.000 A 
ENDBRANCH  21  27
ENDBRANCH  17  21
ENDBRANCH  11  17
ENDBRANCH   1  15
BRANCH   8  28
ATOM     28  C   UNL     1       0.089   9.602  22.447  0.00  0.00    +0.000 C 
ATOM     29  F   UNL     1       1.232   9.287  23.113  0.00  0.00    +0.000 F 
ATOM     30  F   UNL     1      -0.442  10.672  23.102  0.00  0.00    +0.000 F 
ATOM     31  F   UNL     1      -0.759   8.563  22.673  0.00  0.00    +0.000 F 
ENDBRANCH   8  28
BRANCH   6  32
ATOM     32  C   UNL     1      -0.680  12.549  18.416  0.00  0.00    +0.000 C 
BRANCH  32  33
ATOM     33  N   UNL     1       0.087  13.782  18.628  0.00  0.00    +0.000 NA
ATOM     34  C   UNL     1       1.543  13.581  18.506  0.00  0.00    +0.000 C 
ATOM     35  C   UNL     1       2.162  14.295  19.660  0.00  0.00    +0.000 C 
ATOM     36  C   UNL     1       2.003  15.778  19.877  0.00  0.00    +0.000 C 
ATOM     37  C   UNL     1       1.078  14.786  20.537  0.00  0.00    +0.000 C 
ATOM     38  C   UNL     1      -0.229  14.395  19.933  0.00  0.00    +0.000 C 
ENDBRANCH  32  33
ENDBRANCH   6  32
TORSDOF 7
ENDMDL
MODEL 3
REMARK VINA RESULT:      -9.5      1.438      2.514
REMARK  Name = 
REMARK  8 active torsions:
REMARK  status: ('A' for Active; 'I' for Inactive)
REMARK    1  A    between atoms: C_1  and  N_2
REMARK    2  A    between atoms: C_6  and  C_7
REMARK    3  A    between atoms: C_7  and  C_8
REMARK    4  A    between atoms: C_8  and  C_9
REMARK    5  A    between atoms: C_13  and  N_14
REMARK    6  A    between atoms: C_19  and  C_20
REMARK    7  A    between atoms: C_20  and  N_21
REMARK    8  A    between atoms: C_28  and  C_29
REMARK                            x       y       z     vdW  Elec       q    Type
REMARK                         _______ _______ _______ _____ _____    ______ ____
ROOT
ATOM      1  N   UNL     1       2.357   7.392  19.347  0.00  0.00    +0.000 N 
ATOM      2  C   UNL     1       1.562   7.728  20.515  0.00  0.00    +0.000 C 
ATOM      3  C   UNL     1       1.050   9.084  20.230  0.00  0.00    +0.000 A 
ATOM      4  C   UNL     1       1.405   9.456  18.937  0.00  0.00    +0.000 A 
ATOM      5  C   UNL     1       0.978  10.655  18.404  0.00  0.00    +0.000 A 
ATOM      6  C   UNL     1       0.168  11.489  19.206  0.00  0.00    +0.000 A 
ATOM      7  C   UNL     1      -0.132  11.111  20.539  0.00  0.00    +0.000 A 
ATOM      8  C   UNL     1       0.318   9.902  21.078  0.00  0.00    +0.000 A 
ATOM      9  C   UNL     1       2.277   8.381  18.372  0.00  0.00    +0.000 C 
ATOM     10  O   UNL     1       2.798   8.461  17.269  0.00  0.00    +0.000 OA
ENDROOT
BRANCH   1  15
ATOM     11  C   UNL     1       5.381   5.243  18.843  0.00  0.00    +0.000 A 
ATOM     12  C   UNL     1       4.866   3.997  19.221  0.00  0.00    +0.000 A 
ATOM     13  C   UNL     1       3.545   3.860  19.682  0.00  0.00    +0.000 A 
ATOM     14  C   UNL     1       2.684   4.966  19.760  0.00  0.00    +0.000 A 
ATOM     15  C   UNL     1       3.151   6.219  19.393  0.00  0.00    +0.000 A 
ATOM     16  C   UNL     1       4.495   6.318  18.984  0.00  0.00    +0.000 A 
BRANCH  11  17
ATOM     17  C   UNL     1       6.878   5.512  18.294  0.00  0.00    +0.000 C 
ATOM     18  C   UNL     1       7.920   5.873  19.387  0.00  0.00    +0.000 C 
ATOM     19  O   UNL     1       8.183   7.167  18.815  0.00  0.00    +0.000 OA
ATOM     20  C   UNL     1       7.212   6.947  17.771  0.00  0.00    +0.000 C 
BRANCH  17  21
ATOM     21  C   UNL     1       7.344   4.388  17.326  0.00  0.00    +0.000 C 
BRANCH  21  27
ATOM     22  C   UNL     1       4.628   3.516  15.869  0.00  0.00    +0.000 C 
ATOM     23  N   UNL     1       5.760   4.197  15.302  0.00  0.00    +0.000 N 
ATOM     24  C   UNL     1       5.847   4.567  13.989  0.00  0.00    +0.000 A 
ATOM     25  N   UNL     1       7.015   5.118  13.765  0.00  0.00    +0.000 NA
ATOM     26  N   UNL     1       7.711   5.105  14.947  0.00  0.00    +0.000 NA
ATOM     27  C   UNL     1       6.947   4.582  15.887  0.00  0.00    +0.000 A 
ENDBRANCH  21  27
ENDBRANCH  17  21
ENDBRANCH  11  17
ENDBRANCH   1  15
BRANCH   8  28
ATOM     28  C   UNL     1       0.041   9.539  22.515  0.00  0.00    +0.000 C 
ATOM     29  F   UNL     1      -0.778   8.465  22.669  0.00  0.00    +0.000 F 
ATOM     30  F   UNL     1       1.181   9.241  23.198  0.00  0.00    +0.000 F 
ATOM     31  F   UNL     1      -0.556  10.551  23.201  0.00  0.00    +0.000 F 
ENDBRANCH   8  28
BRANCH   6  32
ATOM     32  C   UNL     1      -0.418  12.779  18.667  0.00  0.00    +0.000 C 
BRANCH  32  33
ATOM     33  N   UNL     1       0.126  13.976  19.318  0.00  0.00    +0.000 NA
ATOM     34  C   UNL     1      -0.622  15.203  18.983  0.00  0.00    +0.000 C 
ATOM     35  C   UNL     1       0.400  16.244  18.672  0.00  0.00    +0.000 C 
ATOM     36  C   UNL     1       1.432  16.694  19.674  0.00  0.00    +0.000 C 
ATOM     37  C   UNL     1       1.732  15.603  18.677  0.00  0.00    +0.000 C 
ATOM     38  C   UNL     1       1.557  14.158  19.004  0.00  0.00    +0.000 C 
ENDBRANCH  32  33
ENDBRANCH   6  32
TORSDOF 7
ENDMDL
MODEL 4
REMARK VINA RESULT:      -9.2      2.442      8.958
REMARK  Name = 
REMARK  8 active torsions:
REMARK  status: ('A' for Active; 'I' for Inactive)
REMARK    1  A    between atoms: C_1  and  N_2
REMARK    2  A    between atoms: C_6  and  C_7
REMARK    3  A    between atoms: C_7  and  C_8
REMARK    4  A    between atoms: C_8  and  C_9
REMARK    5  A    between atoms: C_13  and  N_14
REMARK    6  A    between atoms: C_19  and  C_20
REMARK    7  A    between atoms: C_20  and  N_21
REMARK    8  A    between atoms: C_28  and  C_29
REMARK                            x       y       z     vdW  Elec       q    Type
REMARK                         _______ _______ _______ _____ _____    ______ ____
ROOT
ATOM      1  N   UNL     1       1.293   8.107  20.392  0.00  0.00    +0.000 N 
ATOM      2  C   UNL     1       1.405   6.766  20.938  0.00  0.00    +0.000 C 
ATOM      3  C   UNL     1       2.130   6.008  19.898  0.00  0.00    +0.000 A 
ATOM      4  C   UNL     1       2.531   6.871  18.884  0.00  0.00    +0.000 A 
ATOM      5  C   UNL     1       3.295   6.416  17.828  0.00  0.00    +0.000 A 
ATOM      6  C   UNL     1       3.660   5.051  17.811  0.00  0.00    +0.000 A 
ATOM      7  C   UNL     1       3.191   4.182  18.828  0.00  0.00    +0.000 A 
ATOM      8  C   UNL     1       2.403   4.648  19.885  0.00  0.00    +0.000 A 
ATOM      9  C   UNL     1       1.966   8.223  19.179  0.00  0.00    +0.000 C 
ATOM     10  O   UNL     1       2.098   9.176  18.426  0.00  0.00    +0.000 OA
ENDROOT
BRANCH   1  15
ATOM     11  C   UNL     1      -0.926  11.092  20.815  0.00  0.00    +0.000 A 
ATOM     12  C   UNL     1      -1.062  11.104  22.209  0.00  0.00    +0.000 A 
ATOM     13  C   UNL     1      -0.468  10.115  23.011  0.00  0.00    +0.000 A 
ATOM     14  C   UNL     1       0.305   9.088  22.447  0.00  0.00    +0.000 A 
ATOM     15  C   UNL     1       0.470   9.040  21.070  0.00  0.00    +0.000 A 
ATOM     16  C   UNL     1      -0.184  10.022  20.302  0.00  0.00    +0.000 A 
BRANCH  11  17
ATOM     17  C   UNL     1      -1.560  12.180  19.802  0.00  0.00    +0.000 C 
ATOM     18  C   UNL     1      -0.597  12.675  18.689  0.00  0.00    +0.000 C 
ATOM     19  O   UNL     1      -0.650  14.039  19.145  0.00  0.00    +0.000 OA
ATOM     20  C   UNL     1      -1.524  13.682  20.236  0.00  0.00    +0.000 C 
BRANCH  17  21
ATOM     21  C   UNL     1      -2.953  11.733  19.277  0.00  0.00    +0.000 C 
BRANCH  21  27
ATOM     22  C   UNL     1      -5.220  12.088  17.043  0.00  0.00    +0.000 C 
ATOM     23  N   UNL     1      -3.963  11.401  16.930  0.00  0.00    +0.000 N 
ATOM     24  C   UNL     1      -3.549  10.751  15.801  0.00  0.00    +0.000 A 
ATOM     25  N   UNL     1      -2.391  10.180  16.023  0.00  0.00    +0.000 NA
ATOM     26  N   UNL     1      -2.039  10.451  17.321  0.00  0.00    +0.000 NA
ATOM     27  C   UNL     1      -2.967  11.216  17.864  0.00  0.00    +0.000 A 
ENDBRANCH  21  27
ENDBRANCH  17  21
ENDBRANCH  11  17
ENDBRANCH   1  15
BRANCH   8  28
ATOM     28  C   UNL     1       1.863   3.702  20.929  0.00  0.00    +0.000 C 
ATOM     29  F   UNL     1       2.264   3.986  22.196  0.00  0.00    +0.000 F 
ATOM     30  F   UNL     1       0.501   3.696  20.960  0.00  0.00    +0.000 F 
ATOM     31  F   UNL     1       2.241   2.414  20.709  0.00  0.00    +0.000 F 
ENDBRANCH   8  28
BRANCH   6  32
ATOM     32  C   UNL     1       4.572   4.489  16.738  0.00  0.00    +0.000 C 
BRANCH  32  33
ATOM     33  N   UNL     1       5.864   5.181  16.659  0.00  0.00    +0.000 NA
ATOM     34  C   UNL     1       6.673   5.027  17.884  0.00  0.00    +0.000 C 
ATOM     35  C   UNL     1       7.204   6.383  18.207  0.00  0.00    +0.000 C 
ATOM     36  C   UNL     1       8.092   7.153  17.263  0.00  0.00    +0.000 C 
ATOM     37  C   UNL     1       6.597   7.354  17.272  0.00  0.00    +0.000 C 
ATOM     38  C   UNL     1       5.690   6.613  16.348  0.00  0.00    +0.000 C 
ENDBRANCH  32  33
ENDBRANCH   6  32
TORSDOF 7
ENDMDL
MODEL 5
REMARK VINA RESULT:      -9.1      1.649      2.687
REMARK  Name = 
REMARK  8 active torsions:
REMARK  status: ('A' for Active; 'I' for Inactive)
REMARK    1  A    between atoms: C_1  and  N_2
REMARK    2  A    between atoms: C_6  and  C_7
REMARK    3  A    between atoms: C_7  and  C_8
REMARK    4  A    between atoms: C_8  and  C_9
REMARK    5  A    between atoms: C_13  and  N_14
REMARK    6  A    between atoms: C_19  and  C_20
REMARK    7  A    between atoms: C_20  and  N_21
REMARK    8  A    between atoms: C_28  and  C_29
REMARK                            x       y       z     vdW  Elec       q    Type
REMARK                         _______ _______ _______ _____ _____    ______ ____
ROOT
ATOM      1  N   UNL     1       2.035   7.591  19.528  0.00  0.00    +0.000 N 
ATOM      2  C   UNL     1       1.258   7.925  20.708  0.00  0.00    +0.000 C 
ATOM      3  C   UNL     1       0.772   9.295  20.448  0.00  0.00    +0.000 A 
ATOM      4  C   UNL     1       1.124   9.680  19.159  0.00  0.00    +0.000 A 
ATOM      5  C   UNL     1       0.717  10.897  18.648  0.00  0.00    +0.000 A 
ATOM      6  C   UNL     1      -0.069  11.734  19.471  0.00  0.00    +0.000 A 
ATOM      7  C   UNL     1      -0.366  11.341  20.800  0.00  0.00    +0.000 A 
ATOM      8  C   UNL     1       0.064  10.115  21.316  0.00  0.00    +0.000 A 
ATOM      9  C   UNL     1       1.968   8.597  18.569  0.00  0.00    +0.000 C 
ATOM     10  O   UNL     1       2.481   8.684  17.463  0.00  0.00    +0.000 OA
ENDROOT
BRANCH   1  15
ATOM     11  C   UNL     1       4.960   5.354  18.847  0.00  0.00    +0.000 A 
ATOM     12  C   UNL     1       4.452   4.134  19.311  0.00  0.00    +0.000 A 
ATOM     13  C   UNL     1       3.173   4.045  19.887  0.00  0.00    +0.000 A 
ATOM     14  C   UNL     1       2.345   5.173  19.998  0.00  0.00    +0.000 A 
ATOM     15  C   UNL     1       2.806   6.401  19.548  0.00  0.00    +0.000 A 
ATOM     16  C   UNL     1       4.112   6.454  19.024  0.00  0.00    +0.000 A 
BRANCH  11  17
ATOM     17  C   UNL     1       6.409   5.567  18.165  0.00  0.00    +0.000 C 
ATOM     18  C   UNL     1       7.286   4.289  18.079  0.00  0.00    +0.000 C 
ATOM     19  O   UNL     1       8.320   4.852  18.907  0.00  0.00    +0.000 OA
ATOM     20  C   UNL     1       7.573   6.074  19.078  0.00  0.00    +0.000 C 
BRANCH  17  21
ATOM     21  C   UNL     1       6.304   6.351  16.826  0.00  0.00    +0.000 C 
BRANCH  21  27
ATOM     22  C   UNL     1       4.352   4.059  15.732  0.00  0.00    +0.000 C 
ATOM     23  N   UNL     1       5.573   4.540  15.145  0.00  0.00    +0.000 N 
ATOM     24  C   UNL     1       6.108   4.045  13.989  0.00  0.00    +0.000 A 
ATOM     25  N   UNL     1       7.246   4.647  13.740  0.00  0.00    +0.000 NA
ATOM     26  N   UNL     1       7.466   5.547  14.750  0.00  0.00    +0.000 NA
ATOM     27  C   UNL     1       6.445   5.513  15.584  0.00  0.00    +0.000 A 
ENDBRANCH  21  27
ENDBRANCH  17  21
ENDBRANCH  11  17
ENDBRANCH   1  15
BRANCH   8  28
ATOM     28  C   UNL     1      -0.209   9.735  22.750  0.00  0.00    +0.000 C 
ATOM     29  F   UNL     1       0.910   9.485  23.481  0.00  0.00    +0.000 F 
ATOM     30  F   UNL     1      -0.883  10.710  23.420  0.00  0.00    +0.000 F 
ATOM     31  F   UNL     1      -0.968   8.611  22.855  0.00  0.00    +0.000 F 
ENDBRANCH   8  28
BRANCH   6  32
ATOM     32  C   UNL     1      -0.633  13.045  18.957  0.00  0.00    +0.000 C 
BRANCH  32  33
ATOM     33  N   UNL     1       0.026  14.222  19.536  0.00  0.00    +0.000 NA
ATOM     34  C   UNL     1      -0.753  15.462  19.355  0.00  0.00    +0.000 C 
ATOM     35  C   UNL     1       0.217  16.502  18.902  0.00  0.00    +0.000 C 
ATOM     36  C   UNL     1       1.405  16.919  19.730  0.00  0.00    +0.000 C 
ATOM     37  C   UNL     1       1.523  15.849  18.674  0.00  0.00    +0.000 C 
ATOM     38  C   UNL     1       1.387  14.398  18.994  0.00  0.00    +0.000 C 
ENDBRANCH  32  33
ENDBRANCH   6  32
TORSDOF 7
ENDMDL
MODEL 6
REMARK VINA RESULT:      -9.1      1.532      2.434
REMARK  Name = 
REMARK  8 active torsions:
REMARK  status: ('A' for Active; 'I' for Inactive)
REMARK    1  A    between atoms: C_1  and  N_2
REMARK    2  A    between atoms: C_6  and  C_7
REMARK    3  A    between atoms: C_7  and  C_8
REMARK    4  A    between atoms: C_8  and  C_9
REMARK    5  A    between atoms: C_13  and  N_14
REMARK    6  A    between atoms: C_19  and  C_20
REMARK    7  A    between atoms: C_20  and  N_21
REMARK    8  A    between atoms: C_28  and  C_29
REMARK                            x       y       z     vdW  Elec       q    Type
REMARK                         _______ _______ _______ _____ _____    ______ ____
ROOT
ATOM      1  N   UNL     1       2.339   7.223  19.157  0.00  0.00    +0.000 N 
ATOM      2  C   UNL     1       1.606   7.554  20.366  0.00  0.00    +0.000 C 
ATOM      3  C   UNL     1       1.167   8.948  20.156  0.00  0.00    +0.000 A 
ATOM      4  C   UNL     1       1.499   9.355  18.868  0.00  0.00    +0.000 A 
ATOM      5  C   UNL     1       1.126  10.599  18.401  0.00  0.00    +0.000 A 
ATOM      6  C   UNL     1       0.395  11.443  19.266  0.00  0.00    +0.000 A 
ATOM      7  C   UNL     1       0.118  11.025  20.592  0.00  0.00    +0.000 A 
ATOM      8  C   UNL     1       0.515   9.770  21.064  0.00  0.00    +0.000 A 
ATOM      9  C   UNL     1       2.285   8.257  18.227  0.00  0.00    +0.000 C 
ATOM     10  O   UNL     1       2.771   8.354  17.110  0.00  0.00    +0.000 OA
ENDROOT
BRANCH   1  15
ATOM     11  C   UNL     1       4.713   4.646  17.836  0.00  0.00    +0.000 A 
ATOM     12  C   UNL     1       4.483   3.608  18.747  0.00  0.00    +0.000 A 
ATOM     13  C   UNL     1       3.587   3.759  19.820  0.00  0.00    +0.000 A 
ATOM     14  C   UNL     1       2.870   4.951  20.005  0.00  0.00    +0.000 A 
ATOM     15  C   UNL     1       3.063   6.005  19.124  0.00  0.00    +0.000 A 
ATOM     16  C   UNL     1       4.007   5.828  18.095  0.00  0.00    +0.000 A 
BRANCH  11  17
ATOM     17  C   UNL     1       5.714   4.578  16.569  0.00  0.00    +0.000 C 
ATOM     18  C   UNL     1       5.314   5.481  15.371  0.00  0.00    +0.000 C 
ATOM     19  O   UNL     1       5.163   4.360  14.480  0.00  0.00    +0.000 OA
ATOM     20  C   UNL     1       5.492   3.429  15.531  0.00  0.00    +0.000 C 
BRANCH  17  21
ATOM     21  C   UNL     1       7.199   4.726  17.002  0.00  0.00    +0.000 C 
BRANCH  21  27
ATOM     22  C   UNL     1       8.027   5.699  19.939  0.00  0.00    +0.000 C 
ATOM     23  N   UNL     1       7.956   6.478  18.733  0.00  0.00    +0.000 N 
ATOM     24  C   UNL     1       8.225   7.817  18.674  0.00  0.00    +0.000 A 
ATOM     25  N   UNL     1       8.022   8.252  17.455  0.00  0.00    +0.000 NA
ATOM     26  N   UNL     1       7.607   7.185  16.700  0.00  0.00    +0.000 NA
ATOM     27  C   UNL     1       7.597   6.104  17.456  0.00  0.00    +0.000 A 
ENDBRANCH  21  27
ENDBRANCH  17  21
ENDBRANCH  11  17
ENDBRANCH   1  15
BRANCH   8  28
ATOM     28  C   UNL     1       0.265   9.362  22.494  0.00  0.00    +0.000 C 
ATOM     29  F   UNL     1      -0.289  10.337  23.262  0.00  0.00    +0.000 F 
ATOM     30  F   UNL     1      -0.575   8.293  22.584  0.00  0.00    +0.000 F 
ATOM     31  F   UNL     1       1.407   9.000  23.139  0.00  0.00    +0.000 F 
ENDBRANCH   8  28
BRANCH   6  32
ATOM     32  C   UNL     1      -0.131  12.787  18.802  0.00  0.00    +0.000 C 
BRANCH  32  33
ATOM     33  N   UNL     1      -1.537  12.743  18.385  0.00  0.00    +0.000 NA
ATOM     34  C   UNL     1      -2.474  12.718  19.524  0.00  0.00    +0.000 C 
ATOM     35  C   UNL     1      -3.486  11.667  19.211  0.00  0.00    +0.000 C 
ATOM     36  C   UNL     1      -4.373  11.730  17.994  0.00  0.00    +0.000 C 
ATOM     37  C   UNL     1      -3.068  10.975  17.973  0.00  0.00    +0.000 C 
ATOM     38  C   UNL     1      -1.798  11.595  17.493  0.00  0.00    +0.000 C 
ENDBRANCH  32  33
ENDBRANCH   6  32
TORSDOF 7
ENDMDL
MODEL 7
REMARK VINA RESULT:      -9.0      2.566      9.214
REMARK  Name = 
REMARK  8 active torsions:
REMARK  status: ('A' for Active; 'I' for Inactive)
REMARK    1  A    between atoms: C_1  and  N_2
REMARK    2  A    between atoms: C_6  and  C_7
REMARK    3  A    between atoms: C_7  and  C_8
REMARK    4  A    between atoms: C_8  and  C_9
REMARK    5  A    between atoms: C_13  and  N_14
REMARK    6  A    between atoms: C_19  and  C_20
REMARK    7  A    between atoms: C_20  and  N_21
REMARK    8  A    between atoms: C_28  and  C_29
REMARK                            x       y       z     vdW  Elec       q    Type
REMARK                         _______ _______ _______ _____ _____    ______ ____
ROOT
ATOM      1  N   UNL     1       1.684   7.973  19.859  0.00  0.00    +0.000 N 
ATOM      2  C   UNL     1       1.668   6.695  20.549  0.00  0.00    +0.000 C 
ATOM      3  C   UNL     1       2.363   5.774  19.626  0.00  0.00    +0.000 A 
ATOM      4  C   UNL     1       2.866   6.488  18.544  0.00  0.00    +0.000 A 
ATOM      5  C   UNL     1       3.625   5.862  17.575  0.00  0.00    +0.000 A 
ATOM      6  C   UNL     1       3.878   4.479  17.719  0.00  0.00    +0.000 A 
ATOM      7  C   UNL     1       3.307   3.766  18.802  0.00  0.00    +0.000 A 
ATOM      8  C   UNL     1       2.525   4.404  19.770  0.00  0.00    +0.000 A 
ATOM      9  C   UNL     1       2.404   7.904  18.670  0.00  0.00    +0.000 C 
ATOM     10  O   UNL     1       2.638   8.756  17.826  0.00  0.00    +0.000 OA
ENDROOT
BRANCH   1  15
ATOM     11  C   UNL     1      -0.702  10.859  19.869  0.00  0.00    +0.000 A 
ATOM     12  C   UNL     1      -0.566  11.288  21.195  0.00  0.00    +0.000 A 
ATOM     13  C   UNL     1       0.269  10.613  22.102  0.00  0.00    +0.000 A 
ATOM     14  C   UNL     1       1.018   9.493  21.705  0.00  0.00    +0.000 A 
ATOM     15  C   UNL     1       0.918   9.036  20.399  0.00  0.00    +0.000 A 
ATOM     16  C   UNL     1       0.032   9.712  19.539  0.00  0.00    +0.000 A 
BRANCH  11  17
ATOM     17  C   UNL     1      -1.626  11.563  18.745  0.00  0.00    +0.000 C 
ATOM     18  C   UNL     1      -2.987  12.103  19.263  0.00  0.00    +0.000 C 
ATOM     19  O   UNL     1      -3.744  11.233  18.402  0.00  0.00    +0.000 OA
ATOM     20  C   UNL     1      -2.540  10.640  17.875  0.00  0.00    +0.000 C 
BRANCH  17  21
ATOM     21  C   UNL     1      -0.820  12.590  17.900  0.00  0.00    +0.000 C 
BRANCH  21  27
ATOM     22  C   UNL     1       2.349  12.457  18.342  0.00  0.00    +0.000 C 
ATOM     23  N   UNL     1       1.423  13.431  18.850  0.00  0.00    +0.000 N 
ATOM     24  C   UNL     1       1.782  14.478  19.652  0.00  0.00    +0.000 A 
ATOM     25  N   UNL     1       0.713  15.156  19.993  0.00  0.00    +0.000 NA
ATOM     26  N   UNL     1      -0.368  14.543  19.413  0.00  0.00    +0.000 NA
ATOM     27  C   UNL     1       0.056  13.521  18.694  0.00  0.00    +0.000 A 
ENDBRANCH  21  27
ENDBRANCH  17  21
ENDBRANCH  11  17
ENDBRANCH   1  15
BRANCH   8  28
ATOM     28  C   UNL     1       1.875   3.623  20.885  0.00  0.00    +0.000 C 
ATOM     29  F   UNL     1       2.086   2.282  20.820  0.00  0.00    +0.000 F 
ATOM     30  F   UNL     1       2.320   4.012  22.111  0.00  0.00    +0.000 F 
ATOM     31  F   UNL     1       0.524   3.776  20.908  0.00  0.00    +0.000 F 
ENDBRANCH   8  28
BRANCH   6  32
ATOM     32  C   UNL     1       4.776   3.734  16.751  0.00  0.00    +0.000 C 
BRANCH  32  33
ATOM     33  N   UNL     1       5.402   4.612  15.754  0.00  0.00    +0.000 NA
ATOM     34  C   UNL     1       5.270   4.101  14.376  0.00  0.00    +0.000 C 
ATOM     35  C   UNL     1       6.614   4.250  13.745  0.00  0.00    +0.000 C 
ATOM     36  C   UNL     1       7.294   5.585  13.589  0.00  0.00    +0.000 C 
ATOM     37  C   UNL     1       7.565   4.703  14.781  0.00  0.00    +0.000 C 
ATOM     38  C   UNL     1       6.823   4.854  16.067  0.00  0.00    +0.000 C 
ENDBRANCH  32  33
ENDBRANCH   6  32
TORSDOF 7
ENDMDL
MODEL 8
REMARK VINA RESULT:      -9.0      2.192      3.721
REMARK  Name = 
REMARK  8 active torsions:
REMARK  status: ('A' for Active; 'I' for Inactive)
REMARK    1  A    between atoms: C_1  and  N_2
REMARK    2  A    between atoms: C_6  and  C_7
REMARK    3  A    between atoms: C_7  and  C_8
REMARK    4  A    between atoms: C_8  and  C_9
REMARK    5  A    between atoms: C_13  and  N_14
REMARK    6  A    between atoms: C_19  and  C_20
REMARK    7  A    between atoms: C_20  and  N_21
REMARK    8  A    between atoms: C_28  and  C_29
REMARK                            x       y       z     vdW  Elec       q    Type
REMARK                         _______ _______ _______ _____ _____    ______ ____
ROOT
ATOM      1  N   UNL     1       2.217   7.376  19.198  0.00  0.00    +0.000 N 
ATOM      2  C   UNL     1       1.457   7.715  20.388  0.00  0.00    +0.000 C 
ATOM      3  C   UNL     1       1.071   9.127  20.184  0.00  0.00    +0.000 A 
ATOM      4  C   UNL     1       1.459   9.539  18.914  0.00  0.00    +0.000 A 
ATOM      5  C   UNL     1       1.144  10.802  18.453  0.00  0.00    +0.000 A 
ATOM      6  C   UNL     1       0.413  11.658  19.307  0.00  0.00    +0.000 A 
ATOM      7  C   UNL     1       0.079  11.232  20.617  0.00  0.00    +0.000 A 
ATOM      8  C   UNL     1       0.417   9.957  21.083  0.00  0.00    +0.000 A 
ATOM      9  C   UNL     1       2.229   8.424  18.283  0.00  0.00    +0.000 C 
ATOM     10  O   UNL     1       2.755   8.521  17.184  0.00  0.00    +0.000 OA
ENDROOT
BRANCH   1  15
ATOM     11  C   UNL     1       4.527   4.729  17.904  0.00  0.00    +0.000 A 
ATOM     12  C   UNL     1       4.247   3.694  18.805  0.00  0.00    +0.000 A 
ATOM     13  C   UNL     1       3.339   3.869  19.863  0.00  0.00    +0.000 A 
ATOM     14  C   UNL     1       2.658   5.084  20.043  0.00  0.00    +0.000 A 
ATOM     15  C   UNL     1       2.902   6.135  19.171  0.00  0.00    +0.000 A 
ATOM     16  C   UNL     1       3.856   5.932  18.157  0.00  0.00    +0.000 A 
BRANCH  11  17
ATOM     17  C   UNL     1       5.546   4.633  16.653  0.00  0.00    +0.000 C 
ATOM     18  C   UNL     1       5.204   5.564  15.459  0.00  0.00    +0.000 C 
ATOM     19  O   UNL     1       5.023   4.461  14.553  0.00  0.00    +0.000 OA
ATOM     20  C   UNL     1       5.296   3.506  15.599  0.00  0.00    +0.000 C 
BRANCH  17  21
ATOM     21  C   UNL     1       7.029   4.716  17.113  0.00  0.00    +0.000 C 
BRANCH  21  27
ATOM     22  C   UNL     1       8.032   5.764  19.968  0.00  0.00    +0.000 C 
ATOM     23  N   UNL     1       7.936   6.499  18.737  0.00  0.00    +0.000 N 
ATOM     24  C   UNL     1       8.256   7.823  18.613  0.00  0.00    +0.000 A 
ATOM     25  N   UNL     1       8.013   8.219  17.388  0.00  0.00    +0.000 NA
ATOM     26  N   UNL     1       7.520   7.143  16.695  0.00  0.00    +0.000 NA
ATOM     27  C   UNL     1       7.502   6.093  17.493  0.00  0.00    +0.000 A 
ENDBRANCH  21  27
ENDBRANCH  17  21
ENDBRANCH  11  17
ENDBRANCH   1  15
BRANCH   8  28
ATOM     28  C   UNL     1       0.107   9.538  22.498  0.00  0.00    +0.000 C 
ATOM     29  F   UNL     1       1.194   9.139  23.210  0.00  0.00    +0.000 F 
ATOM     30  F   UNL     1      -0.462  10.544  23.218  0.00  0.00    +0.000 F 
ATOM     31  F   UNL     1      -0.764   8.495  22.553  0.00  0.00    +0.000 F 
ENDBRANCH   8  28
BRANCH   6  32
ATOM     32  C   UNL     1      -0.053  13.026  18.846  0.00  0.00    +0.000 C 
BRANCH  32  33
ATOM     33  N   UNL     1       0.929  14.085  19.104  0.00  0.00    +0.000 NA
ATOM     34  C   UNL     1       2.130  13.973  18.254  0.00  0.00    +0.000 C 
ATOM     35  C   UNL     1       3.301  14.179  19.156  0.00  0.00    +0.000 C 
ATOM     36  C   UNL     1       3.509  15.450  19.939  0.00  0.00    +0.000 C 
ATOM     37  C   UNL     1       2.806  14.263  20.547  0.00  0.00    +0.000 C 
ATOM     38  C   UNL     1       1.321  14.123  20.526  0.00  0.00    +0.000 C 
ENDBRANCH  32  33
ENDBRANCH   6  32
TORSDOF 7
ENDMDL
MODEL 9
REMARK VINA RESULT:      -9.0      2.657      9.028
REMARK  Name = 
REMARK  8 active torsions:
REMARK  status: ('A' for Active; 'I' for Inactive)
REMARK    1  A    between atoms: C_1  and  N_2
REMARK    2  A    between atoms: C_6  and  C_7
REMARK    3  A    between atoms: C_7  and  C_8
REMARK    4  A    between atoms: C_8  and  C_9
REMARK    5  A    between atoms: C_13  and  N_14
REMARK    6  A    between atoms: C_19  and  C_20
REMARK    7  A    between atoms: C_20  and  N_21
REMARK    8  A    between atoms: C_28  and  C_29
REMARK                            x       y       z     vdW  Elec       q    Type
REMARK                         _______ _______ _______ _____ _____    ______ ____
ROOT
ATOM      1  N   UNL     1       1.646   7.927  20.013  0.00  0.00    +0.000 N 
ATOM      2  C   UNL     1       1.640   6.634  20.673  0.00  0.00    +0.000 C 
ATOM      3  C   UNL     1       2.318   5.734  19.718  0.00  0.00    +0.000 A 
ATOM      4  C   UNL     1       2.804   6.472  18.644  0.00  0.00    +0.000 A 
ATOM      5  C   UNL     1       3.546   5.869  17.649  0.00  0.00    +0.000 A 
ATOM      6  C   UNL     1       3.800   4.483  17.756  0.00  0.00    +0.000 A 
ATOM      7  C   UNL     1       3.246   3.745  18.831  0.00  0.00    +0.000 A 
ATOM      8  C   UNL     1       2.480   4.360  19.827  0.00  0.00    +0.000 A 
ATOM      9  C   UNL     1       2.346   7.886  18.811  0.00  0.00    +0.000 C 
ATOM     10  O   UNL     1       2.567   8.757  17.984  0.00  0.00    +0.000 OA
ENDROOT
BRANCH   1  15
ATOM     11  C   UNL     1      -0.544  10.963  20.111  0.00  0.00    +0.000 A 
ATOM     12  C   UNL     1      -0.533  11.232  21.485  0.00  0.00    +0.000 A 
ATOM     13  C   UNL     1       0.150  10.400  22.389  0.00  0.00    +0.000 A 
ATOM     14  C   UNL     1       0.869   9.279  21.945  0.00  0.00    +0.000 A 
ATOM     15  C   UNL     1       0.890   8.978  20.591  0.00  0.00    +0.000 A 
ATOM     16  C   UNL     1       0.151   9.809  19.728  0.00  0.00    +0.000 A 
BRANCH  11  17
ATOM     17  C   UNL     1      -1.289  11.854  18.987  0.00  0.00    +0.000 C 
ATOM     18  C   UNL     1      -2.840  11.836  19.062  0.00  0.00    +0.000 C 
ATOM     19  O   UNL     1      -2.972  11.256  17.751  0.00  0.00    +0.000 OA
ATOM     20  C   UNL     1      -1.540  11.197  17.590  0.00  0.00    +0.000 C 
BRANCH  17  21
ATOM     21  C   UNL     1      -0.679  13.280  18.886  0.00  0.00    +0.000 C 
BRANCH  21  27
ATOM     22  C   UNL     1       1.157  14.511  21.204  0.00  0.00    +0.000 C 
ATOM     23  N   UNL     1       1.575  13.871  19.987  0.00  0.00    +0.000 N 
ATOM     24  C   UNL     1       2.882  13.709  19.622  0.00  0.00    +0.000 A 
ATOM     25  N   UNL     1       2.941  13.141  18.442  0.00  0.00    +0.000 NA
ATOM     26  N   UNL     1       1.653  12.931  18.021  0.00  0.00    +0.000 NA
ATOM     27  C   UNL     1       0.823  13.337  18.962  0.00  0.00    +0.000 A 
ENDBRANCH  21  27
ENDBRANCH  17  21
ENDBRANCH  11  17
ENDBRANCH   1  15
BRANCH   8  28
ATOM     28  C   UNL     1       1.848   3.554  20.933  0.00  0.00    +0.000 C 
ATOM     29  F   UNL     1       2.075   2.216  20.845  0.00  0.00    +0.000 F 
ATOM     30  F   UNL     1       2.298   3.929  22.162  0.00  0.00    +0.000 F 
ATOM     31  F   UNL     1       0.495   3.690  20.968  0.00  0.00    +0.000 F 
ENDBRANCH   8  28
BRANCH   6  32
ATOM     32  C   UNL     1       4.681   3.760  16.755  0.00  0.00    +0.000 C 
BRANCH  32  33
ATOM     33  N   UNL     1       5.368   4.670  15.831  0.00  0.00    +0.000 NA
ATOM     34  C   UNL     1       5.273   4.237  14.423  0.00  0.00    +0.000 C 
ATOM     35  C   UNL     1       6.643   4.378  13.849  0.00  0.00    +0.000 C 
ATOM     36  C   UNL     1       7.367   5.698  13.790  0.00  0.00    +0.000 C 
ATOM     37  C   UNL     1       7.568   4.746  14.942  0.00  0.00    +0.000 C 
ATOM     38  C   UNL     1       6.784   4.852  16.207  0.00  0.00    +0.000 C 
ENDBRANCH  32  33
ENDBRANCH   6  32
TORSDOF 7
ENDMDL
