MODEL 1
REMARK VINA RESULT:      -9.5      0.000      0.000
REMARK  Name = 
REMARK  9 active torsions:
REMARK  status: ('A' for Active; 'I' for Inactive)
REMARK    1  A    between atoms: C_1  and  N_2
REMARK    2  A    between atoms: C_6  and  C_7
REMARK    3  A    between atoms: C_7  and  C_8
REMARK    4  A    between atoms: C_8  and  C_9
REMARK    5  A    between atoms: C_13  and  N_14
REMARK    6  A    between atoms: C_19  and  C_20
REMARK    7  A    between atoms: C_20  and  N_21
REMARK    8  A    between atoms: C_25  and  C_26
REMARK    9  A    between atoms: C_29  and  C_30
REMARK                            x       y       z     vdW  Elec       q    Type
REMARK                         _______ _______ _______ _____ _____    ______ ____
ROOT
ATOM      1  N   UNL     1       2.280   7.425  19.352  0.00  0.00    +0.000 N 
ATOM      2  C   UNL     1       1.504   7.754  20.524  0.00  0.00    +0.000 C 
ATOM      3  C   UNL     1       0.978   9.106  20.261  0.00  0.00    +0.000 A 
ATOM      4  C   UNL     1       1.302   9.509  18.973  0.00  0.00    +0.000 A 
ATOM      5  C   UNL     1       0.853  10.739  18.490  0.00  0.00    +0.000 A 
ATOM      6  C   UNL     1       0.111  11.572  19.368  0.00  0.00    +0.000 A 
ATOM      7  C   UNL     1      -0.148  11.142  20.690  0.00  0.00    +0.000 A 
ATOM      8  C   UNL     1       0.279   9.900  21.159  0.00  0.00    +0.000 A 
ATOM      9  C   UNL     1       2.169   8.428  18.378  0.00  0.00    +0.000 C 
ATOM     10  O   UNL     1       2.666   8.498  17.263  0.00  0.00    +0.000 OA
ENDROOT
BRANCH   1  15
ATOM     11  C   UNL     1       5.354   5.300  18.842  0.00  0.00    +0.000 A 
ATOM     12  C   UNL     1       4.864   4.059  19.265  0.00  0.00    +0.000 A 
ATOM     13  C   UNL     1       3.556   3.918  19.769  0.00  0.00    +0.000 A 
ATOM     14  C   UNL     1       2.672   5.015  19.849  0.00  0.00    +0.000 A 
ATOM     15  C   UNL     1       3.099   6.261  19.421  0.00  0.00    +0.000 A 
ATOM     16  C   UNL     1       4.436   6.357  18.961  0.00  0.00    +0.000 A 
BRANCH  11  17
ATOM     17  C   UNL     1       6.853   5.575  18.274  0.00  0.00    +0.000 C 
ATOM     18  C   UNL     1       7.902   5.985  19.342  0.00  0.00    +0.000 C 
ATOM     19  O   UNL     1       8.159   7.252  18.709  0.00  0.00    +0.000 OA
ATOM     20  C   UNL     1       7.166   6.992  17.696  0.00  0.00    +0.000 C 
BRANCH  17  21
ATOM     21  C   UNL     1       7.341   4.437  17.341  0.00  0.00    +0.000 C 
BRANCH  21  27
ATOM     22  C   UNL     1       4.674   3.494  15.935  0.00  0.00    +0.000 C 
ATOM     23  N   UNL     1       5.785   4.177  15.326  0.00  0.00    +0.000 N 
ATOM     24  C   UNL     1       5.867   4.500  14.003  0.00  0.00    +0.000 A 
ATOM     25  N   UNL     1       7.017   5.082  13.767  0.00  0.00    +0.000 NA
ATOM     26  N   UNL     1       7.708   5.127  14.951  0.00  0.00    +0.000 NA
ATOM     27  C   UNL     1       6.957   4.603  15.900  0.00  0.00    +0.000 A 
ENDBRANCH  21  27
ENDBRANCH  17  21
ENDBRANCH  11  17
ENDBRANCH   1  15
BRANCH   8  28
ATOM     28  C   UNL     1      -0.001   9.474  22.576  0.00  0.00    +0.000 C 
ATOM     29  F   UNL     1       1.109   9.141  23.285  0.00  0.00    +0.000 F 
ATOM     30  F   UNL     1      -0.628  10.445  23.294  0.00  0.00    +0.000 F 
ATOM     31  F   UNL     1      -0.806   8.378  22.631  0.00  0.00    +0.000 F 
ENDBRANCH   8  28
BRANCH   6  32
ATOM     32  C   UNL     1      -0.502  12.902  18.939  0.00  0.00    +0.000 C 
BRANCH  32  33
ATOM     33  N   UNL     1       0.512  13.944  18.622  0.00  0.00    +0.000 NA
ATOM     34  C   UNL     1      -0.129  15.269  18.469  0.00  0.00    +0.000 C 
ATOM     35  C   UNL     1      -0.304  15.727  19.891  0.00  0.00    +0.000 C 
ATOM     36  C   UNL     1       0.748  16.530  20.601  0.00  0.00    +0.000 C 
ATOM     37  C   UNL     1       0.731  15.018  20.716  0.00  0.00    +0.000 C 
ATOM     38  C   UNL     1       0.461  14.439  22.069  0.00  0.00    +0.000 C 
ATOM     39  C   UNL     1       1.469  14.125  19.747  0.00  0.00    +0.000 C 
ENDBRANCH  32  33
ENDBRANCH   6  32
TORSDOF 7
ENDMDL
MODEL 2
REMARK VINA RESULT:      -9.2      2.936      9.544
REMARK  Name = 
REMARK  9 active torsions:
REMARK  status: ('A' for Active; 'I' for Inactive)
REMARK    1  A    between atoms: C_1  and  N_2
REMARK    2  A    between atoms: C_6  and  C_7
REMARK    3  A    between atoms: C_7  and  C_8
REMARK    4  A    between atoms: C_8  and  C_9
REMARK    5  A    between atoms: C_13  and  N_14
REMARK    6  A    between atoms: C_19  and  C_20
REMARK    7  A    between atoms: C_20  and  N_21
REMARK    8  A    between atoms: C_25  and  C_26
REMARK    9  A    between atoms: C_29  and  C_30
REMARK                            x       y       z     vdW  Elec       q    Type
REMARK                         _______ _______ _______ _____ _____    ______ ____
ROOT
ATOM      1  N   UNL     1       1.374   8.273  20.325  0.00  0.00    +0.000 N 
ATOM      2  C   UNL     1       1.500   6.934  20.850  0.00  0.00    +0.000 C 
ATOM      3  C   UNL     1       2.250   6.194  19.819  0.00  0.00    +0.000 A 
ATOM      4  C   UNL     1       2.660   7.052  18.809  0.00  0.00    +0.000 A 
ATOM      5  C   UNL     1       3.438   6.572  17.754  0.00  0.00    +0.000 A 
ATOM      6  C   UNL     1       3.743   5.187  17.725  0.00  0.00    +0.000 A 
ATOM      7  C   UNL     1       3.257   4.340  18.748  0.00  0.00    +0.000 A 
ATOM      8  C   UNL     1       2.503   4.830  19.814  0.00  0.00    +0.000 A 
ATOM      9  C   UNL     1       2.076   8.409  19.119  0.00  0.00    +0.000 C 
ATOM     10  O   UNL     1       2.210   9.383  18.394  0.00  0.00    +0.000 OA
ENDROOT
BRANCH   1  15
ATOM     11  C   UNL     1      -0.950  11.211  20.772  0.00  0.00    +0.000 A 
ATOM     12  C   UNL     1      -1.142  11.159  22.157  0.00  0.00    +0.000 A 
ATOM     13  C   UNL     1      -0.566  10.140  22.942  0.00  0.00    +0.000 A 
ATOM     14  C   UNL     1       0.249   9.139  22.372  0.00  0.00    +0.000 A 
ATOM     15  C   UNL     1       0.492   9.159  21.009  0.00  0.00    +0.000 A 
ATOM     16  C   UNL     1      -0.143  10.180  20.260  0.00  0.00    +0.000 A 
BRANCH  11  17
ATOM     17  C   UNL     1      -1.591  12.323  19.774  0.00  0.00    +0.000 C 
ATOM     18  C   UNL     1      -0.652  12.818  18.642  0.00  0.00    +0.000 C 
ATOM     19  O   UNL     1      -0.700  14.182  19.098  0.00  0.00    +0.000 OA
ATOM     20  C   UNL     1      -1.536  13.820  20.217  0.00  0.00    +0.000 C 
BRANCH  17  21
ATOM     21  C   UNL     1      -2.997  11.910  19.267  0.00  0.00    +0.000 C 
BRANCH  21  27
ATOM     22  C   UNL     1      -5.291  12.151  17.109  0.00  0.00    +0.000 C 
ATOM     23  N   UNL     1      -4.037  11.458  16.972  0.00  0.00    +0.000 N 
ATOM     24  C   UNL     1      -3.654  10.756  15.868  0.00  0.00    +0.000 A 
ATOM     25  N   UNL     1      -2.476  10.220  16.078  0.00  0.00    +0.000 NA
ATOM     26  N   UNL     1      -2.087  10.563  17.348  0.00  0.00    +0.000 NA
ATOM     27  C   UNL     1      -3.017  11.332  17.883  0.00  0.00    +0.000 A 
ENDBRANCH  21  27
ENDBRANCH  17  21
ENDBRANCH  11  17
ENDBRANCH   1  15
BRANCH   8  28
ATOM     28  C   UNL     1       1.990   3.902  20.884  0.00  0.00    +0.000 C 
ATOM     29  F   UNL     1       0.635   3.865  20.981  0.00  0.00    +0.000 F 
ATOM     30  F   UNL     1       2.388   2.616  20.689  0.00  0.00    +0.000 F 
ATOM     31  F   UNL     1       2.430   4.255  22.122  0.00  0.00    +0.000 F 
ENDBRANCH   8  28
BRANCH   6  32
ATOM     32  C   UNL     1       4.646   4.552  16.671  0.00  0.00    +0.000 C 
BRANCH  32  33
ATOM     33  N   UNL     1       5.650   5.495  16.108  0.00  0.00    +0.000 NA
ATOM     34  C   UNL     1       6.998   4.887  16.108  0.00  0.00    +0.000 C 
ATOM     35  C   UNL     1       6.978   4.017  14.881  0.00  0.00    +0.000 C 
ATOM     36  C   UNL     1       7.417   4.528  13.539  0.00  0.00    +0.000 C 
ATOM     37  C   UNL     1       5.957   4.596  13.945  0.00  0.00    +0.000 C 
ATOM     38  C   UNL     1       4.990   3.770  13.156  0.00  0.00    +0.000 C 
ATOM     39  C   UNL     1       5.375   5.783  14.675  0.00  0.00    +0.000 C 
ENDBRANCH  32  33
ENDBRANCH   6  32
TORSDOF 7
ENDMDL
MODEL 3
REMARK VINA RESULT:      -8.9      2.458      9.502
REMARK  Name = 
REMARK  9 active torsions:
REMARK  status: ('A' for Active; 'I' for Inactive)
REMARK    1  A    between atoms: C_1  and  N_2
REMARK    2  A    between atoms: C_6  and  C_7
REMARK    3  A    between atoms: C_7  and  C_8
REMARK    4  A    between atoms: C_8  and  C_9
REMARK    5  A    between atoms: C_13  and  N_14
REMARK    6  A    between atoms: C_19  and  C_20
REMARK    7  A    between atoms: C_20  and  N_21
REMARK    8  A    between atoms: C_25  and  C_26
REMARK    9  A    between atoms: C_29  and  C_30
REMARK                            x       y       z     vdW  Elec       q    Type
REMARK                         _______ _______ _______ _____ _____    ______ ____
ROOT
ATOM      1  N   UNL     1       1.389   8.281  20.308  0.00  0.00    +0.000 N 
ATOM      2  C   UNL     1       1.500   6.941  20.834  0.00  0.00    +0.000 C 
ATOM      3  C   UNL     1       2.250   6.194  19.807  0.00  0.00    +0.000 A 
ATOM      4  C   UNL     1       2.675   7.049  18.800  0.00  0.00    +0.000 A 
ATOM      5  C   UNL     1       3.456   6.563  17.751  0.00  0.00    +0.000 A 
ATOM      6  C   UNL     1       3.749   5.175  17.723  0.00  0.00    +0.000 A 
ATOM      7  C   UNL     1       3.248   4.332  18.743  0.00  0.00    +0.000 A 
ATOM      8  C   UNL     1       2.492   4.828  19.804  0.00  0.00    +0.000 A 
ATOM      9  C   UNL     1       2.101   8.410  19.107  0.00  0.00    +0.000 C 
ATOM     10  O   UNL     1       2.249   9.384  18.383  0.00  0.00    +0.000 OA
ENDROOT
BRANCH   1  15
ATOM     11  C   UNL     1      -1.015  11.160  20.710  0.00  0.00    +0.000 A 
ATOM     12  C   UNL     1      -1.137  11.180  22.104  0.00  0.00    +0.000 A 
ATOM     13  C   UNL     1      -0.487  10.228  22.914  0.00  0.00    +0.000 A 
ATOM     14  C   UNL     1       0.335   9.224  22.359  0.00  0.00    +0.000 A 
ATOM     15  C   UNL     1       0.510   9.174  20.986  0.00  0.00    +0.000 A 
ATOM     16  C   UNL     1      -0.197  10.129  20.215  0.00  0.00    +0.000 A 
BRANCH  11  17
ATOM     17  C   UNL     1      -1.744  12.191  19.687  0.00  0.00    +0.000 C 
ATOM     18  C   UNL     1      -3.278  12.334  19.870  0.00  0.00    +0.000 C 
ATOM     19  O   UNL     1      -3.554  11.873  18.534  0.00  0.00    +0.000 OA
ATOM     20  C   UNL     1      -2.151  11.656  18.277  0.00  0.00    +0.000 C 
BRANCH  17  21
ATOM     21  C   UNL     1      -1.007  13.554  19.609  0.00  0.00    +0.000 C 
BRANCH  21  27
ATOM     22  C   UNL     1       1.148  14.410  21.753  0.00  0.00    +0.000 C 
ATOM     23  N   UNL     1       1.391  13.837  20.455  0.00  0.00    +0.000 N 
ATOM     24  C   UNL     1       2.627  13.600  19.930  0.00  0.00    +0.000 A 
ATOM     25  N   UNL     1       2.501  13.107  18.722  0.00  0.00    +0.000 NA
ATOM     26  N   UNL     1       1.160  13.034  18.444  0.00  0.00    +0.000 NA
ATOM     27  C   UNL     1       0.486  13.452  19.498  0.00  0.00    +0.000 A 
ENDBRANCH  21  27
ENDBRANCH  17  21
ENDBRANCH  11  17
ENDBRANCH   1  15
BRANCH   8  28
ATOM     28  C   UNL     1       1.963   3.905  20.870  0.00  0.00    +0.000 C 
ATOM     29  F   UNL     1       2.312   2.602  20.699  0.00  0.00    +0.000 F 
ATOM     30  F   UNL     1       2.394   4.249  22.113  0.00  0.00    +0.000 F 
ATOM     31  F   UNL     1       0.603   3.909  20.922  0.00  0.00    +0.000 F 
ENDBRANCH   8  28
BRANCH   6  32
ATOM     32  C   UNL     1       4.654   4.532  16.676  0.00  0.00    +0.000 C 
BRANCH  32  33
ATOM     33  N   UNL     1       5.667   5.468  16.117  0.00  0.00    +0.000 NA
ATOM     34  C   UNL     1       7.006   4.839  16.095  0.00  0.00    +0.000 C 
ATOM     35  C   UNL     1       6.961   3.987  14.857  0.00  0.00    +0.000 C 
ATOM     36  C   UNL     1       7.395   4.511  13.518  0.00  0.00    +0.000 C 
ATOM     37  C   UNL     1       5.941   4.595  13.938  0.00  0.00    +0.000 C 
ATOM     38  C   UNL     1       4.954   3.796  13.147  0.00  0.00    +0.000 C 
ATOM     39  C   UNL     1       5.383   5.780  14.690  0.00  0.00    +0.000 C 
ENDBRANCH  32  33
ENDBRANCH   6  32
TORSDOF 7
ENDMDL
MODEL 4
REMARK VINA RESULT:      -8.9      0.547      1.126
REMARK  Name = 
REMARK  9 active torsions:
REMARK  status: ('A' for Active; 'I' for Inactive)
REMARK    1  A    between atoms: C_1  and  N_2
REMARK    2  A    between atoms: C_6  and  C_7
REMARK    3  A    between atoms: C_7  and  C_8
REMARK    4  A    between atoms: C_8  and  C_9
REMARK    5  A    between atoms: C_13  and  N_14
REMARK    6  A    between atoms: C_19  and  C_20
REMARK    7  A    between atoms: C_20  and  N_21
REMARK    8  A    between atoms: C_25  and  C_26
REMARK    9  A    between atoms: C_29  and  C_30
REMARK                            x       y       z     vdW  Elec       q    Type
REMARK                         _______ _______ _______ _____ _____    ______ ____
ROOT
ATOM      1  N   UNL     1       2.237   7.563  19.388  0.00  0.00    +0.000 N 
ATOM      2  C   UNL     1       1.450   7.853  20.563  0.00  0.00    +0.000 C 
ATOM      3  C   UNL     1       0.983   9.239  20.371  0.00  0.00    +0.000 A 
ATOM      4  C   UNL     1       1.350   9.704  19.116  0.00  0.00    +0.000 A 
ATOM      5  C   UNL     1       0.959  10.977  18.700  0.00  0.00    +0.000 A 
ATOM      6  C   UNL     1       0.233  11.786  19.612  0.00  0.00    +0.000 A 
ATOM      7  C   UNL     1      -0.071  11.289  20.901  0.00  0.00    +0.000 A 
ATOM      8  C   UNL     1       0.298  10.006  21.302  0.00  0.00    +0.000 A 
ATOM      9  C   UNL     1       2.186   8.625  18.473  0.00  0.00    +0.000 C 
ATOM     10  O   UNL     1       2.708   8.741  17.375  0.00  0.00    +0.000 OA
ENDROOT
BRANCH   1  15
ATOM     11  C   UNL     1       5.226   5.343  18.786  0.00  0.00    +0.000 A 
ATOM     12  C   UNL     1       4.684   4.103  19.144  0.00  0.00    +0.000 A 
ATOM     13  C   UNL     1       3.367   3.991  19.634  0.00  0.00    +0.000 A 
ATOM     14  C   UNL     1       2.528   5.118  19.765  0.00  0.00    +0.000 A 
ATOM     15  C   UNL     1       3.008   6.365  19.402  0.00  0.00    +0.000 A 
ATOM     16  C   UNL     1       4.350   6.429  18.953  0.00  0.00    +0.000 A 
BRANCH  11  17
ATOM     17  C   UNL     1       6.738   5.585  18.239  0.00  0.00    +0.000 C 
ATOM     18  C   UNL     1       7.777   5.990  19.319  0.00  0.00    +0.000 C 
ATOM     19  O   UNL     1       8.067   7.244  18.675  0.00  0.00    +0.000 OA
ATOM     20  C   UNL     1       7.085   6.989  17.649  0.00  0.00    +0.000 C 
BRANCH  17  21
ATOM     21  C   UNL     1       7.222   4.427  17.328  0.00  0.00    +0.000 C 
BRANCH  21  27
ATOM     22  C   UNL     1       4.624   3.497  15.790  0.00  0.00    +0.000 C 
ATOM     23  N   UNL     1       5.763   4.184  15.239  0.00  0.00    +0.000 N 
ATOM     24  C   UNL     1       5.907   4.518  13.925  0.00  0.00    +0.000 A 
ATOM     25  N   UNL     1       7.067   5.101  13.748  0.00  0.00    +0.000 NA
ATOM     26  N   UNL     1       7.702   5.136  14.964  0.00  0.00    +0.000 NA
ATOM     27  C   UNL     1       6.906   4.604  15.872  0.00  0.00    +0.000 A 
ENDBRANCH  21  27
ENDBRANCH  17  21
ENDBRANCH  11  17
ENDBRANCH   1  15
BRANCH   8  28
ATOM     28  C   UNL     1      -0.030   9.508  22.685  0.00  0.00    +0.000 C 
ATOM     29  F   UNL     1       1.059   9.171  23.425  0.00  0.00    +0.000 F 
ATOM     30  F   UNL     1      -0.712  10.429  23.419  0.00  0.00    +0.000 F 
ATOM     31  F   UNL     1      -0.806   8.391  22.658  0.00  0.00    +0.000 F 
ENDBRANCH   8  28
BRANCH   6  32
ATOM     32  C   UNL     1      -0.318  13.163  19.252  0.00  0.00    +0.000 C 
BRANCH  32  33
ATOM     33  N   UNL     1      -0.458  14.067  20.426  0.00  0.00    +0.000 NA
ATOM     34  C   UNL     1       0.868  14.524  20.896  0.00  0.00    +0.000 C 
ATOM     35  C   UNL     1       1.199  15.642  19.946  0.00  0.00    +0.000 C 
ATOM     36  C   UNL     1       0.818  17.065  20.234  0.00  0.00    +0.000 C 
ATOM     37  C   UNL     1      -0.102  16.176  19.421  0.00  0.00    +0.000 C 
ATOM     38  C   UNL     1      -0.330  16.553  17.992  0.00  0.00    +0.000 C 
ATOM     39  C   UNL     1      -1.171  15.320  20.060  0.00  0.00    +0.000 C 
ENDBRANCH  32  33
ENDBRANCH   6  32
TORSDOF 7
ENDMDL
MODEL 5
REMARK VINA RESULT:      -8.9      1.477      2.358
REMARK  Name = 
REMARK  9 active torsions:
REMARK  status: ('A' for Active; 'I' for Inactive)
REMARK    1  A    between atoms: C_1  and  N_2
REMARK    2  A    between atoms: C_6  and  C_7
REMARK    3  A    between atoms: C_7  and  C_8
REMARK    4  A    between atoms: C_8  and  C_9
REMARK    5  A    between atoms: C_13  and  N_14
REMARK    6  A    between atoms: C_19  and  C_20
REMARK    7  A    between atoms: C_20  and  N_21
REMARK    8  A    between atoms: C_25  and  C_26
REMARK    9  A    between atoms: C_29  and  C_30
REMARK                            x       y       z     vdW  Elec       q    Type
REMARK                         _______ _______ _______ _____ _____    ______ ____
ROOT
ATOM      1  N   UNL     1       2.125   7.489  19.238  0.00  0.00    +0.000 N 
ATOM      2  C   UNL     1       1.382   7.801  20.436  0.00  0.00    +0.000 C 
ATOM      3  C   UNL     1       0.936   9.194  20.252  0.00  0.00    +0.000 A 
ATOM      4  C   UNL     1       1.271   9.646  18.984  0.00  0.00    +0.000 A 
ATOM      5  C   UNL     1       0.893  10.925  18.573  0.00  0.00    +0.000 A 
ATOM      6  C   UNL     1       0.211  11.752  19.504  0.00  0.00    +0.000 A 
ATOM      7  C   UNL     1      -0.060  11.267  20.805  0.00  0.00    +0.000 A 
ATOM      8  C   UNL     1       0.296   9.978  21.200  0.00  0.00    +0.000 A 
ATOM      9  C   UNL     1       2.065   8.548  18.320  0.00  0.00    +0.000 C 
ATOM     10  O   UNL     1       2.554   8.648  17.205  0.00  0.00    +0.000 OA
ENDROOT
BRANCH   1  15
ATOM     11  C   UNL     1       4.525   4.887  17.936  0.00  0.00    +0.000 A 
ATOM     12  C   UNL     1       4.326   3.878  18.885  0.00  0.00    +0.000 A 
ATOM     13  C   UNL     1       3.458   4.058  19.980  0.00  0.00    +0.000 A 
ATOM     14  C   UNL     1       2.731   5.255  20.157  0.00  0.00    +0.000 A 
ATOM     15  C   UNL     1       2.872   6.276  19.233  0.00  0.00    +0.000 A 
ATOM     16  C   UNL     1       3.788   6.060  18.174  0.00  0.00    +0.000 A 
BRANCH  11  17
ATOM     17  C   UNL     1       5.524   4.792  16.657  0.00  0.00    +0.000 C 
ATOM     18  C   UNL     1       5.197   5.758  15.487  0.00  0.00    +0.000 C 
ATOM     19  O   UNL     1       4.996   4.678  14.555  0.00  0.00    +0.000 OA
ATOM     20  C   UNL     1       5.233   3.695  15.584  0.00  0.00    +0.000 C 
BRANCH  17  21
ATOM     21  C   UNL     1       7.016   4.824  17.078  0.00  0.00    +0.000 C 
BRANCH  21  27
ATOM     22  C   UNL     1       8.025   5.713  19.936  0.00  0.00    +0.000 C 
ATOM     23  N   UNL     1       7.950   6.523  18.748  0.00  0.00    +0.000 N 
ATOM     24  C   UNL     1       8.285   7.843  18.686  0.00  0.00    +0.000 A 
ATOM     25  N   UNL     1       8.070   8.291  17.473  0.00  0.00    +0.000 NA
ATOM     26  N   UNL     1       7.571   7.252  16.731  0.00  0.00    +0.000 NA
ATOM     27  C   UNL     1       7.520   6.175  17.492  0.00  0.00    +0.000 A 
ENDBRANCH  21  27
ENDBRANCH  17  21
ENDBRANCH  11  17
ENDBRANCH   1  15
BRANCH   8  28
ATOM     28  C   UNL     1       0.004   9.494  22.596  0.00  0.00    +0.000 C 
ATOM     29  F   UNL     1       1.108   9.127  23.298  0.00  0.00    +0.000 F 
ATOM     30  F   UNL     1      -0.625  10.435  23.350  0.00  0.00    +0.000 F 
ATOM     31  F   UNL     1      -0.805   8.399  22.600  0.00  0.00    +0.000 F 
ENDBRANCH   8  28
BRANCH   6  32
ATOM     32  C   UNL     1      -0.324  13.138  19.155  0.00  0.00    +0.000 C 
BRANCH  32  33
ATOM     33  N   UNL     1       0.742  14.103  18.775  0.00  0.00    +0.000 NA
ATOM     34  C   UNL     1       0.170  15.445  18.527  0.00  0.00    +0.000 C 
ATOM     35  C   UNL     1       0.012  16.008  19.913  0.00  0.00    +0.000 C 
ATOM     36  C   UNL     1       1.101  16.804  20.574  0.00  0.00    +0.000 C 
ATOM     37  C   UNL     1       1.008  15.307  20.792  0.00  0.00    +0.000 C 
ATOM     38  C   UNL     1       0.705  14.836  22.179  0.00  0.00    +0.000 C 
ATOM     39  C   UNL     1       1.703  14.313  19.891  0.00  0.00    +0.000 C 
ENDBRANCH  32  33
ENDBRANCH   6  32
TORSDOF 7
ENDMDL
MODEL 6
REMARK VINA RESULT:      -8.9      1.675      2.633
REMARK  Name = 
REMARK  9 active torsions:
REMARK  status: ('A' for Active; 'I' for Inactive)
REMARK    1  A    between atoms: C_1  and  N_2
REMARK    2  A    between atoms: C_6  and  C_7
REMARK    3  A    between atoms: C_7  and  C_8
REMARK    4  A    between atoms: C_8  and  C_9
REMARK    5  A    between atoms: C_13  and  N_14
REMARK    6  A    between atoms: C_19  and  C_20
REMARK    7  A    between atoms: C_20  and  N_21
REMARK    8  A    between atoms: C_25  and  C_26
REMARK    9  A    between atoms: C_29  and  C_30
REMARK                            x       y       z     vdW  Elec       q    Type
REMARK                         _______ _______ _______ _____ _____    ______ ____
ROOT
ATOM      1  N   UNL     1       2.212   7.423  18.945  0.00  0.00    +0.000 N 
ATOM      2  C   UNL     1       1.475   7.756  20.141  0.00  0.00    +0.000 C 
ATOM      3  C   UNL     1       1.228   9.206  20.040  0.00  0.00    +0.000 A 
ATOM      4  C   UNL     1       1.666   9.687  18.814  0.00  0.00    +0.000 A 
ATOM      5  C   UNL     1       1.477  11.029  18.481  0.00  0.00    +0.000 A 
ATOM      6  C   UNL     1       0.881  11.881  19.446  0.00  0.00    +0.000 A 
ATOM      7  C   UNL     1       0.500  11.357  20.704  0.00  0.00    +0.000 A 
ATOM      8  C   UNL     1       0.666  10.009  21.021  0.00  0.00    +0.000 A 
ATOM      9  C   UNL     1       2.327   8.536  18.099  0.00  0.00    +0.000 C 
ATOM     10  O   UNL     1       2.865   8.638  17.007  0.00  0.00    +0.000 OA
ENDROOT
BRANCH   1  15
ATOM     11  C   UNL     1       4.424   4.661  17.638  0.00  0.00    +0.000 A 
ATOM     12  C   UNL     1       3.958   3.591  18.411  0.00  0.00    +0.000 A 
ATOM     13  C   UNL     1       2.967   3.772  19.396  0.00  0.00    +0.000 A 
ATOM     14  C   UNL     1       2.382   5.034  19.633  0.00  0.00    +0.000 A 
ATOM     15  C   UNL     1       2.789   6.122  18.879  0.00  0.00    +0.000 A 
ATOM     16  C   UNL     1       3.817   5.895  17.930  0.00  0.00    +0.000 A 
BRANCH  11  17
ATOM     17  C   UNL     1       5.581   4.566  16.500  0.00  0.00    +0.000 C 
ATOM     18  C   UNL     1       5.392   5.508  15.281  0.00  0.00    +0.000 C 
ATOM     19  O   UNL     1       5.331   4.412  14.350  0.00  0.00    +0.000 OA
ATOM     20  C   UNL     1       5.449   3.448  15.417  0.00  0.00    +0.000 C 
BRANCH  17  21
ATOM     21  C   UNL     1       7.005   4.631  17.109  0.00  0.00    +0.000 C 
BRANCH  21  27
ATOM     22  C   UNL     1       8.047   5.666  19.906  0.00  0.00    +0.000 C 
ATOM     23  N   UNL     1       7.920   6.425  18.689  0.00  0.00    +0.000 N 
ATOM     24  C   UNL     1       8.209   7.751  18.567  0.00  0.00    +0.000 A 
ATOM     25  N   UNL     1       7.953   8.143  17.343  0.00  0.00    +0.000 NA
ATOM     26  N   UNL     1       7.473   7.059  16.654  0.00  0.00    +0.000 NA
ATOM     27  C   UNL     1       7.474   6.013  17.458  0.00  0.00    +0.000 A 
ENDBRANCH  21  27
ENDBRANCH  17  21
ENDBRANCH  11  17
ENDBRANCH   1  15
BRANCH   8  28
ATOM     28  C   UNL     1       0.261   9.481  22.373  0.00  0.00    +0.000 C 
ATOM     29  F   UNL     1       1.283   8.933  23.082  0.00  0.00    +0.000 F 
ATOM     30  F   UNL     1      -0.271  10.449  23.168  0.00  0.00    +0.000 F 
ATOM     31  F   UNL     1      -0.679   8.502  22.281  0.00  0.00    +0.000 F 
ENDBRANCH   8  28
BRANCH   6  32
ATOM     32  C   UNL     1       0.549  13.346  19.178  0.00  0.00    +0.000 C 
BRANCH  32  33
ATOM     33  N   UNL     1       1.248  14.287  20.095  0.00  0.00    +0.000 NA
ATOM     34  C   UNL     1       2.480  14.812  19.467  0.00  0.00    +0.000 C 
ATOM     35  C   UNL     1       1.966  15.906  18.573  0.00  0.00    +0.000 C 
ATOM     36  C   UNL     1       1.833  17.324  19.051  0.00  0.00    +0.000 C 
ATOM     37  C   UNL     1       0.659  16.370  19.147  0.00  0.00    +0.000 C 
ATOM     38  C   UNL     1      -0.547  16.685  18.320  0.00  0.00    +0.000 C 
ATOM     39  C   UNL     1       0.424  15.497  20.358  0.00  0.00    +0.000 C 
ENDBRANCH  32  33
ENDBRANCH   6  32
TORSDOF 7
ENDMDL
MODEL 7
REMARK VINA RESULT:      -8.8      2.577      9.735
REMARK  Name = 
REMARK  9 active torsions:
REMARK  status: ('A' for Active; 'I' for Inactive)
REMARK    1  A    between atoms: C_1  and  N_2
REMARK    2  A    between atoms: C_6  and  C_7
REMARK    3  A    between atoms: C_7  and  C_8
REMARK    4  A    between atoms: C_8  and  C_9
REMARK    5  A    between atoms: C_13  and  N_14
REMARK    6  A    between atoms: C_19  and  C_20
REMARK    7  A    between atoms: C_20  and  N_21
REMARK    8  A    between atoms: C_25  and  C_26
REMARK    9  A    between atoms: C_29  and  C_30
REMARK                            x       y       z     vdW  Elec       q    Type
REMARK                         _______ _______ _______ _____ _____    ______ ____
ROOT
ATOM      1  N   UNL     1       1.272   8.419  20.484  0.00  0.00    +0.000 N 
ATOM      2  C   UNL     1       1.446   7.073  20.979  0.00  0.00    +0.000 C 
ATOM      3  C   UNL     1       2.189   6.373  19.915  0.00  0.00    +0.000 A 
ATOM      4  C   UNL     1       2.552   7.262  18.914  0.00  0.00    +0.000 A 
ATOM      5  C   UNL     1       3.317   6.824  17.831  0.00  0.00    +0.000 A 
ATOM      6  C   UNL     1       3.657   5.448  17.767  0.00  0.00    +0.000 A 
ATOM      7  C   UNL     1       3.218   4.568  18.784  0.00  0.00    +0.000 A 
ATOM      8  C   UNL     1       2.478   5.017  19.877  0.00  0.00    +0.000 A 
ATOM      9  C   UNL     1       1.942   8.596  19.265  0.00  0.00    +0.000 C 
ATOM     10  O   UNL     1       2.033   9.588  18.557  0.00  0.00    +0.000 OA
ENDROOT
BRANCH   1  15
ATOM     11  C   UNL     1      -1.150  11.257  21.035  0.00  0.00    +0.000 A 
ATOM     12  C   UNL     1      -1.281  11.198  22.427  0.00  0.00    +0.000 A 
ATOM     13  C   UNL     1      -0.631  10.204  23.185  0.00  0.00    +0.000 A 
ATOM     14  C   UNL     1       0.200   9.237  22.579  0.00  0.00    +0.000 A 
ATOM     15  C   UNL     1       0.384   9.267  21.207  0.00  0.00    +0.000 A 
ATOM     16  C   UNL     1      -0.324  10.261  20.487  0.00  0.00    +0.000 A 
BRANCH  11  17
ATOM     17  C   UNL     1      -1.879  12.341  20.067  0.00  0.00    +0.000 C 
ATOM     18  C   UNL     1      -3.173  12.978  20.641  0.00  0.00    +0.000 C 
ATOM     19  O   UNL     1      -3.984  12.478  19.561  0.00  0.00    +0.000 OA
ATOM     20  C   UNL     1      -2.853  11.804  18.971  0.00  0.00    +0.000 C 
BRANCH  17  21
ATOM     21  C   UNL     1      -0.880  13.386  19.506  0.00  0.00    +0.000 C 
BRANCH  21  27
ATOM     22  C   UNL     1       2.266  13.103  19.538  0.00  0.00    +0.000 C 
ATOM     23  N   UNL     1       1.444  13.795  20.497  0.00  0.00    +0.000 N 
ATOM     24  C   UNL     1       1.914  14.423  21.612  0.00  0.00    +0.000 A 
ATOM     25  N   UNL     1       0.907  14.921  22.289  0.00  0.00    +0.000 NA
ATOM     26  N   UNL     1      -0.243  14.600  21.614  0.00  0.00    +0.000 NA
ATOM     27  C   UNL     1       0.079  13.941  20.518  0.00  0.00    +0.000 A 
ENDBRANCH  21  27
ENDBRANCH  17  21
ENDBRANCH  11  17
ENDBRANCH   1  15
BRANCH   8  28
ATOM     28  C   UNL     1       2.014   4.055  20.939  0.00  0.00    +0.000 C 
ATOM     29  F   UNL     1       2.465   2.784  20.772  0.00  0.00    +0.000 F 
ATOM     30  F   UNL     1       2.408   4.432  22.186  0.00  0.00    +0.000 F 
ATOM     31  F   UNL     1       0.657   3.954  20.982  0.00  0.00    +0.000 F 
ENDBRANCH   8  28
BRANCH   6  32
ATOM     32  C   UNL     1       4.551   4.858  16.680  0.00  0.00    +0.000 C 
BRANCH  32  33
ATOM     33  N   UNL     1       5.502   5.843  16.099  0.00  0.00    +0.000 NA
ATOM     34  C   UNL     1       6.900   5.397  16.288  0.00  0.00    +0.000 C 
ATOM     35  C   UNL     1       7.093   4.403  15.176  0.00  0.00    +0.000 C 
ATOM     36  C   UNL     1       7.607   4.813  13.826  0.00  0.00    +0.000 C 
ATOM     37  C   UNL     1       6.116   4.756  14.092  0.00  0.00    +0.000 C 
ATOM     38  C   UNL     1       5.323   3.745  13.326  0.00  0.00    +0.000 C 
ATOM     39  C   UNL     1       5.343   5.941  14.623  0.00  0.00    +0.000 C 
ENDBRANCH  32  33
ENDBRANCH   6  32
TORSDOF 7
ENDMDL
MODEL 8
REMARK VINA RESULT:      -8.8      2.473      9.871
REMARK  Name = 
REMARK  9 active torsions:
REMARK  status: ('A' for Active; 'I' for Inactive)
REMARK    1  A    between atoms: C_1  and  N_2
REMARK    2  A    between atoms: C_6  and  C_7
REMARK    3  A    between atoms: C_7  and  C_8
REMARK    4  A    between atoms: C_8  and  C_9
REMARK    5  A    between atoms: C_13  and  N_14
REMARK    6  A    between atoms: C_19  and  C_20
REMARK    7  A    between atoms: C_20  and  N_21
REMARK    8  A    between atoms: C_25  and  C_26
REMARK    9  A    between atoms: C_29  and  C_30
REMARK                            x       y       z     vdW  Elec       q    Type
REMARK                         _______ _______ _______ _____ _____    ______ ____
ROOT
ATOM      1  N   UNL     1       1.388   8.093  20.456  0.00  0.00    +0.000 N 
ATOM      2  C   UNL     1       1.500   6.736  20.937  0.00  0.00    +0.000 C 
ATOM      3  C   UNL     1       2.244   6.023  19.883  0.00  0.00    +0.000 A 
ATOM      4  C   UNL     1       2.665   6.910  18.903  0.00  0.00    +0.000 A 
ATOM      5  C   UNL     1       3.440   6.457  17.834  0.00  0.00    +0.000 A 
ATOM      6  C   UNL     1       3.732   5.070  17.759  0.00  0.00    +0.000 A 
ATOM      7  C   UNL     1       3.235   4.195  18.753  0.00  0.00    +0.000 A 
ATOM      8  C   UNL     1       2.484   4.657  19.834  0.00  0.00    +0.000 A 
ATOM      9  C   UNL     1       2.095   8.261  19.256  0.00  0.00    +0.000 C 
ATOM     10  O   UNL     1       2.241   9.258  18.564  0.00  0.00    +0.000 OA
ENDROOT
BRANCH   1  15
ATOM     11  C   UNL     1      -0.799  11.110  21.038  0.00  0.00    +0.000 A 
ATOM     12  C   UNL     1      -1.079  10.947  22.400  0.00  0.00    +0.000 A 
ATOM     13  C   UNL     1      -0.607   9.831  23.120  0.00  0.00    +0.000 A 
ATOM     14  C   UNL     1       0.187   8.839  22.507  0.00  0.00    +0.000 A 
ATOM     15  C   UNL     1       0.514   8.965  21.168  0.00  0.00    +0.000 A 
ATOM     16  C   UNL     1      -0.018  10.083  20.480  0.00  0.00    +0.000 A 
BRANCH  11  17
ATOM     17  C   UNL     1      -1.318  12.341  20.112  0.00  0.00    +0.000 C 
ATOM     18  C   UNL     1      -2.556  12.031  19.229  0.00  0.00    +0.000 C 
ATOM     19  O   UNL     1      -1.843  12.301  18.007  0.00  0.00    +0.000 OA
ATOM     20  C   UNL     1      -0.622  12.560  18.731  0.00  0.00    +0.000 C 
BRANCH  17  21
ATOM     21  C   UNL     1      -1.455  13.659  20.917  0.00  0.00    +0.000 C 
BRANCH  21  27
ATOM     22  C   UNL     1      -0.116  16.122  19.462  0.00  0.00    +0.000 C 
ATOM     23  N   UNL     1       0.396  15.396  20.594  0.00  0.00    +0.000 N 
ATOM     24  C   UNL     1       1.588  15.653  21.206  0.00  0.00    +0.000 A 
ATOM     25  N   UNL     1       1.773  14.793  22.178  0.00  0.00    +0.000 NA
ATOM     26  N   UNL     1       0.692  13.949  22.194  0.00  0.00    +0.000 NA
ATOM     27  C   UNL     1      -0.154  14.325  21.254  0.00  0.00    +0.000 A 
ENDBRANCH  21  27
ENDBRANCH  17  21
ENDBRANCH  11  17
ENDBRANCH   1  15
BRANCH   8  28
ATOM     28  C   UNL     1       1.959   3.700  20.871  0.00  0.00    +0.000 C 
ATOM     29  F   UNL     1       2.320   2.406  20.666  0.00  0.00    +0.000 F 
ATOM     30  F   UNL     1       2.381   4.013  22.126  0.00  0.00    +0.000 F 
ATOM     31  F   UNL     1       0.598   3.691  20.918  0.00  0.00    +0.000 F 
ENDBRANCH   8  28
BRANCH   6  32
ATOM     32  C   UNL     1       4.631   4.461  16.687  0.00  0.00    +0.000 C 
BRANCH  32  33
ATOM     33  N   UNL     1       5.643   5.413  16.156  0.00  0.00    +0.000 NA
ATOM     34  C   UNL     1       6.985   4.790  16.130  0.00  0.00    +0.000 C 
ATOM     35  C   UNL     1       6.952   3.965  14.873  0.00  0.00    +0.000 C 
ATOM     36  C   UNL     1       7.393   4.519  13.549  0.00  0.00    +0.000 C 
ATOM     37  C   UNL     1       5.936   4.588  13.960  0.00  0.00    +0.000 C 
ATOM     38  C   UNL     1       4.958   3.802  13.145  0.00  0.00    +0.000 C 
ATOM     39  C   UNL     1       5.368   5.755  14.734  0.00  0.00    +0.000 C 
ENDBRANCH  32  33
ENDBRANCH   6  32
TORSDOF 7
ENDMDL
MODEL 9
REMARK VINA RESULT:      -8.8      2.467      9.731
REMARK  Name = 
REMARK  9 active torsions:
REMARK  status: ('A' for Active; 'I' for Inactive)
REMARK    1  A    between atoms: C_1  and  N_2
REMARK    2  A    between atoms: C_6  and  C_7
REMARK    3  A    between atoms: C_7  and  C_8
REMARK    4  A    between atoms: C_8  and  C_9
REMARK    5  A    between atoms: C_13  and  N_14
REMARK    6  A    between atoms: C_19  and  C_20
REMARK    7  A    between atoms: C_20  and  N_21
REMARK    8  A    between atoms: C_25  and  C_26
REMARK    9  A    between atoms: C_29  and  C_30
REMARK                            x       y       z     vdW  Elec       q    Type
REMARK                         _______ _______ _______ _____ _____    ______ ____
ROOT
ATOM      1  N   UNL     1       1.409   8.183  20.331  0.00  0.00    +0.000 N 
ATOM      2  C   UNL     1       1.494   6.831  20.831  0.00  0.00    +0.000 C 
ATOM      3  C   UNL     1       2.245   6.094  19.798  0.00  0.00    +0.000 A 
ATOM      4  C   UNL     1       2.694   6.962  18.814  0.00  0.00    +0.000 A 
ATOM      5  C   UNL     1       3.480   6.485  17.764  0.00  0.00    +0.000 A 
ATOM      6  C   UNL     1       3.752   5.093  17.712  0.00  0.00    +0.000 A 
ATOM      7  C   UNL     1       3.227   4.238  18.709  0.00  0.00    +0.000 A 
ATOM      8  C   UNL     1       2.466   4.725  19.771  0.00  0.00    +0.000 A 
ATOM      9  C   UNL     1       2.138   8.326  19.141  0.00  0.00    +0.000 C 
ATOM     10  O   UNL     1       2.309   9.311  18.439  0.00  0.00    +0.000 OA
ENDROOT
BRANCH   1  15
ATOM     11  C   UNL     1      -0.866  11.156  20.790  0.00  0.00    +0.000 A 
ATOM     12  C   UNL     1      -1.074  11.091  22.173  0.00  0.00    +0.000 A 
ATOM     13  C   UNL     1      -0.524  10.053  22.951  0.00  0.00    +0.000 A 
ATOM     14  C   UNL     1       0.279   9.045  22.377  0.00  0.00    +0.000 A 
ATOM     15  C   UNL     1       0.536   9.076  21.017  0.00  0.00    +0.000 A 
ATOM     16  C   UNL     1      -0.072  10.118  20.274  0.00  0.00    +0.000 A 
BRANCH  11  17
ATOM     17  C   UNL     1      -1.477  12.292  19.800  0.00  0.00    +0.000 C 
ATOM     18  C   UNL     1      -2.890  11.988  19.235  0.00  0.00    +0.000 C 
ATOM     19  O   UNL     1      -2.429  12.009  17.871  0.00  0.00    +0.000 OA
ATOM     20  C   UNL     1      -1.069  12.242  18.293  0.00  0.00    +0.000 C 
BRANCH  17  21
ATOM     21  C   UNL     1      -1.350  13.717  20.397  0.00  0.00    +0.000 C 
BRANCH  21  27
ATOM     22  C   UNL     1       1.782  13.568  20.786  0.00  0.00    +0.000 C 
ATOM     23  N   UNL     1       1.051  14.479  19.945  0.00  0.00    +0.000 N 
ATOM     24  C   UNL     1       1.618  15.465  19.192  0.00  0.00    +0.000 A 
ATOM     25  N   UNL     1       0.678  16.136  18.573  0.00  0.00    +0.000 NA
ATOM     26  N   UNL     1      -0.527  15.593  18.939  0.00  0.00    +0.000 NA
ATOM     27  C   UNL     1      -0.304  14.576  19.749  0.00  0.00    +0.000 A 
ENDBRANCH  21  27
ENDBRANCH  17  21
ENDBRANCH  11  17
ENDBRANCH   1  15
BRANCH   8  28
ATOM     28  C   UNL     1       1.910   3.789  20.811  0.00  0.00    +0.000 C 
ATOM     29  F   UNL     1       2.311   4.067  22.080  0.00  0.00    +0.000 F 
ATOM     30  F   UNL     1       0.550   3.794  20.839  0.00  0.00    +0.000 F 
ATOM     31  F   UNL     1       2.282   2.498  20.591  0.00  0.00    +0.000 F 
ENDBRANCH   8  28
BRANCH   6  32
ATOM     32  C   UNL     1       4.660   4.458  16.662  0.00  0.00    +0.000 C 
BRANCH  32  33
ATOM     33  N   UNL     1       5.677   5.396  16.116  0.00  0.00    +0.000 NA
ATOM     34  C   UNL     1       7.006   4.748  16.053  0.00  0.00    +0.000 C 
ATOM     35  C   UNL     1       6.929   3.936  14.789  0.00  0.00    +0.000 C 
ATOM     36  C   UNL     1       7.349   4.496  13.461  0.00  0.00    +0.000 C 
ATOM     37  C   UNL     1       5.903   4.588  13.907  0.00  0.00    +0.000 C 
ATOM     38  C   UNL     1       4.892   3.828  13.108  0.00  0.00    +0.000 C 
ATOM     39  C   UNL     1       5.376   5.757  14.705  0.00  0.00    +0.000 C 
ENDBRANCH  32  33
ENDBRANCH   6  32
TORSDOF 7
ENDMDL
