MODEL 1
REMARK VINA RESULT:      -9.5      0.000      0.000
REMARK  Name = 
REMARK  10 active torsions:
REMARK  status: ('A' for Active; 'I' for Inactive)
REMARK    1  A    between atoms: C_1  and  C_2
REMARK    2  A    between atoms: C_2  and  C_3
REMARK    3  A    between atoms: C_2  and  C_10
REMARK    4  A    between atoms: C_3  and  C_4
REMARK    5  A    between atoms: N_8  and  C_9
REMARK    6  A    between atoms: C_14  and  N_15
REMARK    7  A    between atoms: C_20  and  C_21
REMARK    8  A    between atoms: C_21  and  N_22
REMARK    9  A    between atoms: C_24  and  O_25
REMARK   10  A    between atoms: C_30  and  C_31
REMARK                            x       y       z     vdW  Elec       q    Type
REMARK                         _______ _______ _______ _____ _____    ______ ____
ROOT
ATOM      1  N   UNL     1       1.478   7.797  20.284  0.00  0.00    +0.000 N 
ATOM      2  C   UNL     1       1.504   6.466  20.845  0.00  0.00    +0.000 C 
ATOM      3  C   UNL     1       2.198   5.638  19.844  0.00  0.00    +0.000 A 
ATOM      4  C   UNL     1       2.583   6.421  18.760  0.00  0.00    +0.000 A 
ATOM      5  C   UNL     1       3.273   5.841  17.700  0.00  0.00    +0.000 A 
ATOM      6  C   UNL     1       3.548   4.449  17.755  0.00  0.00    +0.000 A 
ATOM      7  C   UNL     1       3.122   3.687  18.870  0.00  0.00    +0.000 A 
ATOM      8  C   UNL     1       2.443   4.272  19.938  0.00  0.00    +0.000 A 
ATOM      9  C   UNL     1       2.106   7.826  19.020  0.00  0.00    +0.000 C 
ATOM     10  O   UNL     1       2.271   8.752  18.250  0.00  0.00    +0.000 OA
ENDROOT
BRANCH   1  15
ATOM     11  C   UNL     1      -0.530  10.929  20.778  0.00  0.00    +0.000 A 
ATOM     12  C   UNL     1      -0.588  11.006  22.167  0.00  0.00    +0.000 A 
ATOM     13  C   UNL     1      -0.006   9.994  22.956  0.00  0.00    +0.000 A 
ATOM     14  C   UNL     1       0.674   8.904  22.376  0.00  0.00    +0.000 A 
ATOM     15  C   UNL     1       0.734   8.792  20.997  0.00  0.00    +0.000 A 
ATOM     16  C   UNL     1       0.052   9.776  20.242  0.00  0.00    +0.000 A 
BRANCH  11  18
ATOM     17  C   UNL     1       0.055  13.223  19.822  0.00  0.00    +0.000 C 
ATOM     18  C   UNL     1      -0.979  12.070  19.853  0.00  0.00    +0.000 C 
BRANCH  18  19
ATOM     19  C   UNL     1      -1.306  11.580  18.425  0.00  0.00    +0.000 C 
BRANCH  19  20
ATOM     20  C   UNL     1      -2.776  11.582  18.129  0.00  0.00    +0.000 A 
ATOM     21  N   UNL     1      -3.730  11.992  18.944  0.00  0.00    +0.000 NA
ATOM     22  N   UNL     1      -4.941  11.817  18.318  0.00  0.00    +0.000 NA
ATOM     23  C   UNL     1      -4.705  11.317  17.129  0.00  0.00    +0.000 A 
ATOM     24  N   UNL     1      -3.363  11.154  16.966  0.00  0.00    +0.000 N 
ATOM     25  C   UNL     1      -2.715  10.640  15.792  0.00  0.00    +0.000 C 
ENDBRANCH  19  20
ENDBRANCH  18  19
ENDBRANCH  11  18
ENDBRANCH   1  15
BRANCH   8  26
ATOM     26  C   UNL     1       2.014   3.450  21.126  0.00  0.00    +0.000 C 
ATOM     27  F   UNL     1       2.361   3.993  22.327  0.00  0.00    +0.000 F 
ATOM     28  F   UNL     1       0.667   3.275  21.179  0.00  0.00    +0.000 F 
ATOM     29  F   UNL     1       2.563   2.206  21.117  0.00  0.00    +0.000 F 
ENDBRANCH   8  26
BRANCH   6  30
ATOM     30  C   UNL     1       4.362   3.725  16.692  0.00  0.00    +0.000 C 
BRANCH  30  31
ATOM     31  N   UNL     1       5.284   4.612  15.953  0.00  0.00    +0.000 NA
ATOM     32  C   UNL     1       6.695   4.235  16.162  0.00  0.00    +0.000 C 
ATOM     33  C   UNL     1       7.423   4.639  14.880  0.00  0.00    +0.000 C 
ATOM     34  C   UNL     1       6.385   4.437  13.791  0.00  0.00    +0.000 C 
ATOM     35  F   UNL     1       6.505   3.174  13.291  0.00  0.00    +0.000 F 
ATOM     36  C   UNL     1       5.037   4.554  14.497  0.00  0.00    +0.000 C 
BRANCH  33  37
ATOM     37  O   UNL     1       7.862   5.998  14.924  0.00  0.00    +0.000 OA
ATOM     38  H   UNL     1       7.073   6.552  15.065  0.00  0.00    +0.000 HD
ENDBRANCH  33  37
ENDBRANCH  30  31
ENDBRANCH   6  30
TORSDOF 8
ENDMDL
MODEL 2
REMARK VINA RESULT:      -9.3      1.204      1.416
REMARK  Name = 
REMARK  10 active torsions:
REMARK  status: ('A' for Active; 'I' for Inactive)
REMARK    1  A    between atoms: C_1  and  C_2
REMARK    2  A    between atoms: C_2  and  C_3
REMARK    3  A    between atoms: C_2  and  C_10
REMARK    4  A    between atoms: C_3  and  C_4
REMARK    5  A    between atoms: N_8  and  C_9
REMARK    6  A    between atoms: C_14  and  N_15
REMARK    7  A    between atoms: C_20  and  C_21
REMARK    8  A    between atoms: C_21  and  N_22
REMARK    9  A    between atoms: C_24  and  O_25
REMARK   10  A    between atoms: C_30  and  C_31
REMARK                            x       y       z     vdW  Elec       q    Type
REMARK                         _______ _______ _______ _____ _____    ______ ____
ROOT
ATOM      1  N   UNL     1       1.651   7.642  20.159  0.00  0.00    +0.000 N 
ATOM      2  C   UNL     1       1.665   6.346  20.796  0.00  0.00    +0.000 C 
ATOM      3  C   UNL     1       2.320   5.446  19.832  0.00  0.00    +0.000 A 
ATOM      4  C   UNL     1       2.696   6.157  18.696  0.00  0.00    +0.000 A 
ATOM      5  C   UNL     1       3.350   5.501  17.657  0.00  0.00    +0.000 A 
ATOM      6  C   UNL     1       3.600   4.110  17.788  0.00  0.00    +0.000 A 
ATOM      7  C   UNL     1       3.185   3.424  18.954  0.00  0.00    +0.000 A 
ATOM      8  C   UNL     1       2.541   4.083  20.001  0.00  0.00    +0.000 A 
ATOM      9  C   UNL     1       2.252   7.584  18.882  0.00  0.00    +0.000 C 
ATOM     10  O   UNL     1       2.417   8.460  18.055  0.00  0.00    +0.000 OA
ENDROOT
BRANCH   1  15
ATOM     11  C   UNL     1      -0.529  10.677  20.504  0.00  0.00    +0.000 A 
ATOM     12  C   UNL     1      -0.371  10.981  21.854  0.00  0.00    +0.000 A 
ATOM     13  C   UNL     1       0.418  10.154  22.677  0.00  0.00    +0.000 A 
ATOM     14  C   UNL     1       1.094   9.028  22.163  0.00  0.00    +0.000 A 
ATOM     15  C   UNL     1       0.943   8.692  20.828  0.00  0.00    +0.000 A 
ATOM     16  C   UNL     1       0.063   9.491  20.059  0.00  0.00    +0.000 A 
BRANCH  11  18
ATOM     17  C   UNL     1      -0.288  12.771  19.063  0.00  0.00    +0.000 C 
ATOM     18  C   UNL     1      -1.222  11.617  19.506  0.00  0.00    +0.000 C 
BRANCH  18  19
ATOM     19  C   UNL     1      -1.791  10.864  18.283  0.00  0.00    +0.000 C 
BRANCH  19  20
ATOM     20  C   UNL     1      -3.171  11.319  17.908  0.00  0.00    +0.000 A 
ATOM     21  N   UNL     1      -4.081  11.796  18.736  0.00  0.00    +0.000 NA
ATOM     22  N   UNL     1      -5.216  12.081  18.016  0.00  0.00    +0.000 NA
ATOM     23  C   UNL     1      -4.975  11.785  16.762  0.00  0.00    +0.000 A 
ATOM     24  N   UNL     1      -3.707  11.306  16.646  0.00  0.00    +0.000 N 
ATOM     25  C   UNL     1      -3.075  10.884  15.428  0.00  0.00    +0.000 C 
ENDBRANCH  19  20
ENDBRANCH  18  19
ENDBRANCH  11  18
ENDBRANCH   1  15
BRANCH   8  26
ATOM     26  C   UNL     1       2.124   3.341  21.244  0.00  0.00    +0.000 C 
ATOM     27  F   UNL     1       2.463   3.972  22.403  0.00  0.00    +0.000 F 
ATOM     28  F   UNL     1       0.779   3.153  21.310  0.00  0.00    +0.000 F 
ATOM     29  F   UNL     1       2.689   2.108  21.322  0.00  0.00    +0.000 F 
ENDBRANCH   8  26
BRANCH   6  30
ATOM     30  C   UNL     1       4.375   3.309  16.751  0.00  0.00    +0.000 C 
BRANCH  30  31
ATOM     31  N   UNL     1       5.661   3.928  16.372  0.00  0.00    +0.000 NA
ATOM     32  C   UNL     1       5.468   5.142  15.555  0.00  0.00    +0.000 C 
ATOM     33  C   UNL     1       6.663   6.043  15.868  0.00  0.00    +0.000 C 
ATOM     34  C   UNL     1       6.977   5.740  17.322  0.00  0.00    +0.000 C 
ATOM     35  F   UNL     1       6.294   6.613  18.116  0.00  0.00    +0.000 F 
ATOM     36  C   UNL     1       6.435   4.335  17.565  0.00  0.00    +0.000 C 
BRANCH  33  37
ATOM     37  O   UNL     1       7.783   5.751  15.029  0.00  0.00    +0.000 OA
ATOM     38  H   UNL     1       7.442   5.283  14.246  0.00  0.00    +0.000 HD
ENDBRANCH  33  37
ENDBRANCH  30  31
ENDBRANCH   6  30
TORSDOF 8
ENDMDL
MODEL 3
REMARK VINA RESULT:      -9.2      1.561      1.913
REMARK  Name = 
REMARK  10 active torsions:
REMARK  status: ('A' for Active; 'I' for Inactive)
REMARK    1  A    between atoms: C_1  and  C_2
REMARK    2  A    between atoms: C_2  and  C_3
REMARK    3  A    between atoms: C_2  and  C_10
REMARK    4  A    between atoms: C_3  and  C_4
REMARK    5  A    between atoms: N_8  and  C_9
REMARK    6  A    between atoms: C_14  and  N_15
REMARK    7  A    between atoms: C_20  and  C_21
REMARK    8  A    between atoms: C_21  and  N_22
REMARK    9  A    between atoms: C_24  and  O_25
REMARK   10  A    between atoms: C_30  and  C_31
REMARK                            x       y       z     vdW  Elec       q    Type
REMARK                         _______ _______ _______ _____ _____    ______ ____
ROOT
ATOM      1  N   UNL     1       1.273   8.242  20.448  0.00  0.00    +0.000 N 
ATOM      2  C   UNL     1       1.379   6.870  20.887  0.00  0.00    +0.000 C 
ATOM      3  C   UNL     1       2.152   6.185  19.837  0.00  0.00    +0.000 A 
ATOM      4  C   UNL     1       2.507   7.089  18.840  0.00  0.00    +0.000 A 
ATOM      5  C   UNL     1       3.260   6.655  17.753  0.00  0.00    +0.000 A 
ATOM      6  C   UNL     1       3.631   5.287  17.691  0.00  0.00    +0.000 A 
ATOM      7  C   UNL     1       3.233   4.399  18.720  0.00  0.00    +0.000 A 
ATOM      8  C   UNL     1       2.490   4.836  19.816  0.00  0.00    +0.000 A 
ATOM      9  C   UNL     1       1.927   8.429  19.211  0.00  0.00    +0.000 C 
ATOM     10  O   UNL     1       2.045   9.430  18.532  0.00  0.00    +0.000 OA
ENDROOT
BRANCH   1  15
ATOM     11  C   UNL     1      -0.910  11.207  21.176  0.00  0.00    +0.000 A 
ATOM     12  C   UNL     1      -1.043  11.121  22.560  0.00  0.00    +0.000 A 
ATOM     13  C   UNL     1      -0.454  10.050  23.262  0.00  0.00    +0.000 A 
ATOM     14  C   UNL     1       0.308   9.064  22.602  0.00  0.00    +0.000 A 
ATOM     15  C   UNL     1       0.445   9.115  21.225  0.00  0.00    +0.000 A 
ATOM     16  C   UNL     1      -0.244  10.150  20.548  0.00  0.00    +0.000 A 
BRANCH  11  18
ATOM     17  C   UNL     1      -0.416  13.635  20.560  0.00  0.00    +0.000 C 
ATOM     18  C   UNL     1      -1.365  12.426  20.363  0.00  0.00    +0.000 C 
BRANCH  18  19
ATOM     19  C   UNL     1      -1.545  12.103  18.863  0.00  0.00    +0.000 C 
BRANCH  19  20
ATOM     20  C   UNL     1      -2.952  11.716  18.513  0.00  0.00    +0.000 A 
ATOM     21  N   UNL     1      -4.045  12.142  19.118  0.00  0.00    +0.000 NA
ATOM     22  N   UNL     1      -5.131  11.547  18.521  0.00  0.00    +0.000 NA
ATOM     23  C   UNL     1      -4.683  10.781  17.556  0.00  0.00    +0.000 A 
ATOM     24  N   UNL     1      -3.325  10.856  17.512  0.00  0.00    +0.000 N 
ATOM     25  C   UNL     1      -2.473  10.167  16.584  0.00  0.00    +0.000 C 
ENDBRANCH  19  20
ENDBRANCH  18  19
ENDBRANCH  11  18
ENDBRANCH   1  15
BRANCH   8  26
ATOM     26  C   UNL     1       2.092   3.882  20.912  0.00  0.00    +0.000 C 
ATOM     27  F   UNL     1       2.599   2.626  20.761  0.00  0.00    +0.000 F 
ATOM     28  F   UNL     1       2.503   4.298  22.139  0.00  0.00    +0.000 F 
ATOM     29  F   UNL     1       0.744   3.723  20.992  0.00  0.00    +0.000 F 
ENDBRANCH   8  26
BRANCH   6  30
ATOM     30  C   UNL     1       4.517   4.720  16.591  0.00  0.00    +0.000 C 
BRANCH  30  31
ATOM     31  N   UNL     1       5.867   5.320  16.557  0.00  0.00    +0.000 NA
ATOM     32  C   UNL     1       5.841   6.753  16.911  0.00  0.00    +0.000 C 
ATOM     33  C   UNL     1       7.194   7.040  17.561  0.00  0.00    +0.000 C 
ATOM     34  C   UNL     1       7.542   5.743  18.269  0.00  0.00    +0.000 C 
ATOM     35  F   UNL     1       7.077   5.796  19.550  0.00  0.00    +0.000 F 
ATOM     36  C   UNL     1       6.775   4.659  17.518  0.00  0.00    +0.000 C 
BRANCH  33  37
ATOM     37  O   UNL     1       8.188   7.378  16.591  0.00  0.00    +0.000 OA
ATOM     38  H   UNL     1       8.182   8.348  16.498  0.00  0.00    +0.000 HD
ENDBRANCH  33  37
ENDBRANCH  30  31
ENDBRANCH   6  30
TORSDOF 8
ENDMDL
MODEL 4
REMARK VINA RESULT:      -9.1      3.800      9.598
REMARK  Name = 
REMARK  10 active torsions:
REMARK  status: ('A' for Active; 'I' for Inactive)
REMARK    1  A    between atoms: C_1  and  C_2
REMARK    2  A    between atoms: C_2  and  C_3
REMARK    3  A    between atoms: C_2  and  C_10
REMARK    4  A    between atoms: C_3  and  C_4
REMARK    5  A    between atoms: N_8  and  C_9
REMARK    6  A    between atoms: C_14  and  N_15
REMARK    7  A    between atoms: C_20  and  C_21
REMARK    8  A    between atoms: C_21  and  N_22
REMARK    9  A    between atoms: C_24  and  O_25
REMARK   10  A    between atoms: C_30  and  C_31
REMARK                            x       y       z     vdW  Elec       q    Type
REMARK                         _______ _______ _______ _____ _____    ______ ____
ROOT
ATOM      1  N   UNL     1       2.246   7.318  19.262  0.00  0.00    +0.000 N 
ATOM      2  C   UNL     1       1.561   7.746  20.460  0.00  0.00    +0.000 C 
ATOM      3  C   UNL     1       1.055   9.095  20.155  0.00  0.00    +0.000 A 
ATOM      4  C   UNL     1       1.394   9.449  18.853  0.00  0.00    +0.000 A 
ATOM      5  C   UNL     1       0.998  10.685  18.349  0.00  0.00    +0.000 A 
ATOM      6  C   UNL     1       0.266  11.557  19.197  0.00  0.00    +0.000 A 
ATOM      7  C   UNL     1      -0.042  11.162  20.521  0.00  0.00    +0.000 A 
ATOM      8  C   UNL     1       0.343   9.919  21.021  0.00  0.00    +0.000 A 
ATOM      9  C   UNL     1       2.186   8.313  18.262  0.00  0.00    +0.000 C 
ATOM     10  O   UNL     1       2.647   8.320  17.137  0.00  0.00    +0.000 OA
ENDROOT
BRANCH   1  15
ATOM     11  C   UNL     1       4.558   4.589  18.124  0.00  0.00    +0.000 A 
ATOM     12  C   UNL     1       4.318   3.605  19.080  0.00  0.00    +0.000 A 
ATOM     13  C   UNL     1       3.426   3.853  20.142  0.00  0.00    +0.000 A 
ATOM     14  C   UNL     1       2.730   5.074  20.252  0.00  0.00    +0.000 A 
ATOM     15  C   UNL     1       2.960   6.077  19.326  0.00  0.00    +0.000 A 
ATOM     16  C   UNL     1       3.936   5.824  18.333  0.00  0.00    +0.000 A 
BRANCH  11  18
ATOM     17  C   UNL     1       4.933   5.277  15.694  0.00  0.00    +0.000 C 
ATOM     18  C   UNL     1       5.372   4.340  16.847  0.00  0.00    +0.000 C 
BRANCH  18  19
ATOM     19  C   UNL     1       6.895   4.435  17.088  0.00  0.00    +0.000 C 
BRANCH  19  20
ATOM     20  C   UNL     1       7.352   5.831  17.392  0.00  0.00    +0.000 A 
ATOM     21  N   UNL     1       7.441   6.823  16.526  0.00  0.00    +0.000 NA
ATOM     22  N   UNL     1       7.916   7.933  17.182  0.00  0.00    +0.000 NA
ATOM     23  C   UNL     1       8.097   7.603  18.439  0.00  0.00    +0.000 A 
ATOM     24  N   UNL     1       7.756   6.297  18.617  0.00  0.00    +0.000 N 
ATOM     25  C   UNL     1       7.809   5.576  19.857  0.00  0.00    +0.000 C 
ENDBRANCH  19  20
ENDBRANCH  18  19
ENDBRANCH  11  18
ENDBRANCH   1  15
BRANCH   8  26
ATOM     26  C   UNL     1      -0.011   9.506  22.427  0.00  0.00    +0.000 C 
ATOM     27  F   UNL     1      -0.836   8.423  22.492  0.00  0.00    +0.000 F 
ATOM     28  F   UNL     1       1.083   9.178  23.164  0.00  0.00    +0.000 F 
ATOM     29  F   UNL     1      -0.651  10.493  23.108  0.00  0.00    +0.000 F 
ENDBRANCH   8  26
BRANCH   6  30
ATOM     30  C   UNL     1      -0.284  12.896  18.728  0.00  0.00    +0.000 C 
BRANCH  30  31
ATOM     31  N   UNL     1       0.240  14.046  19.494  0.00  0.00    +0.000 NA
ATOM     32  C   UNL     1       1.340  14.726  18.783  0.00  0.00    +0.000 C 
ATOM     33  C   UNL     1       1.266  16.190  19.216  0.00  0.00    +0.000 C 
ATOM     34  C   UNL     1      -0.217  16.435  19.426  0.00  0.00    +0.000 C 
ATOM     35  F   UNL     1      -0.761  16.899  18.265  0.00  0.00    +0.000 F 
ATOM     36  C   UNL     1      -0.810  15.061  19.725  0.00  0.00    +0.000 C 
BRANCH  33  37
ATOM     37  O   UNL     1       2.001  16.427  20.418  0.00  0.00    +0.000 OA
ATOM     38  H   UNL     1       2.835  15.928  20.350  0.00  0.00    +0.000 HD
ENDBRANCH  33  37
ENDBRANCH  30  31
ENDBRANCH   6  30
TORSDOF 8
ENDMDL
MODEL 5
REMARK VINA RESULT:      -9.1      3.655      9.875
REMARK  Name = 
REMARK  10 active torsions:
REMARK  status: ('A' for Active; 'I' for Inactive)
REMARK    1  A    between atoms: C_1  and  C_2
REMARK    2  A    between atoms: C_2  and  C_3
REMARK    3  A    between atoms: C_2  and  C_10
REMARK    4  A    between atoms: C_3  and  C_4
REMARK    5  A    between atoms: N_8  and  C_9
REMARK    6  A    between atoms: C_14  and  N_15
REMARK    7  A    between atoms: C_20  and  C_21
REMARK    8  A    between atoms: C_21  and  N_22
REMARK    9  A    between atoms: C_24  and  O_25
REMARK   10  A    between atoms: C_30  and  C_31
REMARK                            x       y       z     vdW  Elec       q    Type
REMARK                         _______ _______ _______ _____ _____    ______ ____
ROOT
ATOM      1  N   UNL     1       2.237   7.505  19.212  0.00  0.00    +0.000 N 
ATOM      2  C   UNL     1       1.558   7.863  20.437  0.00  0.00    +0.000 C 
ATOM      3  C   UNL     1       0.986   9.197  20.187  0.00  0.00    +0.000 A 
ATOM      4  C   UNL     1       1.281   9.608  18.891  0.00  0.00    +0.000 A 
ATOM      5  C   UNL     1       0.820  10.839  18.436  0.00  0.00    +0.000 A 
ATOM      6  C   UNL     1       0.068  11.650  19.326  0.00  0.00    +0.000 A 
ATOM      7  C   UNL     1      -0.195  11.198  20.642  0.00  0.00    +0.000 A 
ATOM      8  C   UNL     1       0.256   9.958  21.094  0.00  0.00    +0.000 A 
ATOM      9  C   UNL     1       2.112   8.528  18.248  0.00  0.00    +0.000 C 
ATOM     10  O   UNL     1       2.548   8.593  17.115  0.00  0.00    +0.000 OA
ENDROOT
BRANCH   1  15
ATOM     11  C   UNL     1       4.969   5.132  18.218  0.00  0.00    +0.000 A 
ATOM     12  C   UNL     1       4.574   3.965  18.869  0.00  0.00    +0.000 A 
ATOM     13  C   UNL     1       3.426   3.965  19.686  0.00  0.00    +0.000 A 
ATOM     14  C   UNL     1       2.630   5.119  19.843  0.00  0.00    +0.000 A 
ATOM     15  C   UNL     1       3.007   6.297  19.221  0.00  0.00    +0.000 A 
ATOM     16  C   UNL     1       4.219   6.280  18.491  0.00  0.00    +0.000 A 
BRANCH  11  18
ATOM     17  C   UNL     1       7.416   4.587  17.738  0.00  0.00    +0.000 C 
ATOM     18  C   UNL     1       6.096   5.173  17.177  0.00  0.00    +0.000 C 
BRANCH  18  19
ATOM     19  C   UNL     1       5.703   4.484  15.852  0.00  0.00    +0.000 C 
BRANCH  19  20
ATOM     20  C   UNL     1       6.646   4.796  14.728  0.00  0.00    +0.000 A 
ATOM     21  N   UNL     1       7.709   5.574  14.804  0.00  0.00    +0.000 NA
ATOM     22  N   UNL     1       8.300   5.624  13.563  0.00  0.00    +0.000 NA
ATOM     23  C   UNL     1       7.596   4.866  12.758  0.00  0.00    +0.000 A 
ATOM     24  N   UNL     1       6.551   4.326  13.444  0.00  0.00    +0.000 N 
ATOM     25  C   UNL     1       5.563   3.434  12.906  0.00  0.00    +0.000 C 
ENDBRANCH  19  20
ENDBRANCH  18  19
ENDBRANCH  11  18
ENDBRANCH   1  15
BRANCH   8  26
ATOM     26  C   UNL     1      -0.049   9.485  22.491  0.00  0.00    +0.000 C 
ATOM     27  F   UNL     1       1.059   9.243  23.246  0.00  0.00    +0.000 F 
ATOM     28  F   UNL     1      -0.783  10.386  23.197  0.00  0.00    +0.000 F 
ATOM     29  F   UNL     1      -0.756   8.324  22.499  0.00  0.00    +0.000 F 
ENDBRANCH   8  26
BRANCH   6  30
ATOM     30  C   UNL     1      -0.552  12.977  18.913  0.00  0.00    +0.000 C 
BRANCH  30  31
ATOM     31  N   UNL     1      -0.053  14.127  19.696  0.00  0.00    +0.000 NA
ATOM     32  C   UNL     1       0.884  14.958  18.916  0.00  0.00    +0.000 C 
ATOM     33  C   UNL     1       0.723  16.378  19.459  0.00  0.00    +0.000 C 
ATOM     34  C   UNL     1      -0.741  16.454  19.853  0.00  0.00    +0.000 C 
ATOM     35  F   UNL     1      -1.463  16.929  18.798  0.00  0.00    +0.000 F 
ATOM     36  C   UNL     1      -1.160  15.011  20.118  0.00  0.00    +0.000 C 
BRANCH  33  37
ATOM     37  O   UNL     1       1.571  16.617  20.584  0.00  0.00    +0.000 OA
ATOM     38  H   UNL     1       1.258  16.045  21.307  0.00  0.00    +0.000 HD
ENDBRANCH  33  37
ENDBRANCH  30  31
ENDBRANCH   6  30
TORSDOF 8
ENDMDL
MODEL 6
REMARK VINA RESULT:      -9.1      3.146      9.338
REMARK  Name = 
REMARK  10 active torsions:
REMARK  status: ('A' for Active; 'I' for Inactive)
REMARK    1  A    between atoms: C_1  and  C_2
REMARK    2  A    between atoms: C_2  and  C_3
REMARK    3  A    between atoms: C_2  and  C_10
REMARK    4  A    between atoms: C_3  and  C_4
REMARK    5  A    between atoms: N_8  and  C_9
REMARK    6  A    between atoms: C_14  and  N_15
REMARK    7  A    between atoms: C_20  and  C_21
REMARK    8  A    between atoms: C_21  and  N_22
REMARK    9  A    between atoms: C_24  and  O_25
REMARK   10  A    between atoms: C_30  and  C_31
REMARK                            x       y       z     vdW  Elec       q    Type
REMARK                         _______ _______ _______ _____ _____    ______ ____
ROOT
ATOM      1  N   UNL     1       2.293   7.313  19.273  0.00  0.00    +0.000 N 
ATOM      2  C   UNL     1       1.665   7.681  20.521  0.00  0.00    +0.000 C 
ATOM      3  C   UNL     1       1.034   8.987  20.267  0.00  0.00    +0.000 A 
ATOM      4  C   UNL     1       1.249   9.373  18.948  0.00  0.00    +0.000 A 
ATOM      5  C   UNL     1       0.722  10.575  18.486  0.00  0.00    +0.000 A 
ATOM      6  C   UNL     1      -0.012  11.383  19.393  0.00  0.00    +0.000 A 
ATOM      7  C   UNL     1      -0.193  10.959  20.732  0.00  0.00    +0.000 A 
ATOM      8  C   UNL     1       0.324   9.748  21.191  0.00  0.00    +0.000 A 
ATOM      9  C   UNL     1       2.083   8.305  18.290  0.00  0.00    +0.000 C 
ATOM     10  O   UNL     1       2.460   8.353  17.135  0.00  0.00    +0.000 OA
ENDROOT
BRANCH   1  15
ATOM     11  C   UNL     1       5.097   5.037  18.251  0.00  0.00    +0.000 A 
ATOM     12  C   UNL     1       4.748   3.857  18.903  0.00  0.00    +0.000 A 
ATOM     13  C   UNL     1       3.608   3.816  19.730  0.00  0.00    +0.000 A 
ATOM     14  C   UNL     1       2.774   4.941  19.896  0.00  0.00    +0.000 A 
ATOM     15  C   UNL     1       3.105   6.133  19.273  0.00  0.00    +0.000 A 
ATOM     16  C   UNL     1       4.310   6.159  18.532  0.00  0.00    +0.000 A 
BRANCH  11  18
ATOM     17  C   UNL     1       7.582   4.689  17.783  0.00  0.00    +0.000 C 
ATOM     18  C   UNL     1       6.213   5.119  17.200  0.00  0.00    +0.000 C 
BRANCH  18  19
ATOM     19  C   UNL     1       5.880   4.320  15.921  0.00  0.00    +0.000 C 
BRANCH  19  20
ATOM     20  C   UNL     1       6.721   4.721  14.745  0.00  0.00    +0.000 A 
ATOM     21  N   UNL     1       7.735   5.565  14.771  0.00  0.00    +0.000 NA
ATOM     22  N   UNL     1       8.233   5.685  13.496  0.00  0.00    +0.000 NA
ATOM     23  C   UNL     1       7.524   4.903  12.718  0.00  0.00    +0.000 A 
ATOM     24  N   UNL     1       6.566   4.279  13.457  0.00  0.00    +0.000 N 
ATOM     25  C   UNL     1       5.602   3.338  12.962  0.00  0.00    +0.000 C 
ENDBRANCH  19  20
ENDBRANCH  18  19
ENDBRANCH  11  18
ENDBRANCH   1  15
BRANCH   8  26
ATOM     26  C   UNL     1       0.106   9.303  22.613  0.00  0.00    +0.000 C 
ATOM     27  F   UNL     1      -0.659   8.181  22.729  0.00  0.00    +0.000 F 
ATOM     28  F   UNL     1       1.271   9.018  23.254  0.00  0.00    +0.000 F 
ATOM     29  F   UNL     1      -0.521  10.250  23.360  0.00  0.00    +0.000 F 
ENDBRANCH   8  26
BRANCH   6  30
ATOM     30  C   UNL     1      -0.698  12.677  18.978  0.00  0.00    +0.000 C 
BRANCH  30  31
ATOM     31  N   UNL     1      -1.820  12.472  18.038  0.00  0.00    +0.000 NA
ATOM     32  C   UNL     1      -1.418  11.664  16.870  0.00  0.00    +0.000 C 
ATOM     33  C   UNL     1      -2.679  10.917  16.434  0.00  0.00    +0.000 C 
ATOM     34  C   UNL     1      -3.424  10.669  17.733  0.00  0.00    +0.000 C 
ATOM     35  F   UNL     1      -3.053   9.457  18.236  0.00  0.00    +0.000 F 
ATOM     36  C   UNL     1      -2.941  11.759  18.686  0.00  0.00    +0.000 C 
BRANCH  33  37
ATOM     37  O   UNL     1      -3.469  11.691  15.529  0.00  0.00    +0.000 OA
ATOM     38  H   UNL     1      -3.652  11.129  14.754  0.00  0.00    +0.000 HD
ENDBRANCH  33  37
ENDBRANCH  30  31
ENDBRANCH   6  30
TORSDOF 8
ENDMDL
MODEL 7
REMARK VINA RESULT:      -9.0      3.309      9.549
REMARK  Name = 
REMARK  10 active torsions:
REMARK  status: ('A' for Active; 'I' for Inactive)
REMARK    1  A    between atoms: C_1  and  C_2
REMARK    2  A    between atoms: C_2  and  C_3
REMARK    3  A    between atoms: C_2  and  C_10
REMARK    4  A    between atoms: C_3  and  C_4
REMARK    5  A    between atoms: N_8  and  C_9
REMARK    6  A    between atoms: C_14  and  N_15
REMARK    7  A    between atoms: C_20  and  C_21
REMARK    8  A    between atoms: C_21  and  N_22
REMARK    9  A    between atoms: C_24  and  O_25
REMARK   10  A    between atoms: C_30  and  C_31
REMARK                            x       y       z     vdW  Elec       q    Type
REMARK                         _______ _______ _______ _____ _____    ______ ____
ROOT
ATOM      1  N   UNL     1       2.336   7.236  19.184  0.00  0.00    +0.000 N 
ATOM      2  C   UNL     1       1.688   7.662  20.404  0.00  0.00    +0.000 C 
ATOM      3  C   UNL     1       1.280   9.055  20.159  0.00  0.00    +0.000 A 
ATOM      4  C   UNL     1       1.639   9.439  18.871  0.00  0.00    +0.000 A 
ATOM      5  C   UNL     1       1.331  10.720  18.422  0.00  0.00    +0.000 A 
ATOM      6  C   UNL     1       0.669  11.606  19.311  0.00  0.00    +0.000 A 
ATOM      7  C   UNL     1       0.338  11.178  20.620  0.00  0.00    +0.000 A 
ATOM      8  C   UNL     1       0.634   9.891  21.065  0.00  0.00    +0.000 A 
ATOM      9  C   UNL     1       2.344   8.274  18.227  0.00  0.00    +0.000 C 
ATOM     10  O   UNL     1       2.800   8.296  17.100  0.00  0.00    +0.000 OA
ENDROOT
BRANCH   1  15
ATOM     11  C   UNL     1       4.538   4.446  17.978  0.00  0.00    +0.000 A 
ATOM     12  C   UNL     1       4.162   3.408  18.828  0.00  0.00    +0.000 A 
ATOM     13  C   UNL     1       3.212   3.635  19.843  0.00  0.00    +0.000 A 
ATOM     14  C   UNL     1       2.593   4.891  20.009  0.00  0.00    +0.000 A 
ATOM     15  C   UNL     1       2.958   5.945  19.190  0.00  0.00    +0.000 A 
ATOM     16  C   UNL     1       3.987   5.703  18.249  0.00  0.00    +0.000 A 
BRANCH  11  18
ATOM     17  C   UNL     1       5.029   5.193  15.587  0.00  0.00    +0.000 C 
ATOM     18  C   UNL     1       5.427   4.242  16.743  0.00  0.00    +0.000 C 
BRANCH  18  19
ATOM     19  C   UNL     1       6.931   4.366  17.070  0.00  0.00    +0.000 C 
BRANCH  19  20
ATOM     20  C   UNL     1       7.352   5.776  17.361  0.00  0.00    +0.000 A 
ATOM     21  N   UNL     1       7.430   6.757  16.482  0.00  0.00    +0.000 NA
ATOM     22  N   UNL     1       7.871   7.887  17.130  0.00  0.00    +0.000 NA
ATOM     23  C   UNL     1       8.041   7.578  18.394  0.00  0.00    +0.000 A 
ATOM     24  N   UNL     1       7.728   6.268  18.585  0.00  0.00    +0.000 N 
ATOM     25  C   UNL     1       7.779   5.564  19.835  0.00  0.00    +0.000 C 
ENDBRANCH  19  20
ENDBRANCH  18  19
ENDBRANCH  11  18
ENDBRANCH   1  15
BRANCH   8  26
ATOM     26  C   UNL     1       0.257   9.446  22.454  0.00  0.00    +0.000 C 
ATOM     27  F   UNL     1      -0.614   8.398  22.480  0.00  0.00    +0.000 F 
ATOM     28  F   UNL     1       1.333   9.045  23.182  0.00  0.00    +0.000 F 
ATOM     29  F   UNL     1      -0.343  10.435  23.168  0.00  0.00    +0.000 F 
ENDBRANCH   8  26
BRANCH   6  30
ATOM     30  C   UNL     1       0.215  13.001  18.903  0.00  0.00    +0.000 C 
BRANCH  30  31
ATOM     31  N   UNL     1      -1.254  13.151  18.859  0.00  0.00    +0.000 NA
ATOM     32  C   UNL     1      -1.933  11.858  18.644  0.00  0.00    +0.000 C 
ATOM     33  C   UNL     1      -3.287  11.984  19.343  0.00  0.00    +0.000 C 
ATOM     34  C   UNL     1      -3.003  12.887  20.529  0.00  0.00    +0.000 C 
ATOM     35  F   UNL     1      -2.678  12.119  21.607  0.00  0.00    +0.000 F 
ATOM     36  C   UNL     1      -1.777  13.703  20.126  0.00  0.00    +0.000 C 
BRANCH  33  37
ATOM     37  O   UNL     1      -4.276  12.557  18.486  0.00  0.00    +0.000 OA
ATOM     38  H   UNL     1      -3.830  13.225  17.936  0.00  0.00    +0.000 HD
ENDBRANCH  33  37
ENDBRANCH  30  31
ENDBRANCH   6  30
TORSDOF 8
ENDMDL
MODEL 8
REMARK VINA RESULT:      -9.0      4.997     11.208
REMARK  Name = 
REMARK  10 active torsions:
REMARK  status: ('A' for Active; 'I' for Inactive)
REMARK    1  A    between atoms: C_1  and  C_2
REMARK    2  A    between atoms: C_2  and  C_3
REMARK    3  A    between atoms: C_2  and  C_10
REMARK    4  A    between atoms: C_3  and  C_4
REMARK    5  A    between atoms: N_8  and  C_9
REMARK    6  A    between atoms: C_14  and  N_15
REMARK    7  A    between atoms: C_20  and  C_21
REMARK    8  A    between atoms: C_21  and  N_22
REMARK    9  A    between atoms: C_24  and  O_25
REMARK   10  A    between atoms: C_30  and  C_31
REMARK                            x       y       z     vdW  Elec       q    Type
REMARK                         _______ _______ _______ _____ _____    ______ ____
ROOT
ATOM      1  N   UNL     1       0.987   9.481  19.860  0.00  0.00    +0.000 N 
ATOM      2  C   UNL     1       0.777  10.808  19.328  0.00  0.00    +0.000 C 
ATOM      3  C   UNL     1      -0.164  11.454  20.259  0.00  0.00    +0.000 A 
ATOM      4  C   UNL     1      -0.485  10.582  21.295  0.00  0.00    +0.000 A 
ATOM      5  C   UNL     1      -1.351  10.997  22.302  0.00  0.00    +0.000 A 
ATOM      6  C   UNL     1      -1.897  12.305  22.227  0.00  0.00    +0.000 A 
ATOM      7  C   UNL     1      -1.555  13.152  21.145  0.00  0.00    +0.000 A 
ATOM      8  C   UNL     1      -0.677  12.742  20.143  0.00  0.00    +0.000 A 
ATOM      9  C   UNL     1       0.240   9.286  21.042  0.00  0.00    +0.000 C 
ATOM     10  O   UNL     1       0.154   8.309  21.761  0.00  0.00    +0.000 OA
ENDROOT
BRANCH   1  15
ATOM     11  C   UNL     1       3.023   6.423  19.092  0.00  0.00    +0.000 A 
ATOM     12  C   UNL     1       3.504   6.722  17.819  0.00  0.00    +0.000 A 
ATOM     13  C   UNL     1       3.117   7.916  17.180  0.00  0.00    +0.000 A 
ATOM     14  C   UNL     1       2.272   8.852  17.810  0.00  0.00    +0.000 A 
ATOM     15  C   UNL     1       1.766   8.575  19.069  0.00  0.00    +0.000 A 
ATOM     16  C   UNL     1       2.098   7.321  19.635  0.00  0.00    +0.000 A 
BRANCH  11  18
ATOM     17  C   UNL     1       2.406   4.630  20.801  0.00  0.00    +0.000 C 
ATOM     18  C   UNL     1       3.531   5.238  19.926  0.00  0.00    +0.000 C 
BRANCH  18  19
ATOM     19  C   UNL     1       4.207   4.153  19.060  0.00  0.00    +0.000 C 
BRANCH  19  20
ATOM     20  C   UNL     1       5.644   4.459  18.755  0.00  0.00    +0.000 A 
ATOM     21  N   UNL     1       6.548   4.871  19.624  0.00  0.00    +0.000 NA
ATOM     22  N   UNL     1       7.736   5.060  18.958  0.00  0.00    +0.000 NA
ATOM     23  C   UNL     1       7.538   4.748  17.699  0.00  0.00    +0.000 A 
ATOM     24  N   UNL     1       6.244   4.365  17.526  0.00  0.00    +0.000 N 
ATOM     25  C   UNL     1       5.650   3.942  16.290  0.00  0.00    +0.000 C 
ENDBRANCH  19  20
ENDBRANCH  18  19
ENDBRANCH  11  18
ENDBRANCH   1  15
BRANCH   8  26
ATOM     26  C   UNL     1      -0.309  13.663  19.010  0.00  0.00    +0.000 C 
ATOM     27  F   UNL     1       1.034  13.799  18.823  0.00  0.00    +0.000 F 
ATOM     28  F   UNL     1      -0.804  13.243  17.815  0.00  0.00    +0.000 F 
ATOM     29  F   UNL     1      -0.780  14.925  19.197  0.00  0.00    +0.000 F 
ENDBRANCH   8  26
BRANCH   6  30
ATOM     30  C   UNL     1      -2.791  12.891  23.310  0.00  0.00    +0.000 C 
BRANCH  30  31
ATOM     31  N   UNL     1      -4.183  12.398  23.252  0.00  0.00    +0.000 NA
ATOM     32  C   UNL     1      -4.889  12.590  24.533  0.00  0.00    +0.000 C 
ATOM     33  C   UNL     1      -6.361  12.779  24.167  0.00  0.00    +0.000 C 
ATOM     34  C   UNL     1      -6.316  13.487  22.825  0.00  0.00    +0.000 C 
ATOM     35  F   UNL     1      -6.342  14.834  23.030  0.00  0.00    +0.000 F 
ATOM     36  C   UNL     1      -4.965  13.113  22.221  0.00  0.00    +0.000 C 
BRANCH  33  37
ATOM     37  O   UNL     1      -7.049  11.530  24.066  0.00  0.00    +0.000 OA
ATOM     38  H   UNL     1      -7.088  11.298  23.121  0.00  0.00    +0.000 HD
ENDBRANCH  33  37
ENDBRANCH  30  31
ENDBRANCH   6  30
TORSDOF 8
ENDMDL
MODEL 9
REMARK VINA RESULT:      -9.0      2.355      3.119
REMARK  Name = 
REMARK  10 active torsions:
REMARK  status: ('A' for Active; 'I' for Inactive)
REMARK    1  A    between atoms: C_1  and  C_2
REMARK    2  A    between atoms: C_2  and  C_3
REMARK    3  A    between atoms: C_2  and  C_10
REMARK    4  A    between atoms: C_3  and  C_4
REMARK    5  A    between atoms: N_8  and  C_9
REMARK    6  A    between atoms: C_14  and  N_15
REMARK    7  A    between atoms: C_20  and  C_21
REMARK    8  A    between atoms: C_21  and  N_22
REMARK    9  A    between atoms: C_24  and  O_25
REMARK   10  A    between atoms: C_30  and  C_31
REMARK                            x       y       z     vdW  Elec       q    Type
REMARK                         _______ _______ _______ _____ _____    ______ ____
ROOT
ATOM      1  N   UNL     1       1.561   7.769  20.234  0.00  0.00    +0.000 N 
ATOM      2  C   UNL     1       1.551   6.442  20.805  0.00  0.00    +0.000 C 
ATOM      3  C   UNL     1       2.278   5.599  19.841  0.00  0.00    +0.000 A 
ATOM      4  C   UNL     1       2.716   6.370  18.768  0.00  0.00    +0.000 A 
ATOM      5  C   UNL     1       3.443   5.774  17.743  0.00  0.00    +0.000 A 
ATOM      6  C   UNL     1       3.702   4.380  17.820  0.00  0.00    +0.000 A 
ATOM      7  C   UNL     1       3.223   3.632  18.922  0.00  0.00    +0.000 A 
ATOM      8  C   UNL     1       2.506   4.231  19.957  0.00  0.00    +0.000 A 
ATOM      9  C   UNL     1       2.242   7.781  18.997  0.00  0.00    +0.000 C 
ATOM     10  O   UNL     1       2.447   8.699  18.227  0.00  0.00    +0.000 OA
ENDROOT
BRANCH   1  15
ATOM     11  C   UNL     1      -0.264  11.019  20.670  0.00  0.00    +0.000 A 
ATOM     12  C   UNL     1      -0.512  11.017  22.040  0.00  0.00    +0.000 A 
ATOM     13  C   UNL     1      -0.123   9.915  22.827  0.00  0.00    +0.000 A 
ATOM     14  C   UNL     1       0.551   8.809  22.270  0.00  0.00    +0.000 A 
ATOM     15  C   UNL     1       0.797   8.777  20.908  0.00  0.00    +0.000 A 
ATOM     16  C   UNL     1       0.303   9.856  20.138  0.00  0.00    +0.000 A 
BRANCH  11  18
ATOM     17  C   UNL     1      -1.352  13.321  20.487  0.00  0.00    +0.000 C 
ATOM     18  C   UNL     1      -0.493  12.246  19.776  0.00  0.00    +0.000 C 
BRANCH  18  19
ATOM     19  C   UNL     1       0.829  12.851  19.252  0.00  0.00    +0.000 C 
BRANCH  19  20
ATOM     20  C   UNL     1       1.512  13.726  20.261  0.00  0.00    +0.000 A 
ATOM     21  N   UNL     1       2.148  13.311  21.341  0.00  0.00    +0.000 NA
ATOM     22  N   UNL     1       2.618  14.412  22.017  0.00  0.00    +0.000 NA
ATOM     23  C   UNL     1       2.273  15.476  21.332  0.00  0.00    +0.000 A 
ATOM     24  N   UNL     1       1.580  15.095  20.224  0.00  0.00    +0.000 N 
ATOM     25  C   UNL     1       1.044  15.974  19.223  0.00  0.00    +0.000 C 
ENDBRANCH  19  20
ENDBRANCH  18  19
ENDBRANCH  11  18
ENDBRANCH   1  15
BRANCH   8  26
ATOM     26  C   UNL     1       2.019   3.423  21.131  0.00  0.00    +0.000 C 
ATOM     27  F   UNL     1       0.664   3.290  21.186  0.00  0.00    +0.000 F 
ATOM     28  F   UNL     1       2.512   2.156  21.132  0.00  0.00    +0.000 F 
ATOM     29  F   UNL     1       2.378   3.976  22.321  0.00  0.00    +0.000 F 
ENDBRANCH   8  26
BRANCH   6  30
ATOM     30  C   UNL     1       4.552   3.640  16.797  0.00  0.00    +0.000 C 
BRANCH  30  31
ATOM     31  N   UNL     1       5.409   4.532  15.990  0.00  0.00    +0.000 NA
ATOM     32  C   UNL     1       6.825   4.117  16.027  0.00  0.00    +0.000 C 
ATOM     33  C   UNL     1       7.416   4.551  14.686  0.00  0.00    +0.000 C 
ATOM     34  C   UNL     1       6.259   4.410  13.714  0.00  0.00    +0.000 C 
ATOM     35  F   UNL     1       6.290   3.163  13.162  0.00  0.00    +0.000 F 
ATOM     36  C   UNL     1       5.001   4.531  14.569  0.00  0.00    +0.000 C 
BRANCH  33  37
ATOM     37  O   UNL     1       7.892   5.898  14.725  0.00  0.00    +0.000 OA
ATOM     38  H   UNL     1       8.495   6.013  13.969  0.00  0.00    +0.000 HD
ENDBRANCH  33  37
ENDBRANCH  30  31
ENDBRANCH   6  30
TORSDOF 8
ENDMDL
