MODEL 1
REMARK VINA RESULT:      -9.2      0.000      0.000
REMARK  Name = 
REMARK  9 active torsions:
REMARK  status: ('A' for Active; 'I' for Inactive)
REMARK    1  A    between atoms: C_1  and  C_2
REMARK    2  A    between atoms: C_2  and  C_3
REMARK    3  A    between atoms: C_2  and  C_10
REMARK    4  A    between atoms: C_3  and  C_4
REMARK    5  A    between atoms: N_8  and  C_9
REMARK    6  A    between atoms: C_14  and  N_15
REMARK    7  A    between atoms: C_16  and  C_18
REMARK    8  A    between atoms: C_20  and  C_21
REMARK    9  A    between atoms: C_26  and  O_27
REMARK                            x       y       z     vdW  Elec       q    Type
REMARK                         _______ _______ _______ _____ _____    ______ ____
ROOT
ATOM      1  N   UNL     1       2.122   6.928  18.935  0.00  0.00    +0.000 N 
ATOM      2  C   UNL     1       2.057   8.207  18.411  0.00  0.00    +0.000 C 
ATOM      3  O   UNL     1       2.419   8.567  17.296  0.00  0.00    +0.000 OA
ATOM      4  H   UNL     1       1.771   6.827  19.882  0.00  0.00    +0.000 HD
ENDROOT
BRANCH   1   9
ATOM      5  C   UNL     1       4.494   4.699  17.122  0.00  0.00    +0.000 A 
ATOM      6  C   UNL     1       3.695   3.563  16.933  0.00  0.00    +0.000 A 
ATOM      7  C   UNL     1       2.393   3.522  17.424  0.00  0.00    +0.000 A 
ATOM      8  C   UNL     1       1.863   4.621  18.093  0.00  0.00    +0.000 A 
ATOM      9  C   UNL     1       2.617   5.784  18.277  0.00  0.00    +0.000 A 
ATOM     10  C   UNL     1       3.930   5.815  17.783  0.00  0.00    +0.000 A 
BRANCH   5  12
ATOM     11  C   UNL     1       6.955   4.509  17.792  0.00  0.00    +0.000 C 
ATOM     12  C   UNL     1       5.951   4.761  16.653  0.00  0.00    +0.000 C 
BRANCH  12  13
ATOM     13  C   UNL     1       6.199   3.808  15.460  0.00  0.00    +0.000 C 
BRANCH  13  14
ATOM     14  C   UNL     1       6.948   4.481  14.352  0.00  0.00    +0.000 A 
ATOM     15  N   UNL     1       7.853   5.429  14.503  0.00  0.00    +0.000 NA
ATOM     16  N   UNL     1       8.322   5.784  13.261  0.00  0.00    +0.000 NA
ATOM     17  C   UNL     1       7.690   5.052  12.376  0.00  0.00    +0.000 A 
ATOM     18  N   UNL     1       6.819   4.222  13.011  0.00  0.00    +0.000 N 
ATOM     19  C   UNL     1       5.953   3.272  12.367  0.00  0.00    +0.000 C 
ENDBRANCH  13  14
ENDBRANCH  12  13
ENDBRANCH   5  12
ENDBRANCH   1   9
BRANCH   2  20
ATOM     20  C   UNL     1       1.473   9.237  19.322  0.00  0.00    +0.000 A 
ATOM     21  C   UNL     1       1.127  10.463  18.773  0.00  0.00    +0.000 A 
ATOM     22  C   UNL     1       0.527  11.408  19.592  0.00  0.00    +0.000 A 
ATOM     23  C   UNL     1       0.356  11.118  20.947  0.00  0.00    +0.000 A 
ATOM     24  C   UNL     1       0.761   9.875  21.413  0.00  0.00    +0.000 A 
ATOM     25  N   UNL     1       1.304   8.912  20.630  0.00  0.00    +0.000 NA
BRANCH  22  26
ATOM     26  C   UNL     1       0.186  12.760  19.076  0.00  0.00    +0.000 C 
ATOM     27  O   UNL     1      -0.884  12.884  18.484  0.00  0.00    +0.000 OA
ATOM     28  N   UNL     1       1.046  13.825  19.308  0.00  0.00    +0.000 N 
ATOM     29  C   UNL     1       0.616  15.184  19.001  0.00  0.00    +0.000 C 
ATOM     30  C   UNL     1       1.843  15.838  18.452  0.00  0.00    +0.000 C 
ATOM     31  C   UNL     1       2.963  16.313  19.337  0.00  0.00    +0.000 C 
ATOM     32  C   UNL     1       3.008  14.939  18.730  0.00  0.00    +0.000 C 
ATOM     33  C   UNL     1       2.500  13.736  19.461  0.00  0.00    +0.000 C 
BRANCH  31  34
ATOM     34  O   UNL     1       3.854  17.278  18.760  0.00  0.00    +0.000 OA
ATOM     35  H   UNL     1       4.074  17.076  17.834  0.00  0.00    +0.000 HD
ENDBRANCH  31  34
ENDBRANCH  22  26
ENDBRANCH   2  20
TORSDOF 7
ENDMDL
MODEL 2
REMARK VINA RESULT:      -9.0      3.470      9.965
REMARK  Name = 
REMARK  9 active torsions:
REMARK  status: ('A' for Active; 'I' for Inactive)
REMARK    1  A    between atoms: C_1  and  C_2
REMARK    2  A    between atoms: C_2  and  C_3
REMARK    3  A    between atoms: C_2  and  C_10
REMARK    4  A    between atoms: C_3  and  C_4
REMARK    5  A    between atoms: N_8  and  C_9
REMARK    6  A    between atoms: C_14  and  N_15
REMARK    7  A    between atoms: C_16  and  C_18
REMARK    8  A    between atoms: C_20  and  C_21
REMARK    9  A    between atoms: C_26  and  O_27
REMARK                            x       y       z     vdW  Elec       q    Type
REMARK                         _______ _______ _______ _____ _____    ______ ____
ROOT
ATOM      1  N   UNL     1       2.166   7.431  20.392  0.00  0.00    +0.000 N 
ATOM      2  C   UNL     1       1.846   6.086  20.446  0.00  0.00    +0.000 C 
ATOM      3  O   UNL     1       0.795   5.593  20.842  0.00  0.00    +0.000 OA
ATOM      4  H   UNL     1       3.091   7.645  20.032  0.00  0.00    +0.000 HD
ENDROOT
BRANCH   1   9
ATOM      5  C   UNL     1       0.021  10.464  20.103  0.00  0.00    +0.000 A 
ATOM      6  C   UNL     1      -0.314  10.677  21.448  0.00  0.00    +0.000 A 
ATOM      7  C   UNL     1       0.140   9.811  22.439  0.00  0.00    +0.000 A 
ATOM      8  C   UNL     1       0.953   8.732  22.104  0.00  0.00    +0.000 A 
ATOM      9  C   UNL     1       1.334   8.501  20.780  0.00  0.00    +0.000 A 
ATOM     10  C   UNL     1       0.868   9.377  19.787  0.00  0.00    +0.000 A 
BRANCH   5  12
ATOM     11  C   UNL     1       0.577  12.266  18.376  0.00  0.00    +0.000 C 
ATOM     12  C   UNL     1      -0.509  11.356  18.978  0.00  0.00    +0.000 C 
BRANCH  12  13
ATOM     13  C   UNL     1      -1.217  10.522  17.885  0.00  0.00    +0.000 C 
BRANCH  13  14
ATOM     14  C   UNL     1      -2.620  10.987  17.646  0.00  0.00    +0.000 A 
ATOM     15  N   UNL     1      -3.408  11.544  18.546  0.00  0.00    +0.000 NA
ATOM     16  N   UNL     1      -4.609  11.842  17.948  0.00  0.00    +0.000 NA
ATOM     17  C   UNL     1      -4.534  11.456  16.697  0.00  0.00    +0.000 A 
ATOM     18  N   UNL     1      -3.308  10.914  16.461  0.00  0.00    +0.000 N 
ATOM     19  C   UNL     1      -2.861  10.383  15.203  0.00  0.00    +0.000 C 
ENDBRANCH  13  14
ENDBRANCH  12  13
ENDBRANCH   5  12
ENDBRANCH   1   9
BRANCH   2  20
ATOM     20  C   UNL     1       2.913   5.160  19.960  0.00  0.00    +0.000 A 
ATOM     21  C   UNL     1       3.887   5.681  19.121  0.00  0.00    +0.000 A 
ATOM     22  C   UNL     1       4.918   4.849  18.710  0.00  0.00    +0.000 A 
ATOM     23  C   UNL     1       4.901   3.507  19.098  0.00  0.00    +0.000 A 
ATOM     24  C   UNL     1       3.867   3.069  19.913  0.00  0.00    +0.000 A 
ATOM     25  N   UNL     1       2.873   3.866  20.373  0.00  0.00    +0.000 NA
BRANCH  22  26
ATOM     26  C   UNL     1       5.960   5.333  17.767  0.00  0.00    +0.000 C 
ATOM     27  O   UNL     1       6.657   6.277  18.133  0.00  0.00    +0.000 OA
ATOM     28  N   UNL     1       6.139   4.693  16.548  0.00  0.00    +0.000 N 
ATOM     29  C   UNL     1       7.296   5.019  15.722  0.00  0.00    +0.000 C 
ATOM     30  C   UNL     1       6.763   4.991  14.325  0.00  0.00    +0.000 C 
ATOM     31  C   UNL     1       6.506   3.705  13.590  0.00  0.00    +0.000 C 
ATOM     32  C   UNL     1       5.402   4.369  14.363  0.00  0.00    +0.000 C 
ATOM     33  C   UNL     1       5.101   4.001  15.782  0.00  0.00    +0.000 C 
BRANCH  31  34
ATOM     34  O   UNL     1       6.413   3.805  12.161  0.00  0.00    +0.000 OA
ATOM     35  H   UNL     1       6.096   4.677  11.869  0.00  0.00    +0.000 HD
ENDBRANCH  31  34
ENDBRANCH  22  26
ENDBRANCH   2  20
TORSDOF 7
ENDMDL
MODEL 3
REMARK VINA RESULT:      -8.8      2.716      3.681
REMARK  Name = 
REMARK  9 active torsions:
REMARK  status: ('A' for Active; 'I' for Inactive)
REMARK    1  A    between atoms: C_1  and  C_2
REMARK    2  A    between atoms: C_2  and  C_3
REMARK    3  A    between atoms: C_2  and  C_10
REMARK    4  A    between atoms: C_3  and  C_4
REMARK    5  A    between atoms: N_8  and  C_9
REMARK    6  A    between atoms: C_14  and  N_15
REMARK    7  A    between atoms: C_16  and  C_18
REMARK    8  A    between atoms: C_20  and  C_21
REMARK    9  A    between atoms: C_26  and  O_27
REMARK                            x       y       z     vdW  Elec       q    Type
REMARK                         _______ _______ _______ _____ _____    ______ ____
ROOT
ATOM      1  N   UNL     1       2.095   7.373  18.363  0.00  0.00    +0.000 N 
ATOM      2  C   UNL     1       1.867   7.805  19.658  0.00  0.00    +0.000 C 
ATOM      3  O   UNL     1       2.084   7.183  20.693  0.00  0.00    +0.000 OA
ATOM      4  H   UNL     1       1.850   8.035  17.634  0.00  0.00    +0.000 HD
ENDROOT
BRANCH   1   9
ATOM      5  C   UNL     1       4.530   4.876  17.051  0.00  0.00    +0.000 A 
ATOM      6  C   UNL     1       3.787   3.694  17.179  0.00  0.00    +0.000 A 
ATOM      7  C   UNL     1       2.505   3.716  17.720  0.00  0.00    +0.000 A 
ATOM      8  C   UNL     1       1.936   4.921  18.122  0.00  0.00    +0.000 A 
ATOM      9  C   UNL     1       2.632   6.126  17.985  0.00  0.00    +0.000 A 
ATOM     10  C   UNL     1       3.926   6.094  17.443  0.00  0.00    +0.000 A 
BRANCH   5  12
ATOM     11  C   UNL     1       7.010   4.621  17.621  0.00  0.00    +0.000 C 
ATOM     12  C   UNL     1       5.966   4.886  16.521  0.00  0.00    +0.000 C 
BRANCH  12  13
ATOM     13  C   UNL     1       6.134   3.908  15.335  0.00  0.00    +0.000 C 
BRANCH  13  14
ATOM     14  C   UNL     1       6.883   4.530  14.197  0.00  0.00    +0.000 A 
ATOM     15  N   UNL     1       7.762   5.509  14.301  0.00  0.00    +0.000 NA
ATOM     16  N   UNL     1       8.240   5.798  13.045  0.00  0.00    +0.000 NA
ATOM     17  C   UNL     1       7.640   4.997  12.199  0.00  0.00    +0.000 A 
ATOM     18  N   UNL     1       6.780   4.185  12.873  0.00  0.00    +0.000 N 
ATOM     19  C   UNL     1       5.948   3.175  12.278  0.00  0.00    +0.000 C 
ENDBRANCH  13  14
ENDBRANCH  12  13
ENDBRANCH   5  12
ENDBRANCH   1   9
BRANCH   2  20
ATOM     20  C   UNL     1       1.300   9.182  19.777  0.00  0.00    +0.000 A 
ATOM     21  C   UNL     1       0.622   9.503  20.944  0.00  0.00    +0.000 A 
ATOM     22  C   UNL     1       0.143  10.796  21.096  0.00  0.00    +0.000 A 
ATOM     23  C   UNL     1       0.300  11.703  20.046  0.00  0.00    +0.000 A 
ATOM     24  C   UNL     1       0.965  11.282  18.903  0.00  0.00    +0.000 A 
ATOM     25  N   UNL     1       1.488  10.043  18.743  0.00  0.00    +0.000 NA
BRANCH  22  26
ATOM     26  C   UNL     1      -0.639  11.184  22.298  0.00  0.00    +0.000 C 
ATOM     27  O   UNL     1      -0.381  10.603  23.351  0.00  0.00    +0.000 OA
ATOM     28  N   UNL     1      -1.586  12.195  22.209  0.00  0.00    +0.000 N 
ATOM     29  C   UNL     1      -2.193  12.729  23.423  0.00  0.00    +0.000 C 
ATOM     30  C   UNL     1      -3.619  12.967  23.042  0.00  0.00    +0.000 C 
ATOM     31  C   UNL     1      -4.042  14.153  22.219  0.00  0.00    +0.000 C 
ATOM     32  C   UNL     1      -3.724  12.844  21.553  0.00  0.00    +0.000 C 
ATOM     33  C   UNL     1      -2.360  12.543  21.016  0.00  0.00    +0.000 C 
BRANCH  31  34
ATOM     34  O   UNL     1      -5.434  14.497  22.283  0.00  0.00    +0.000 OA
ATOM     35  H   UNL     1      -6.011  13.714  22.310  0.00  0.00    +0.000 HD
ENDBRANCH  31  34
ENDBRANCH  22  26
ENDBRANCH   2  20
TORSDOF 7
ENDMDL
MODEL 4
REMARK VINA RESULT:      -8.8      3.751     10.844
REMARK  Name = 
REMARK  9 active torsions:
REMARK  status: ('A' for Active; 'I' for Inactive)
REMARK    1  A    between atoms: C_1  and  C_2
REMARK    2  A    between atoms: C_2  and  C_3
REMARK    3  A    between atoms: C_2  and  C_10
REMARK    4  A    between atoms: C_3  and  C_4
REMARK    5  A    between atoms: N_8  and  C_9
REMARK    6  A    between atoms: C_14  and  N_15
REMARK    7  A    between atoms: C_16  and  C_18
REMARK    8  A    between atoms: C_20  and  C_21
REMARK    9  A    between atoms: C_26  and  O_27
REMARK                            x       y       z     vdW  Elec       q    Type
REMARK                         _______ _______ _______ _____ _____    ______ ____
ROOT
ATOM      1  N   UNL     1       2.196   7.409  19.708  0.00  0.00    +0.000 N 
ATOM      2  C   UNL     1       1.874   6.178  20.250  0.00  0.00    +0.000 C 
ATOM      3  O   UNL     1       0.870   5.896  20.896  0.00  0.00    +0.000 OA
ATOM      4  H   UNL     1       3.077   7.445  19.203  0.00  0.00    +0.000 HD
ENDROOT
BRANCH   1   9
ATOM      5  C   UNL     1      -0.048  10.013  21.145  0.00  0.00    +0.000 A 
ATOM      6  C   UNL     1      -0.166  10.887  20.055  0.00  0.00    +0.000 A 
ATOM      7  C   UNL     1       0.512  10.635  18.866  0.00  0.00    +0.000 A 
ATOM      8  C   UNL     1       1.300   9.496  18.739  0.00  0.00    +0.000 A 
ATOM      9  C   UNL     1       1.422   8.584  19.791  0.00  0.00    +0.000 A 
ATOM     10  C   UNL     1       0.738   8.848  20.988  0.00  0.00    +0.000 A 
BRANCH   5  12
ATOM     11  C   UNL     1       0.011   9.634  23.673  0.00  0.00    +0.000 C 
ATOM     12  C   UNL     1      -0.726  10.287  22.490  0.00  0.00    +0.000 C 
BRANCH  12  13
ATOM     13  C   UNL     1      -0.930  11.802  22.719  0.00  0.00    +0.000 C 
BRANCH  13  14
ATOM     14  C   UNL     1      -2.379  12.180  22.713  0.00  0.00    +0.000 A 
ATOM     15  N   UNL     1      -3.268  11.827  23.622  0.00  0.00    +0.000 NA
ATOM     16  N   UNL     1      -4.481  12.373  23.279  0.00  0.00    +0.000 NA
ATOM     17  C   UNL     1      -4.313  13.042  22.164  0.00  0.00    +0.000 A 
ATOM     18  N   UNL     1      -3.013  12.949  21.770  0.00  0.00    +0.000 N 
ATOM     19  C   UNL     1      -2.454  13.556  20.594  0.00  0.00    +0.000 C 
ENDBRANCH  13  14
ENDBRANCH  12  13
ENDBRANCH   5  12
ENDBRANCH   1   9
BRANCH   2  20
ATOM     20  C   UNL     1       2.871   5.093  20.001  0.00  0.00    +0.000 A 
ATOM     21  C   UNL     1       3.998   5.411  19.259  0.00  0.00    +0.000 A 
ATOM     22  C   UNL     1       4.963   4.432  19.071  0.00  0.00    +0.000 A 
ATOM     23  C   UNL     1       4.734   3.150  19.576  0.00  0.00    +0.000 A 
ATOM     24  C   UNL     1       3.560   2.918  20.280  0.00  0.00    +0.000 A 
ATOM     25  N   UNL     1       2.622   3.864  20.523  0.00  0.00    +0.000 NA
BRANCH  22  26
ATOM     26  C   UNL     1       6.166   4.694  18.238  0.00  0.00    +0.000 C 
ATOM     27  O   UNL     1       7.117   5.252  18.782  0.00  0.00    +0.000 OA
ATOM     28  N   UNL     1       6.194   4.275  16.915  0.00  0.00    +0.000 N 
ATOM     29  C   UNL     1       7.443   4.330  16.164  0.00  0.00    +0.000 C 
ATOM     30  C   UNL     1       7.023   4.754  14.792  0.00  0.00    +0.000 C 
ATOM     31  C   UNL     1       6.391   3.800  13.817  0.00  0.00    +0.000 C 
ATOM     32  C   UNL     1       5.532   4.646  14.713  0.00  0.00    +0.000 C 
ATOM     33  C   UNL     1       5.033   4.143  16.032  0.00  0.00    +0.000 C 
BRANCH  31  34
ATOM     34  O   UNL     1       6.430   4.195  12.437  0.00  0.00    +0.000 OA
ATOM     35  H   UNL     1       5.637   3.915  11.948  0.00  0.00    +0.000 HD
ENDBRANCH  31  34
ENDBRANCH  22  26
ENDBRANCH   2  20
TORSDOF 7
ENDMDL
MODEL 5
REMARK VINA RESULT:      -8.8      2.442      3.701
REMARK  Name = 
REMARK  9 active torsions:
REMARK  status: ('A' for Active; 'I' for Inactive)
REMARK    1  A    between atoms: C_1  and  C_2
REMARK    2  A    between atoms: C_2  and  C_3
REMARK    3  A    between atoms: C_2  and  C_10
REMARK    4  A    between atoms: C_3  and  C_4
REMARK    5  A    between atoms: N_8  and  C_9
REMARK    6  A    between atoms: C_14  and  N_15
REMARK    7  A    between atoms: C_16  and  C_18
REMARK    8  A    between atoms: C_20  and  C_21
REMARK    9  A    between atoms: C_26  and  O_27
REMARK                            x       y       z     vdW  Elec       q    Type
REMARK                         _______ _______ _______ _____ _____    ______ ____
ROOT
ATOM      1  N   UNL     1       2.443   8.040  18.812  0.00  0.00    +0.000 N 
ATOM      2  C   UNL     1       1.639   8.971  18.179  0.00  0.00    +0.000 C 
ATOM      3  O   UNL     1       1.088   8.850  17.089  0.00  0.00    +0.000 OA
ATOM      4  H   UNL     1       2.810   8.324  19.715  0.00  0.00    +0.000 HD
ENDROOT
BRANCH   1   9
ATOM      5  C   UNL     1       4.475   5.311  17.293  0.00  0.00    +0.000 A 
ATOM      6  C   UNL     1       3.548   4.258  17.303  0.00  0.00    +0.000 A 
ATOM      7  C   UNL     1       2.274   4.439  17.832  0.00  0.00    +0.000 A 
ATOM      8  C   UNL     1       1.897   5.679  18.340  0.00  0.00    +0.000 A 
ATOM      9  C   UNL     1       2.781   6.762  18.323  0.00  0.00    +0.000 A 
ATOM     10  C   UNL     1       4.065   6.569  17.792  0.00  0.00    +0.000 A 
BRANCH   5  12
ATOM     11  C   UNL     1       6.895   4.744  17.891  0.00  0.00    +0.000 C 
ATOM     12  C   UNL     1       5.906   5.136  16.778  0.00  0.00    +0.000 C 
BRANCH  12  13
ATOM     13  C   UNL     1       5.961   4.139  15.597  0.00  0.00    +0.000 C 
BRANCH  13  14
ATOM     14  C   UNL     1       6.810   4.649  14.474  0.00  0.00    +0.000 A 
ATOM     15  N   UNL     1       7.792   5.522  14.589  0.00  0.00    +0.000 NA
ATOM     16  N   UNL     1       8.337   5.729  13.345  0.00  0.00    +0.000 NA
ATOM     17  C   UNL     1       7.674   4.986  12.493  0.00  0.00    +0.000 A 
ATOM     18  N   UNL     1       6.706   4.292  13.152  0.00  0.00    +0.000 N 
ATOM     19  C   UNL     1       5.781   3.374  12.548  0.00  0.00    +0.000 C 
ENDBRANCH  13  14
ENDBRANCH  12  13
ENDBRANCH   5  12
ENDBRANCH   1   9
BRANCH   2  20
ATOM     20  C   UNL     1       1.433  10.247  18.928  0.00  0.00    +0.000 A 
ATOM     21  C   UNL     1       0.643  10.206  20.067  0.00  0.00    +0.000 A 
ATOM     22  C   UNL     1       0.491  11.368  20.808  0.00  0.00    +0.000 A 
ATOM     23  C   UNL     1       1.082  12.547  20.347  0.00  0.00    +0.000 A 
ATOM     24  C   UNL     1       1.830  12.497  19.178  0.00  0.00    +0.000 A 
ATOM     25  N   UNL     1       2.038  11.368  18.459  0.00  0.00    +0.000 NA
BRANCH  22  26
ATOM     26  C   UNL     1      -0.388  11.402  22.006  0.00  0.00    +0.000 C 
ATOM     27  O   UNL     1      -0.075  10.686  22.956  0.00  0.00    +0.000 OA
ATOM     28  N   UNL     1      -1.487  12.250  22.033  0.00  0.00    +0.000 N 
ATOM     29  C   UNL     1      -2.218  12.450  23.279  0.00  0.00    +0.000 C 
ATOM     30  C   UNL     1      -3.649  12.526  22.852  0.00  0.00    +0.000 C 
ATOM     31  C   UNL     1      -4.234  13.760  22.223  0.00  0.00    +0.000 C 
ATOM     32  C   UNL     1      -3.678  12.662  21.361  0.00  0.00    +0.000 C 
ATOM     33  C   UNL     1      -2.264  12.684  20.871  0.00  0.00    +0.000 C 
BRANCH  31  34
ATOM     34  O   UNL     1      -5.665  13.864  22.254  0.00  0.00    +0.000 OA
ATOM     35  H   UNL     1      -6.014  13.924  23.160  0.00  0.00    +0.000 HD
ENDBRANCH  31  34
ENDBRANCH  22  26
ENDBRANCH   2  20
TORSDOF 7
ENDMDL
MODEL 6
REMARK VINA RESULT:      -8.7      4.008     10.511
REMARK  Name = 
REMARK  9 active torsions:
REMARK  status: ('A' for Active; 'I' for Inactive)
REMARK    1  A    between atoms: C_1  and  C_2
REMARK    2  A    between atoms: C_2  and  C_3
REMARK    3  A    between atoms: C_2  and  C_10
REMARK    4  A    between atoms: C_3  and  C_4
REMARK    5  A    between atoms: N_8  and  C_9
REMARK    6  A    between atoms: C_14  and  N_15
REMARK    7  A    between atoms: C_16  and  C_18
REMARK    8  A    between atoms: C_20  and  C_21
REMARK    9  A    between atoms: C_26  and  O_27
REMARK                            x       y       z     vdW  Elec       q    Type
REMARK                         _______ _______ _______ _____ _____    ______ ____
ROOT
ATOM      1  N   UNL     1       1.439   8.456  18.885  0.00  0.00    +0.000 N 
ATOM      2  C   UNL     1       1.543   7.726  20.055  0.00  0.00    +0.000 C 
ATOM      3  O   UNL     1       1.061   8.009  21.147  0.00  0.00    +0.000 OA
ATOM      4  H   UNL     1       1.910   8.057  18.079  0.00  0.00    +0.000 HD
ENDROOT
BRANCH   1   9
ATOM      5  C   UNL     1      -1.209  10.848  17.812  0.00  0.00    +0.000 A 
ATOM      6  C   UNL     1      -0.700  12.050  18.324  0.00  0.00    +0.000 A 
ATOM      7  C   UNL     1       0.493  12.067  19.042  0.00  0.00    +0.000 A 
ATOM      8  C   UNL     1       1.206  10.888  19.241  0.00  0.00    +0.000 A 
ATOM      9  C   UNL     1       0.747   9.674  18.722  0.00  0.00    +0.000 A 
ATOM     10  C   UNL     1      -0.458   9.665  18.004  0.00  0.00    +0.000 A 
BRANCH   5  12
ATOM     11  C   UNL     1      -2.494   9.871  15.829  0.00  0.00    +0.000 C 
ATOM     12  C   UNL     1      -2.548  10.777  17.072  0.00  0.00    +0.000 C 
BRANCH  12  13
ATOM     13  C   UNL     1      -3.695  10.364  18.023  0.00  0.00    +0.000 C 
BRANCH  13  14
ATOM     14  C   UNL     1      -4.934  11.172  17.790  0.00  0.00    +0.000 A 
ATOM     15  N   UNL     1      -5.018  12.245  17.028  0.00  0.00    +0.000 NA
ATOM     16  N   UNL     1      -6.315  12.698  17.057  0.00  0.00    +0.000 NA
ATOM     17  C   UNL     1      -6.996  11.899  17.842  0.00  0.00    +0.000 A 
ATOM     18  N   UNL     1      -6.174  10.928  18.325  0.00  0.00    +0.000 N 
ATOM     19  C   UNL     1      -6.567   9.871  19.216  0.00  0.00    +0.000 C 
ENDBRANCH  13  14
ENDBRANCH  12  13
ENDBRANCH   5  12
ENDBRANCH   1   9
BRANCH   2  20
ATOM     20  C   UNL     1       2.328   6.459  19.945  0.00  0.00    +0.000 A 
ATOM     21  C   UNL     1       3.573   6.522  19.339  0.00  0.00    +0.000 A 
ATOM     22  C   UNL     1       4.341   5.367  19.284  0.00  0.00    +0.000 A 
ATOM     23  C   UNL     1       3.806   4.176  19.778  0.00  0.00    +0.000 A 
ATOM     24  C   UNL     1       2.536   4.204  20.340  0.00  0.00    +0.000 A 
ATOM     25  N   UNL     1       1.782   5.324  20.453  0.00  0.00    +0.000 NA
BRANCH  22  26
ATOM     26  C   UNL     1       5.659   5.358  18.598  0.00  0.00    +0.000 C 
ATOM     27  O   UNL     1       6.609   5.860  19.195  0.00  0.00    +0.000 OA
ATOM     28  N   UNL     1       5.784   4.760  17.351  0.00  0.00    +0.000 N 
ATOM     29  C   UNL     1       7.108   4.552  16.777  0.00  0.00    +0.000 C 
ATOM     30  C   UNL     1       6.920   4.832  15.320  0.00  0.00    +0.000 C 
ATOM     31  C   UNL     1       6.278   3.840  14.389  0.00  0.00    +0.000 C 
ATOM     32  C   UNL     1       5.448   4.904  15.051  0.00  0.00    +0.000 C 
ATOM     33  C   UNL     1       4.730   4.655  16.340  0.00  0.00    +0.000 C 
BRANCH  31  34
ATOM     34  O   UNL     1       6.537   4.032  12.990  0.00  0.00    +0.000 OA
ATOM     35  H   UNL     1       7.367   4.512  12.828  0.00  0.00    +0.000 HD
ENDBRANCH  31  34
ENDBRANCH  22  26
ENDBRANCH   2  20
TORSDOF 7
ENDMDL
MODEL 7
REMARK VINA RESULT:      -8.6      3.772     10.832
REMARK  Name = 
REMARK  9 active torsions:
REMARK  status: ('A' for Active; 'I' for Inactive)
REMARK    1  A    between atoms: C_1  and  C_2
REMARK    2  A    between atoms: C_2  and  C_3
REMARK    3  A    between atoms: C_2  and  C_10
REMARK    4  A    between atoms: C_3  and  C_4
REMARK    5  A    between atoms: N_8  and  C_9
REMARK    6  A    between atoms: C_14  and  N_15
REMARK    7  A    between atoms: C_16  and  C_18
REMARK    8  A    between atoms: C_20  and  C_21
REMARK    9  A    between atoms: C_26  and  O_27
REMARK                            x       y       z     vdW  Elec       q    Type
REMARK                         _______ _______ _______ _____ _____    ______ ____
ROOT
ATOM      1  N   UNL     1       0.956   9.088  19.217  0.00  0.00    +0.000 N 
ATOM      2  C   UNL     1       1.925   8.649  18.332  0.00  0.00    +0.000 C 
ATOM      3  O   UNL     1       2.250   9.177  17.273  0.00  0.00    +0.000 OA
ATOM      4  H   UNL     1       0.830   8.514  20.045  0.00  0.00    +0.000 HD
ENDROOT
BRANCH   1   9
ATOM      5  C   UNL     1      -1.778  11.304  17.995  0.00  0.00    +0.000 A 
ATOM      6  C   UNL     1      -1.489  12.487  18.692  0.00  0.00    +0.000 A 
ATOM      7  C   UNL     1      -0.418  12.544  19.579  0.00  0.00    +0.000 A 
ATOM      8  C   UNL     1       0.393  11.429  19.768  0.00  0.00    +0.000 A 
ATOM      9  C   UNL     1       0.156  10.240  19.072  0.00  0.00    +0.000 A 
ATOM     10  C   UNL     1      -0.929  10.190  18.183  0.00  0.00    +0.000 A 
BRANCH   5  12
ATOM     11  C   UNL     1      -2.738  10.204  15.896  0.00  0.00    +0.000 C 
ATOM     12  C   UNL     1      -2.984  11.181  17.060  0.00  0.00    +0.000 C 
BRANCH  12  13
ATOM     13  C   UNL     1      -4.268  10.818  17.841  0.00  0.00    +0.000 C 
BRANCH  13  14
ATOM     14  C   UNL     1      -5.196  11.986  17.967  0.00  0.00    +0.000 A 
ATOM     15  N   UNL     1      -5.948  12.478  17.001  0.00  0.00    +0.000 NA
ATOM     16  N   UNL     1      -6.667  13.535  17.504  0.00  0.00    +0.000 NA
ATOM     17  C   UNL     1      -6.335  13.675  18.765  0.00  0.00    +0.000 A 
ATOM     18  N   UNL     1      -5.417  12.728  19.101  0.00  0.00    +0.000 N 
ATOM     19  C   UNL     1      -4.821  12.568  20.399  0.00  0.00    +0.000 C 
ENDBRANCH  13  14
ENDBRANCH  12  13
ENDBRANCH   5  12
ENDBRANCH   1   9
BRANCH   2  20
ATOM     20  C   UNL     1       2.637   7.400  18.738  0.00  0.00    +0.000 A 
ATOM     21  C   UNL     1       3.871   7.144  18.161  0.00  0.00    +0.000 A 
ATOM     22  C   UNL     1       4.573   6.020  18.572  0.00  0.00    +0.000 A 
ATOM     23  C   UNL     1       3.984   5.157  19.499  0.00  0.00    +0.000 A 
ATOM     24  C   UNL     1       2.730   5.480  19.999  0.00  0.00    +0.000 A 
ATOM     25  N   UNL     1       2.041   6.594  19.655  0.00  0.00    +0.000 NA
BRANCH  22  26
ATOM     26  C   UNL     1       5.874   5.662  17.950  0.00  0.00    +0.000 C 
ATOM     27  O   UNL     1       6.896   5.985  18.554  0.00  0.00    +0.000 OA
ATOM     28  N   UNL     1       5.897   4.954  16.756  0.00  0.00    +0.000 N 
ATOM     29  C   UNL     1       7.156   4.410  16.260  0.00  0.00    +0.000 C 
ATOM     30  C   UNL     1       7.079   4.608  14.780  0.00  0.00    +0.000 C 
ATOM     31  C   UNL     1       6.257   3.714  13.894  0.00  0.00    +0.000 C 
ATOM     32  C   UNL     1       5.670   4.985  14.439  0.00  0.00    +0.000 C 
ATOM     33  C   UNL     1       4.877   5.007  15.708  0.00  0.00    +0.000 C 
BRANCH  31  34
ATOM     34  O   UNL     1       6.593   3.731  12.498  0.00  0.00    +0.000 OA
ATOM     35  H   UNL     1       6.584   4.629  12.125  0.00  0.00    +0.000 HD
ENDBRANCH  31  34
ENDBRANCH  22  26
ENDBRANCH   2  20
TORSDOF 7
ENDMDL
MODEL 8
REMARK VINA RESULT:      -8.6      1.231      1.275
REMARK  Name = 
REMARK  9 active torsions:
REMARK  status: ('A' for Active; 'I' for Inactive)
REMARK    1  A    between atoms: C_1  and  C_2
REMARK    2  A    between atoms: C_2  and  C_3
REMARK    3  A    between atoms: C_2  and  C_10
REMARK    4  A    between atoms: C_3  and  C_4
REMARK    5  A    between atoms: N_8  and  C_9
REMARK    6  A    between atoms: C_14  and  N_15
REMARK    7  A    between atoms: C_16  and  C_18
REMARK    8  A    between atoms: C_20  and  C_21
REMARK    9  A    between atoms: C_26  and  O_27
REMARK                            x       y       z     vdW  Elec       q    Type
REMARK                         _______ _______ _______ _____ _____    ______ ____
ROOT
ATOM      1  N   UNL     1       2.265   7.408  19.018  0.00  0.00    +0.000 N 
ATOM      2  C   UNL     1       1.696   7.327  20.276  0.00  0.00    +0.000 C 
ATOM      3  O   UNL     1       1.621   6.332  20.990  0.00  0.00    +0.000 OA
ATOM      4  H   UNL     1       2.230   8.325  18.583  0.00  0.00    +0.000 HD
ENDROOT
BRANCH   1   9
ATOM      5  C   UNL     1       4.802   5.573  16.998  0.00  0.00    +0.000 A 
ATOM      6  C   UNL     1       4.178   4.324  16.866  0.00  0.00    +0.000 A 
ATOM      7  C   UNL     1       2.944   4.080  17.463  0.00  0.00    +0.000 A 
ATOM      8  C   UNL     1       2.305   5.086  18.181  0.00  0.00    +0.000 A 
ATOM      9  C   UNL     1       2.879   6.353  18.313  0.00  0.00    +0.000 A 
ATOM     10  C   UNL     1       4.126   6.589  17.712  0.00  0.00    +0.000 A 
BRANCH   5  12
ATOM     11  C   UNL     1       7.153   6.475  17.440  0.00  0.00    +0.000 C 
ATOM     12  C   UNL     1       6.186   5.860  16.412  0.00  0.00    +0.000 C 
BRANCH  12  13
ATOM     13  C   UNL     1       6.791   4.599  15.751  0.00  0.00    +0.000 C 
BRANCH  13  14
ATOM     14  C   UNL     1       7.219   4.857  14.340  0.00  0.00    +0.000 A 
ATOM     15  N   UNL     1       8.202   5.655  13.969  0.00  0.00    +0.000 NA
ATOM     16  N   UNL     1       8.297   5.621  12.599  0.00  0.00    +0.000 NA
ATOM     17  C   UNL     1       7.367   4.809  12.158  0.00  0.00    +0.000 A 
ATOM     18  N   UNL     1       6.665   4.307  13.211  0.00  0.00    +0.000 N 
ATOM     19  C   UNL     1       5.569   3.382  13.117  0.00  0.00    +0.000 C 
ENDBRANCH  13  14
ENDBRANCH  12  13
ENDBRANCH   5  12
ENDBRANCH   1   9
BRANCH   2  20
ATOM     20  C   UNL     1       1.124   8.605  20.798  0.00  0.00    +0.000 A 
ATOM     21  C   UNL     1       0.935   9.643  19.898  0.00  0.00    +0.000 A 
ATOM     22  C   UNL     1       0.348  10.814  20.353  0.00  0.00    +0.000 A 
ATOM     23  C   UNL     1       0.033  10.931  21.709  0.00  0.00    +0.000 A 
ATOM     24  C   UNL     1       0.288   9.849  22.541  0.00  0.00    +0.000 A 
ATOM     25  N   UNL     1       0.813   8.674  22.118  0.00  0.00    +0.000 NA
BRANCH  22  26
ATOM     26  C   UNL     1       0.171  11.981  19.450  0.00  0.00    +0.000 C 
ATOM     27  O   UNL     1      -0.678  11.886  18.565  0.00  0.00    +0.000 OA
ATOM     28  N   UNL     1       0.921  13.132  19.654  0.00  0.00    +0.000 N 
ATOM     29  C   UNL     1       0.596  14.348  18.917  0.00  0.00    +0.000 C 
ATOM     30  C   UNL     1       1.929  14.948  18.601  0.00  0.00    +0.000 C 
ATOM     31  C   UNL     1       2.735  15.695  19.627  0.00  0.00    +0.000 C 
ATOM     32  C   UNL     1       2.962  14.225  19.409  0.00  0.00    +0.000 C 
ATOM     33  C   UNL     1       2.264  13.189  20.233  0.00  0.00    +0.000 C 
BRANCH  31  34
ATOM     34  O   UNL     1       3.755  16.565  19.113  0.00  0.00    +0.000 OA
ATOM     35  H   UNL     1       3.907  16.438  18.161  0.00  0.00    +0.000 HD
ENDBRANCH  31  34
ENDBRANCH  22  26
ENDBRANCH   2  20
TORSDOF 7
ENDMDL
MODEL 9
REMARK VINA RESULT:      -8.6      1.760      2.684
REMARK  Name = 
REMARK  9 active torsions:
REMARK  status: ('A' for Active; 'I' for Inactive)
REMARK    1  A    between atoms: C_1  and  C_2
REMARK    2  A    between atoms: C_2  and  C_3
REMARK    3  A    between atoms: C_2  and  C_10
REMARK    4  A    between atoms: C_3  and  C_4
REMARK    5  A    between atoms: N_8  and  C_9
REMARK    6  A    between atoms: C_14  and  N_15
REMARK    7  A    between atoms: C_16  and  C_18
REMARK    8  A    between atoms: C_20  and  C_21
REMARK    9  A    between atoms: C_26  and  O_27
REMARK                            x       y       z     vdW  Elec       q    Type
REMARK                         _______ _______ _______ _____ _____    ______ ____
ROOT
ATOM      1  N   UNL     1       2.085   6.958  18.864  0.00  0.00    +0.000 N 
ATOM      2  C   UNL     1       2.018   8.203  18.264  0.00  0.00    +0.000 C 
ATOM      3  O   UNL     1       2.308   8.480  17.104  0.00  0.00    +0.000 OA
ATOM      4  H   UNL     1       1.801   6.928  19.838  0.00  0.00    +0.000 HD
ENDROOT
BRANCH   1   9
ATOM      5  C   UNL     1       4.191   4.587  16.908  0.00  0.00    +0.000 A 
ATOM      6  C   UNL     1       3.406   3.427  16.969  0.00  0.00    +0.000 A 
ATOM      7  C   UNL     1       2.205   3.419  17.673  0.00  0.00    +0.000 A 
ATOM      8  C   UNL     1       1.760   4.574  18.309  0.00  0.00    +0.000 A 
ATOM      9  C   UNL     1       2.499   5.759  18.249  0.00  0.00    +0.000 A 
ATOM     10  C   UNL     1       3.711   5.757  17.540  0.00  0.00    +0.000 A 
BRANCH   5  12
ATOM     11  C   UNL     1       5.440   4.305  14.694  0.00  0.00    +0.000 C 
ATOM     12  C   UNL     1       5.547   4.619  16.198  0.00  0.00    +0.000 C 
BRANCH  12  13
ATOM     13  C   UNL     1       6.281   5.958  16.445  0.00  0.00    +0.000 C 
BRANCH  13  14
ATOM     14  C   UNL     1       7.096   5.927  17.700  0.00  0.00    +0.000 A 
ATOM     15  N   UNL     1       7.275   4.873  18.473  0.00  0.00    +0.000 NA
ATOM     16  N   UNL     1       8.090   5.235  19.519  0.00  0.00    +0.000 NA
ATOM     17  C   UNL     1       8.386   6.503  19.370  0.00  0.00    +0.000 A 
ATOM     18  N   UNL     1       7.786   6.981  18.245  0.00  0.00    +0.000 N 
ATOM     19  C   UNL     1       7.883   8.329  17.757  0.00  0.00    +0.000 C 
ENDBRANCH  13  14
ENDBRANCH  12  13
ENDBRANCH   5  12
ENDBRANCH   1   9
BRANCH   2  20
ATOM     20  C   UNL     1       1.531   9.307  19.145  0.00  0.00    +0.000 A 
ATOM     21  C   UNL     1       1.310  10.546  18.563  0.00  0.00    +0.000 A 
ATOM     22  C   UNL     1       0.800  11.565  19.354  0.00  0.00    +0.000 A 
ATOM     23  C   UNL     1       0.591  11.327  20.714  0.00  0.00    +0.000 A 
ATOM     24  C   UNL     1       0.870  10.061  21.213  0.00  0.00    +0.000 A 
ATOM     25  N   UNL     1       1.322   9.031  20.458  0.00  0.00    +0.000 NA
BRANCH  22  26
ATOM     26  C   UNL     1       0.595  12.931  18.803  0.00  0.00    +0.000 C 
ATOM     27  O   UNL     1      -0.428  13.128  18.150  0.00  0.00    +0.000 OA
ATOM     28  N   UNL     1       1.522  13.929  19.071  0.00  0.00    +0.000 N 
ATOM     29  C   UNL     1       1.217  15.312  18.724  0.00  0.00    +0.000 C 
ATOM     30  C   UNL     1       2.521  15.860  18.238  0.00  0.00    +0.000 C 
ATOM     31  C   UNL     1       3.623  16.261  19.180  0.00  0.00    +0.000 C 
ATOM     32  C   UNL     1       3.594  14.877  18.593  0.00  0.00    +0.000 C 
ATOM     33  C   UNL     1       2.953  13.730  19.308  0.00  0.00    +0.000 C 
BRANCH  31  34
ATOM     34  O   UNL     1       4.619  17.144  18.643  0.00  0.00    +0.000 OA
ATOM     35  H   UNL     1       5.224  16.694  18.029  0.00  0.00    +0.000 HD
ENDBRANCH  31  34
ENDBRANCH  22  26
ENDBRANCH   2  20
TORSDOF 7
ENDMDL
