MODEL 1
REMARK VINA RESULT:      -9.5      0.000      0.000
REMARK  Name = 
REMARK  8 active torsions:
REMARK  status: ('A' for Active; 'I' for Inactive)
REMARK    1  A    between atoms: C_1  and  N_2
REMARK    2  A    between atoms: C_6  and  C_7
REMARK    3  A    between atoms: C_7  and  C_8
REMARK    4  A    between atoms: C_8  and  C_9
REMARK    5  A    between atoms: C_13  and  N_14
REMARK    6  A    between atoms: C_19  and  C_20
REMARK    7  A    between atoms: C_20  and  N_21
REMARK    8  A    between atoms: C_30  and  C_31
REMARK                            x       y       z     vdW  Elec       q    Type
REMARK                         _______ _______ _______ _____ _____    ______ ____
ROOT
ATOM      1  N   UNL     1       2.243   7.547  19.353  0.00  0.00    +0.000 N 
ATOM      2  C   UNL     1       1.457   7.862  20.525  0.00  0.00    +0.000 C 
ATOM      3  C   UNL     1       0.973   9.232  20.294  0.00  0.00    +0.000 A 
ATOM      4  C   UNL     1       1.346   9.674  19.028  0.00  0.00    +0.000 A 
ATOM      5  C   UNL     1       0.971  10.943  18.590  0.00  0.00    +0.000 A 
ATOM      6  C   UNL     1       0.226  11.763  19.476  0.00  0.00    +0.000 A 
ATOM      7  C   UNL     1      -0.116  11.272  20.766  0.00  0.00    +0.000 A 
ATOM      8  C   UNL     1       0.267  10.006  21.202  0.00  0.00    +0.000 A 
ATOM      9  C   UNL     1       2.191   8.592  18.420  0.00  0.00    +0.000 C 
ATOM     10  O   UNL     1       2.726   8.687  17.323  0.00  0.00    +0.000 OA
ENDROOT
BRANCH   1  15
ATOM     11  C   UNL     1       5.229   5.317  18.829  0.00  0.00    +0.000 A 
ATOM     12  C   UNL     1       4.672   4.083  19.192  0.00  0.00    +0.000 A 
ATOM     13  C   UNL     1       3.347   3.982  19.659  0.00  0.00    +0.000 A 
ATOM     14  C   UNL     1       2.514   5.110  19.756  0.00  0.00    +0.000 A 
ATOM     15  C   UNL     1       3.009   6.346  19.390  0.00  0.00    +0.000 A 
ATOM     16  C   UNL     1       4.356   6.410  18.972  0.00  0.00    +0.000 A 
BRANCH  11  17
ATOM     17  C   UNL     1       6.739   5.551  18.295  0.00  0.00    +0.000 C 
ATOM     18  C   UNL     1       7.772   5.931  19.390  0.00  0.00    +0.000 C 
ATOM     19  O   UNL     1       8.078   7.192  18.768  0.00  0.00    +0.000 OA
ATOM     20  C   UNL     1       7.107   6.959  17.727  0.00  0.00    +0.000 C 
BRANCH  17  21
ATOM     21  C   UNL     1       7.208   4.399  17.368  0.00  0.00    +0.000 C 
BRANCH  21  27
ATOM     22  C   UNL     1       4.580   3.532  15.826  0.00  0.00    +0.000 C 
ATOM     23  N   UNL     1       5.731   4.199  15.279  0.00  0.00    +0.000 N 
ATOM     24  C   UNL     1       5.879   4.543  13.967  0.00  0.00    +0.000 A 
ATOM     25  N   UNL     1       7.053   5.099  13.790  0.00  0.00    +0.000 NA
ATOM     26  N   UNL     1       7.692   5.111  15.004  0.00  0.00    +0.000 NA
ATOM     27  C   UNL     1       6.887   4.591  15.913  0.00  0.00    +0.000 A 
ENDBRANCH  21  27
ENDBRANCH  17  21
ENDBRANCH  11  17
ENDBRANCH   1  15
BRANCH   8  28
ATOM     28  C   UNL     1      -0.034   9.547  22.606  0.00  0.00    +0.000 C 
ATOM     29  F   UNL     1       1.068   9.207  23.328  0.00  0.00    +0.000 F 
ATOM     30  F   UNL     1      -0.678  10.499  23.333  0.00  0.00    +0.000 F 
ATOM     31  F   UNL     1      -0.832   8.444  22.629  0.00  0.00    +0.000 F 
ENDBRANCH   8  28
BRANCH   6  32
ATOM     32  C   UNL     1      -0.262  13.168  19.128  0.00  0.00    +0.000 C 
BRANCH  32  33
ATOM     33  N   UNL     1       0.255  14.158  20.091  0.00  0.00    +0.000 NA
ATOM     34  C   UNL     1       1.705  14.347  20.050  0.00  0.00    +0.000 C 
ATOM     35  C   UNL     1       2.189  15.235  18.905  0.00  0.00    +0.000 C 
ATOM     36  C   UNL     1       1.431  16.554  18.817  0.00  0.00    +0.000 C 
ATOM     37  F   UNL     1       1.906  17.382  19.793  0.00  0.00    +0.000 F 
ATOM     38  C   UNL     1      -0.073  16.416  18.985  0.00  0.00    +0.000 C 
ATOM     39  F   UNL     1      -0.620  15.976  17.816  0.00  0.00    +0.000 F 
ATOM     40  C   UNL     1      -0.451  15.446  20.104  0.00  0.00    +0.000 C 
ENDBRANCH  32  33
ENDBRANCH   6  32
TORSDOF 7
ENDMDL
MODEL 2
REMARK VINA RESULT:      -9.4      0.776      1.021
REMARK  Name = 
REMARK  8 active torsions:
REMARK  status: ('A' for Active; 'I' for Inactive)
REMARK    1  A    between atoms: C_1  and  N_2
REMARK    2  A    between atoms: C_6  and  C_7
REMARK    3  A    between atoms: C_7  and  C_8
REMARK    4  A    between atoms: C_8  and  C_9
REMARK    5  A    between atoms: C_13  and  N_14
REMARK    6  A    between atoms: C_19  and  C_20
REMARK    7  A    between atoms: C_20  and  N_21
REMARK    8  A    between atoms: C_30  and  C_31
REMARK                            x       y       z     vdW  Elec       q    Type
REMARK                         _______ _______ _______ _____ _____    ______ ____
ROOT
ATOM      1  N   UNL     1       2.301   7.456  19.367  0.00  0.00    +0.000 N 
ATOM      2  C   UNL     1       1.530   7.785  20.545  0.00  0.00    +0.000 C 
ATOM      3  C   UNL     1       0.997   9.130  20.282  0.00  0.00    +0.000 A 
ATOM      4  C   UNL     1       1.330   9.543  18.994  0.00  0.00    +0.000 A 
ATOM      5  C   UNL     1       0.907  10.785  18.525  0.00  0.00    +0.000 A 
ATOM      6  C   UNL     1       0.155  11.609  19.400  0.00  0.00    +0.000 A 
ATOM      7  C   UNL     1      -0.145  11.150  20.712  0.00  0.00    +0.000 A 
ATOM      8  C   UNL     1       0.287   9.911  21.180  0.00  0.00    +0.000 A 
ATOM      9  C   UNL     1       2.196   8.468  18.402  0.00  0.00    +0.000 C 
ATOM     10  O   UNL     1       2.705   8.544  17.291  0.00  0.00    +0.000 OA
ENDROOT
BRANCH   1  15
ATOM     11  C   UNL     1       5.344   5.304  18.849  0.00  0.00    +0.000 A 
ATOM     12  C   UNL     1       4.834   4.065  19.262  0.00  0.00    +0.000 A 
ATOM     13  C   UNL     1       3.522   3.938  19.761  0.00  0.00    +0.000 A 
ATOM     14  C   UNL     1       2.656   5.043  19.840  0.00  0.00    +0.000 A 
ATOM     15  C   UNL     1       3.104   6.281  19.425  0.00  0.00    +0.000 A 
ATOM     16  C   UNL     1       4.440   6.373  18.976  0.00  0.00    +0.000 A 
BRANCH  11  17
ATOM     17  C   UNL     1       6.834   5.567  18.274  0.00  0.00    +0.000 C 
ATOM     18  C   UNL     1       7.886   5.976  19.341  0.00  0.00    +0.000 C 
ATOM     19  O   UNL     1       8.149   7.239  18.703  0.00  0.00    +0.000 OA
ATOM     20  C   UNL     1       7.158   6.979  17.689  0.00  0.00    +0.000 C 
BRANCH  17  21
ATOM     21  C   UNL     1       7.305   4.419  17.343  0.00  0.00    +0.000 C 
BRANCH  21  27
ATOM     22  C   UNL     1       4.631   3.526  15.896  0.00  0.00    +0.000 C 
ATOM     23  N   UNL     1       5.763   4.189  15.304  0.00  0.00    +0.000 N 
ATOM     24  C   UNL     1       5.868   4.516  13.984  0.00  0.00    +0.000 A 
ATOM     25  N   UNL     1       7.034   5.073  13.763  0.00  0.00    +0.000 NA
ATOM     26  N   UNL     1       7.711   5.103  14.956  0.00  0.00    +0.000 NA
ATOM     27  C   UNL     1       6.937   4.592  15.897  0.00  0.00    +0.000 A 
ENDBRANCH  21  27
ENDBRANCH  17  21
ENDBRANCH  11  17
ENDBRANCH   1  15
BRANCH   8  28
ATOM     28  C   UNL     1       0.029   9.489  22.604  0.00  0.00    +0.000 C 
ATOM     29  F   UNL     1       1.158   9.215  23.315  0.00  0.00    +0.000 F 
ATOM     30  F   UNL     1      -0.637  10.440  23.311  0.00  0.00    +0.000 F 
ATOM     31  F   UNL     1      -0.724   8.358  22.679  0.00  0.00    +0.000 F 
ENDBRANCH   8  28
BRANCH   6  32
ATOM     32  C   UNL     1      -0.385  12.986  19.019  0.00  0.00    +0.000 C 
BRANCH  32  33
ATOM     33  N   UNL     1       0.389  14.055  19.678  0.00  0.00    +0.000 NA
ATOM     34  C   UNL     1       0.773  15.160  18.799  0.00  0.00    +0.000 C 
ATOM     35  C   UNL     1      -0.348  16.163  18.527  0.00  0.00    +0.000 C 
ATOM     36  C   UNL     1      -1.031  16.648  19.799  0.00  0.00    +0.000 C 
ATOM     37  F   UNL     1      -0.216  17.567  20.395  0.00  0.00    +0.000 F 
ATOM     38  C   UNL     1      -1.332  15.543  20.800  0.00  0.00    +0.000 C 
ATOM     39  F   UNL     1      -2.450  14.869  20.407  0.00  0.00    +0.000 F 
ATOM     40  C   UNL     1      -0.179  14.550  20.940  0.00  0.00    +0.000 C 
ENDBRANCH  32  33
ENDBRANCH   6  32
TORSDOF 7
ENDMDL
MODEL 3
REMARK VINA RESULT:      -9.4      1.478      2.412
REMARK  Name = 
REMARK  8 active torsions:
REMARK  status: ('A' for Active; 'I' for Inactive)
REMARK    1  A    between atoms: C_1  and  N_2
REMARK    2  A    between atoms: C_6  and  C_7
REMARK    3  A    between atoms: C_7  and  C_8
REMARK    4  A    between atoms: C_8  and  C_9
REMARK    5  A    between atoms: C_13  and  N_14
REMARK    6  A    between atoms: C_19  and  C_20
REMARK    7  A    between atoms: C_20  and  N_21
REMARK    8  A    between atoms: C_30  and  C_31
REMARK                            x       y       z     vdW  Elec       q    Type
REMARK                         _______ _______ _______ _____ _____    ______ ____
ROOT
ATOM      1  N   UNL     1       2.192   7.450  19.162  0.00  0.00    +0.000 N 
ATOM      2  C   UNL     1       1.458   7.793  20.360  0.00  0.00    +0.000 C 
ATOM      3  C   UNL     1       1.067   9.199  20.172  0.00  0.00    +0.000 A 
ATOM      4  C   UNL     1       1.442   9.644  18.907  0.00  0.00    +0.000 A 
ATOM      5  C   UNL     1       1.150  10.946  18.507  0.00  0.00    +0.000 A 
ATOM      6  C   UNL     1       0.486  11.795  19.429  0.00  0.00    +0.000 A 
ATOM      7  C   UNL     1       0.139  11.299  20.716  0.00  0.00    +0.000 A 
ATOM      8  C   UNL     1       0.440   9.999  21.114  0.00  0.00    +0.000 A 
ATOM      9  C   UNL     1       2.192   8.519  18.254  0.00  0.00    +0.000 C 
ATOM     10  O   UNL     1       2.708   8.602  17.147  0.00  0.00    +0.000 OA
ENDROOT
BRANCH   1  15
ATOM     11  C   UNL     1       4.502   4.764  17.895  0.00  0.00    +0.000 A 
ATOM     12  C   UNL     1       4.203   3.742  18.807  0.00  0.00    +0.000 A 
ATOM     13  C   UNL     1       3.294   3.942  19.865  0.00  0.00    +0.000 A 
ATOM     14  C   UNL     1       2.625   5.166  20.037  0.00  0.00    +0.000 A 
ATOM     15  C   UNL     1       2.869   6.198  19.153  0.00  0.00    +0.000 A 
ATOM     16  C   UNL     1       3.822   5.970  18.136  0.00  0.00    +0.000 A 
BRANCH  11  17
ATOM     17  C   UNL     1       5.537   4.650  16.656  0.00  0.00    +0.000 C 
ATOM     18  C   UNL     1       5.219   5.574  15.449  0.00  0.00    +0.000 C 
ATOM     19  O   UNL     1       5.068   4.464  14.546  0.00  0.00    +0.000 OA
ATOM     20  C   UNL     1       5.304   3.517  15.607  0.00  0.00    +0.000 C 
BRANCH  17  21
ATOM     21  C   UNL     1       7.013   4.726  17.128  0.00  0.00    +0.000 C 
BRANCH  21  27
ATOM     22  C   UNL     1       8.092   5.732  19.932  0.00  0.00    +0.000 C 
ATOM     23  N   UNL     1       7.949   6.503  18.726  0.00  0.00    +0.000 N 
ATOM     24  C   UNL     1       8.239   7.831  18.614  0.00  0.00    +0.000 A 
ATOM     25  N   UNL     1       7.963   8.239  17.400  0.00  0.00    +0.000 NA
ATOM     26  N   UNL     1       7.474   7.163  16.703  0.00  0.00    +0.000 NA
ATOM     27  C   UNL     1       7.486   6.104  17.493  0.00  0.00    +0.000 A 
ENDBRANCH  21  27
ENDBRANCH  17  21
ENDBRANCH  11  17
ENDBRANCH   1  15
BRANCH   8  28
ATOM     28  C   UNL     1       0.139   9.529  22.514  0.00  0.00    +0.000 C 
ATOM     29  F   UNL     1      -0.711   8.468  22.573  0.00  0.00    +0.000 F 
ATOM     30  F   UNL     1       1.260   9.147  23.183  0.00  0.00    +0.000 F 
ATOM     31  F   UNL     1      -0.444  10.498  23.271  0.00  0.00    +0.000 F 
ENDBRANCH   8  28
BRANCH   6  32
ATOM     32  C   UNL     1       0.092  13.240  19.125  0.00  0.00    +0.000 C 
BRANCH  32  33
ATOM     33  N   UNL     1       0.842  14.180  19.979  0.00  0.00    +0.000 NA
ATOM     34  C   UNL     1       2.244  14.360  19.602  0.00  0.00    +0.000 C 
ATOM     35  C   UNL     1       2.458  15.296  18.413  0.00  0.00    +0.000 C 
ATOM     36  C   UNL     1       1.726  16.623  18.565  0.00  0.00    +0.000 C 
ATOM     37  F   UNL     1       2.434  17.402  19.435  0.00  0.00    +0.000 F 
ATOM     38  C   UNL     1       0.302  16.489  19.081  0.00  0.00    +0.000 C 
ATOM     39  F   UNL     1      -0.516  16.108  18.058  0.00  0.00    +0.000 F 
ATOM     40  C   UNL     1       0.184  15.472  20.214  0.00  0.00    +0.000 C 
ENDBRANCH  32  33
ENDBRANCH   6  32
TORSDOF 7
ENDMDL
MODEL 4
REMARK VINA RESULT:      -9.1      4.761     11.444
REMARK  Name = 
REMARK  8 active torsions:
REMARK  status: ('A' for Active; 'I' for Inactive)
REMARK    1  A    between atoms: C_1  and  N_2
REMARK    2  A    between atoms: C_6  and  C_7
REMARK    3  A    between atoms: C_7  and  C_8
REMARK    4  A    between atoms: C_8  and  C_9
REMARK    5  A    between atoms: C_13  and  N_14
REMARK    6  A    between atoms: C_19  and  C_20
REMARK    7  A    between atoms: C_20  and  N_21
REMARK    8  A    between atoms: C_30  and  C_31
REMARK                            x       y       z     vdW  Elec       q    Type
REMARK                         _______ _______ _______ _____ _____    ______ ____
ROOT
ATOM      1  N   UNL     1       0.131  11.192  21.638  0.00  0.00    +0.000 N 
ATOM      2  C   UNL     1       0.484  10.935  20.260  0.00  0.00    +0.000 C 
ATOM      3  C   UNL     1       0.939   9.536  20.243  0.00  0.00    +0.000 A 
ATOM      4  C   UNL     1       0.771   8.954  21.497  0.00  0.00    +0.000 A 
ATOM      5  C   UNL     1       1.118   7.620  21.703  0.00  0.00    +0.000 A 
ATOM      6  C   UNL     1       1.660   6.895  20.612  0.00  0.00    +0.000 A 
ATOM      7  C   UNL     1       1.828   7.539  19.355  0.00  0.00    +0.000 A 
ATOM      8  C   UNL     1       1.487   8.874  19.156  0.00  0.00    +0.000 A 
ATOM      9  C   UNL     1       0.267  10.032  22.414  0.00  0.00    +0.000 C 
ATOM     10  O   UNL     1       0.064   9.863  23.609  0.00  0.00    +0.000 OA
ENDROOT
BRANCH   1  15
ATOM     11  C   UNL     1      -1.816  14.053  23.116  0.00  0.00    +0.000 A 
ATOM     12  C   UNL     1      -1.040  15.129  22.664  0.00  0.00    +0.000 A 
ATOM     13  C   UNL     1       0.144  14.925  21.928  0.00  0.00    +0.000 A 
ATOM     14  C   UNL     1       0.586  13.634  21.590  0.00  0.00    +0.000 A 
ATOM     15  C   UNL     1      -0.156  12.541  21.993  0.00  0.00    +0.000 A 
ATOM     16  C   UNL     1      -1.310  12.788  22.768  0.00  0.00    +0.000 A 
BRANCH  11  17
ATOM     17  C   UNL     1      -3.182  14.169  23.977  0.00  0.00    +0.000 C 
ATOM     18  C   UNL     1      -4.047  15.421  23.671  0.00  0.00    +0.000 C 
ATOM     19  O   UNL     1      -3.951  15.908  25.022  0.00  0.00    +0.000 OA
ATOM     20  C   UNL     1      -3.101  14.807  25.401  0.00  0.00    +0.000 C 
BRANCH  17  21
ATOM     21  C   UNL     1      -3.984  12.841  23.970  0.00  0.00    +0.000 C 
BRANCH  21  27
ATOM     22  C   UNL     1      -7.125  13.192  24.186  0.00  0.00    +0.000 C 
ATOM     23  N   UNL     1      -6.362  12.887  23.006  0.00  0.00    +0.000 N 
ATOM     24  C   UNL     1      -6.897  12.668  21.770  0.00  0.00    +0.000 A 
ATOM     25  N   UNL     1      -5.939  12.378  20.924  0.00  0.00    +0.000 NA
ATOM     26  N   UNL     1      -4.755  12.396  21.616  0.00  0.00    +0.000 NA
ATOM     27  C   UNL     1      -5.002  12.727  22.871  0.00  0.00    +0.000 A 
ENDBRANCH  21  27
ENDBRANCH  17  21
ENDBRANCH  11  17
ENDBRANCH   1  15
BRANCH   8  28
ATOM     28  C   UNL     1       1.758   9.554  17.838  0.00  0.00    +0.000 C 
ATOM     29  F   UNL     1       2.464  10.714  17.946  0.00  0.00    +0.000 F 
ATOM     30  F   UNL     1       2.465   8.765  16.986  0.00  0.00    +0.000 F 
ATOM     31  F   UNL     1       0.613   9.891  17.185  0.00  0.00    +0.000 F 
ENDBRANCH   8  28
BRANCH   6  32
ATOM     32  C   UNL     1       2.074   5.426  20.687  0.00  0.00    +0.000 C 
BRANCH  32  33
ATOM     33  N   UNL     1       2.380   4.897  19.345  0.00  0.00    +0.000 NA
ATOM     34  C   UNL     1       3.747   4.402  19.183  0.00  0.00    +0.000 C 
ATOM     35  C   UNL     1       3.983   3.010  19.767  0.00  0.00    +0.000 C 
ATOM     36  C   UNL     1       2.943   1.993  19.313  0.00  0.00    +0.000 C 
ATOM     37  F   UNL     1       3.245   1.618  18.036  0.00  0.00    +0.000 F 
ATOM     38  C   UNL     1       1.515   2.513  19.343  0.00  0.00    +0.000 C 
ATOM     39  F   UNL     1       1.049   2.480  20.624  0.00  0.00    +0.000 F 
ATOM     40  C   UNL     1       1.401   3.940  18.811  0.00  0.00    +0.000 C 
ENDBRANCH  32  33
ENDBRANCH   6  32
TORSDOF 7
ENDMDL
MODEL 5
REMARK VINA RESULT:      -9.1      0.800      1.073
REMARK  Name = 
REMARK  8 active torsions:
REMARK  status: ('A' for Active; 'I' for Inactive)
REMARK    1  A    between atoms: C_1  and  N_2
REMARK    2  A    between atoms: C_6  and  C_7
REMARK    3  A    between atoms: C_7  and  C_8
REMARK    4  A    between atoms: C_8  and  C_9
REMARK    5  A    between atoms: C_13  and  N_14
REMARK    6  A    between atoms: C_19  and  C_20
REMARK    7  A    between atoms: C_20  and  N_21
REMARK    8  A    between atoms: C_30  and  C_31
REMARK                            x       y       z     vdW  Elec       q    Type
REMARK                         _______ _______ _______ _____ _____    ______ ____
ROOT
ATOM      1  N   UNL     1       1.931   7.701  19.150  0.00  0.00    +0.000 N 
ATOM      2  C   UNL     1       1.241   7.994  20.386  0.00  0.00    +0.000 C 
ATOM      3  C   UNL     1       0.858   9.410  20.278  0.00  0.00    +0.000 A 
ATOM      4  C   UNL     1       1.194   9.910  19.022  0.00  0.00    +0.000 A 
ATOM      5  C   UNL     1       0.900  11.232  18.694  0.00  0.00    +0.000 A 
ATOM      6  C   UNL     1       0.277  12.042  19.676  0.00  0.00    +0.000 A 
ATOM      7  C   UNL     1      -0.031  11.489  20.949  0.00  0.00    +0.000 A 
ATOM      8  C   UNL     1       0.271  10.170  21.277  0.00  0.00    +0.000 A 
ATOM      9  C   UNL     1       1.911   8.811  18.292  0.00  0.00    +0.000 C 
ATOM     10  O   UNL     1       2.389   8.942  17.173  0.00  0.00    +0.000 OA
ENDROOT
BRANCH   1  15
ATOM     11  C   UNL     1       4.615   5.260  18.152  0.00  0.00    +0.000 A 
ATOM     12  C   UNL     1       4.026   4.065  18.591  0.00  0.00    +0.000 A 
ATOM     13  C   UNL     1       2.786   4.058  19.259  0.00  0.00    +0.000 A 
ATOM     14  C   UNL     1       2.069   5.245  19.492  0.00  0.00    +0.000 A 
ATOM     15  C   UNL     1       2.596   6.446  19.060  0.00  0.00    +0.000 A 
ATOM     16  C   UNL     1       3.863   6.413  18.436  0.00  0.00    +0.000 A 
BRANCH  11  17
ATOM     17  C   UNL     1       6.036   5.387  17.388  0.00  0.00    +0.000 C 
ATOM     18  C   UNL     1       7.265   5.584  18.317  0.00  0.00    +0.000 C 
ATOM     19  O   UNL     1       7.600   6.853  17.725  0.00  0.00    +0.000 OA
ATOM     20  C   UNL     1       6.457   6.791  16.849  0.00  0.00    +0.000 C 
BRANCH  17  21
ATOM     21  C   UNL     1       6.226   4.266  16.332  0.00  0.00    +0.000 C 
BRANCH  21  27
ATOM     22  C   UNL     1       5.335   3.532  13.382  0.00  0.00    +0.000 C 
ATOM     23  N   UNL     1       6.433   4.375  13.777  0.00  0.00    +0.000 N 
ATOM     24  C   UNL     1       7.298   4.979  12.912  0.00  0.00    +0.000 A 
ATOM     25  N   UNL     1       8.202   5.642  13.590  0.00  0.00    +0.000 NA
ATOM     26  N   UNL     1       7.934   5.462  14.924  0.00  0.00    +0.000 NA
ATOM     27  C   UNL     1       6.850   4.717  15.042  0.00  0.00    +0.000 A 
ENDBRANCH  21  27
ENDBRANCH  17  21
ENDBRANCH  11  17
ENDBRANCH   1  15
BRANCH   8  28
ATOM     28  C   UNL     1       0.013   9.638  22.663  0.00  0.00    +0.000 C 
ATOM     29  F   UNL     1      -0.745   8.507  22.692  0.00  0.00    +0.000 F 
ATOM     30  F   UNL     1       1.164   9.333  23.321  0.00  0.00    +0.000 F 
ATOM     31  F   UNL     1      -0.649  10.533  23.446  0.00  0.00    +0.000 F 
ENDBRANCH   8  28
BRANCH   6  32
ATOM     32  C   UNL     1      -0.114  13.502  19.453  0.00  0.00    +0.000 C 
BRANCH  32  33
ATOM     33  N   UNL     1       0.832  14.409  20.130  0.00  0.00    +0.000 NA
ATOM     34  C   UNL     1       2.212  14.315  19.653  0.00  0.00    +0.000 C 
ATOM     35  C   UNL     1       2.473  15.051  18.340  0.00  0.00    +0.000 C 
ATOM     36  C   UNL     1       1.964  16.486  18.354  0.00  0.00    +0.000 C 
ATOM     37  F   UNL     1       2.846  17.243  19.070  0.00  0.00    +0.000 F 
ATOM     38  C   UNL     1       0.580  16.646  18.962  0.00  0.00    +0.000 C 
ATOM     39  F   UNL     1      -0.362  16.277  18.047  0.00  0.00    +0.000 F 
ATOM     40  C   UNL     1       0.396  15.809  20.227  0.00  0.00    +0.000 C 
ENDBRANCH  32  33
ENDBRANCH   6  32
TORSDOF 7
ENDMDL
MODEL 6
REMARK VINA RESULT:      -9.0      0.990      1.544
REMARK  Name = 
REMARK  8 active torsions:
REMARK  status: ('A' for Active; 'I' for Inactive)
REMARK    1  A    between atoms: C_1  and  N_2
REMARK    2  A    between atoms: C_6  and  C_7
REMARK    3  A    between atoms: C_7  and  C_8
REMARK    4  A    between atoms: C_8  and  C_9
REMARK    5  A    between atoms: C_13  and  N_14
REMARK    6  A    between atoms: C_19  and  C_20
REMARK    7  A    between atoms: C_20  and  N_21
REMARK    8  A    between atoms: C_30  and  C_31
REMARK                            x       y       z     vdW  Elec       q    Type
REMARK                         _______ _______ _______ _____ _____    ______ ____
ROOT
ATOM      1  N   UNL     1       1.967   7.646  19.517  0.00  0.00    +0.000 N 
ATOM      2  C   UNL     1       1.205   7.974  20.701  0.00  0.00    +0.000 C 
ATOM      3  C   UNL     1       0.697   9.333  20.457  0.00  0.00    +0.000 A 
ATOM      4  C   UNL     1       1.035   9.757  19.174  0.00  0.00    +0.000 A 
ATOM      5  C   UNL     1       0.634  11.012  18.723  0.00  0.00    +0.000 A 
ATOM      6  C   UNL     1      -0.101  11.838  19.611  0.00  0.00    +0.000 A 
ATOM      7  C   UNL     1      -0.407  11.367  20.917  0.00  0.00    +0.000 A 
ATOM      8  C   UNL     1       0.003  10.114  21.367  0.00  0.00    +0.000 A 
ATOM      9  C   UNL     1       1.879   8.673  18.566  0.00  0.00    +0.000 C 
ATOM     10  O   UNL     1       2.387   8.755  17.455  0.00  0.00    +0.000 OA
ENDROOT
BRANCH   1  15
ATOM     11  C   UNL     1       4.916   5.407  18.846  0.00  0.00    +0.000 A 
ATOM     12  C   UNL     1       4.415   4.196  19.346  0.00  0.00    +0.000 A 
ATOM     13  C   UNL     1       3.144   4.119  19.950  0.00  0.00    +0.000 A 
ATOM     14  C   UNL     1       2.310   5.245  20.053  0.00  0.00    +0.000 A 
ATOM     15  C   UNL     1       2.749   6.457  19.557  0.00  0.00    +0.000 A 
ATOM     16  C   UNL     1       4.046   6.501  19.002  0.00  0.00    +0.000 A 
BRANCH  11  17
ATOM     17  C   UNL     1       6.361   5.614  18.148  0.00  0.00    +0.000 C 
ATOM     18  C   UNL     1       7.238   4.336  18.062  0.00  0.00    +0.000 C 
ATOM     19  O   UNL     1       8.291   4.918  18.853  0.00  0.00    +0.000 OA
ATOM     20  C   UNL     1       7.537   6.134  19.034  0.00  0.00    +0.000 C 
BRANCH  17  21
ATOM     21  C   UNL     1       6.247   6.383  16.805  0.00  0.00    +0.000 C 
BRANCH  21  27
ATOM     22  C   UNL     1       4.307   4.110  15.753  0.00  0.00    +0.000 C 
ATOM     23  N   UNL     1       5.538   4.551  15.153  0.00  0.00    +0.000 N 
ATOM     24  C   UNL     1       6.085   4.019  14.022  0.00  0.00    +0.000 A 
ATOM     25  N   UNL     1       7.223   4.616  13.764  0.00  0.00    +0.000 NA
ATOM     26  N   UNL     1       7.433   5.549  14.748  0.00  0.00    +0.000 NA
ATOM     27  C   UNL     1       6.405   5.531  15.577  0.00  0.00    +0.000 A 
ENDBRANCH  21  27
ENDBRANCH  17  21
ENDBRANCH  11  17
ENDBRANCH   1  15
BRANCH   8  28
ATOM     28  C   UNL     1      -0.260   9.678  22.786  0.00  0.00    +0.000 C 
ATOM     29  F   UNL     1      -0.950  10.586  23.528  0.00  0.00    +0.000 F 
ATOM     30  F   UNL     1      -0.976   8.523  22.846  0.00  0.00    +0.000 F 
ATOM     31  F   UNL     1       0.890   9.450  23.477  0.00  0.00    +0.000 F 
ENDBRANCH   8  28
BRANCH   6  32
ATOM     32  C   UNL     1      -0.615  13.231  19.249  0.00  0.00    +0.000 C 
BRANCH  32  33
ATOM     33  N   UNL     1       0.505  14.160  19.013  0.00  0.00    +0.000 NA
ATOM     34  C   UNL     1       0.102  15.517  18.642  0.00  0.00    +0.000 C 
ATOM     35  C   UNL     1      -0.345  16.382  19.819  0.00  0.00    +0.000 C 
ATOM     36  C   UNL     1       0.648  16.371  20.974  0.00  0.00    +0.000 C 
ATOM     37  F   UNL     1       1.693  17.184  20.644  0.00  0.00    +0.000 F 
ATOM     38  C   UNL     1       1.191  14.991  21.309  0.00  0.00    +0.000 C 
ATOM     39  F   UNL     1       0.267  14.307  22.042  0.00  0.00    +0.000 F 
ATOM     40  C   UNL     1       1.534  14.178  20.062  0.00  0.00    +0.000 C 
ENDBRANCH  32  33
ENDBRANCH   6  32
TORSDOF 7
ENDMDL
MODEL 7
REMARK VINA RESULT:      -8.9      1.108      1.498
REMARK  Name = 
REMARK  8 active torsions:
REMARK  status: ('A' for Active; 'I' for Inactive)
REMARK    1  A    between atoms: C_1  and  N_2
REMARK    2  A    between atoms: C_6  and  C_7
REMARK    3  A    between atoms: C_7  and  C_8
REMARK    4  A    between atoms: C_8  and  C_9
REMARK    5  A    between atoms: C_13  and  N_14
REMARK    6  A    between atoms: C_19  and  C_20
REMARK    7  A    between atoms: C_20  and  N_21
REMARK    8  A    between atoms: C_30  and  C_31
REMARK                            x       y       z     vdW  Elec       q    Type
REMARK                         _______ _______ _______ _____ _____    ______ ____
ROOT
ATOM      1  N   UNL     1       1.908   7.650  19.266  0.00  0.00    +0.000 N 
ATOM      2  C   UNL     1       1.184   7.942  20.483  0.00  0.00    +0.000 C 
ATOM      3  C   UNL     1       0.787   9.353  20.355  0.00  0.00    +0.000 A 
ATOM      4  C   UNL     1       1.149   9.849  19.105  0.00  0.00    +0.000 A 
ATOM      5  C   UNL     1       0.848  11.165  18.761  0.00  0.00    +0.000 A 
ATOM      6  C   UNL     1       0.191  11.975  19.722  0.00  0.00    +0.000 A 
ATOM      7  C   UNL     1      -0.142  11.427  20.991  0.00  0.00    +0.000 A 
ATOM      8  C   UNL     1       0.167  10.113  21.334  0.00  0.00    +0.000 A 
ATOM      9  C   UNL     1       1.897   8.754  18.401  0.00  0.00    +0.000 C 
ATOM     10  O   UNL     1       2.401   8.883  17.293  0.00  0.00    +0.000 OA
ENDROOT
BRANCH   1  15
ATOM     11  C   UNL     1       4.581   5.205  18.249  0.00  0.00    +0.000 A 
ATOM     12  C   UNL     1       4.036   4.024  18.772  0.00  0.00    +0.000 A 
ATOM     13  C   UNL     1       2.830   4.029  19.501  0.00  0.00    +0.000 A 
ATOM     14  C   UNL     1       2.105   5.215  19.714  0.00  0.00    +0.000 A 
ATOM     15  C   UNL     1       2.590   6.402  19.201  0.00  0.00    +0.000 A 
ATOM     16  C   UNL     1       3.824   6.359  18.517  0.00  0.00    +0.000 A 
BRANCH  11  17
ATOM     17  C   UNL     1       5.961   5.318  17.411  0.00  0.00    +0.000 C 
ATOM     18  C   UNL     1       7.247   5.426  18.274  0.00  0.00    +0.000 C 
ATOM     19  O   UNL     1       7.597   6.709  17.722  0.00  0.00    +0.000 OA
ATOM     20  C   UNL     1       6.405   6.730  16.912  0.00  0.00    +0.000 C 
BRANCH  17  21
ATOM     21  C   UNL     1       6.048   4.242  16.296  0.00  0.00    +0.000 C 
BRANCH  21  27
ATOM     22  C   UNL     1       5.261   3.604  13.294  0.00  0.00    +0.000 C 
ATOM     23  N   UNL     1       6.374   4.389  13.754  0.00  0.00    +0.000 N 
ATOM     24  C   UNL     1       7.303   4.971  12.942  0.00  0.00    +0.000 A 
ATOM     25  N   UNL     1       8.204   5.581  13.673  0.00  0.00    +0.000 NA
ATOM     26  N   UNL     1       7.867   5.388  14.989  0.00  0.00    +0.000 NA
ATOM     27  C   UNL     1       6.748   4.689  15.044  0.00  0.00    +0.000 A 
ENDBRANCH  21  27
ENDBRANCH  17  21
ENDBRANCH  11  17
ENDBRANCH   1  15
BRANCH   8  28
ATOM     28  C   UNL     1      -0.120   9.586  22.717  0.00  0.00    +0.000 C 
ATOM     29  F   UNL     1       0.994   9.279  23.436  0.00  0.00    +0.000 F 
ATOM     30  F   UNL     1      -0.819  10.475  23.473  0.00  0.00    +0.000 F 
ATOM     31  F   UNL     1      -0.857   8.443  22.692  0.00  0.00    +0.000 F 
ENDBRANCH   8  28
BRANCH   6  32
ATOM     32  C   UNL     1      -0.211  13.429  19.479  0.00  0.00    +0.000 C 
BRANCH  32  33
ATOM     33  N   UNL     1       0.974  14.262  19.200  0.00  0.00    +0.000 NA
ATOM     34  C   UNL     1       0.672  15.646  18.837  0.00  0.00    +0.000 C 
ATOM     35  C   UNL     1       0.340  16.548  20.025  0.00  0.00    +0.000 C 
ATOM     36  C   UNL     1       1.368  16.455  21.145  0.00  0.00    +0.000 C 
ATOM     37  F   UNL     1       2.466  17.178  20.774  0.00  0.00    +0.000 F 
ATOM     38  C   UNL     1       1.807  15.036  21.467  0.00  0.00    +0.000 C 
ATOM     39  F   UNL     1       0.856  14.432  22.234  0.00  0.00    +0.000 F 
ATOM     40  C   UNL     1       2.037  14.196  20.211  0.00  0.00    +0.000 C 
ENDBRANCH  32  33
ENDBRANCH   6  32
TORSDOF 7
ENDMDL
MODEL 8
REMARK VINA RESULT:      -8.8      3.948     10.098
REMARK  Name = 
REMARK  8 active torsions:
REMARK  status: ('A' for Active; 'I' for Inactive)
REMARK    1  A    between atoms: C_1  and  N_2
REMARK    2  A    between atoms: C_6  and  C_7
REMARK    3  A    between atoms: C_7  and  C_8
REMARK    4  A    between atoms: C_8  and  C_9
REMARK    5  A    between atoms: C_13  and  N_14
REMARK    6  A    between atoms: C_19  and  C_20
REMARK    7  A    between atoms: C_20  and  N_21
REMARK    8  A    between atoms: C_30  and  C_31
REMARK                            x       y       z     vdW  Elec       q    Type
REMARK                         _______ _______ _______ _____ _____    ______ ____
ROOT
ATOM      1  N   UNL     1      -0.027  10.928  21.719  0.00  0.00    +0.000 N 
ATOM      2  C   UNL     1       0.359  10.756  20.337  0.00  0.00    +0.000 C 
ATOM      3  C   UNL     1       0.902   9.391  20.265  0.00  0.00    +0.000 A 
ATOM      4  C   UNL     1       0.755   8.743  21.489  0.00  0.00    +0.000 A 
ATOM      5  C   UNL     1       1.184   7.426  21.641  0.00  0.00    +0.000 A 
ATOM      6  C   UNL     1       1.785   6.786  20.527  0.00  0.00    +0.000 A 
ATOM      7  C   UNL     1       1.928   7.496  19.303  0.00  0.00    +0.000 A 
ATOM      8  C   UNL     1       1.505   8.815  19.157  0.00  0.00    +0.000 A 
ATOM      9  C   UNL     1       0.172   9.744  22.444  0.00  0.00    +0.000 C 
ATOM     10  O   UNL     1      -0.034   9.509  23.628  0.00  0.00    +0.000 OA
ENDROOT
BRANCH   1  15
ATOM     11  C   UNL     1       0.093  14.686  21.871  0.00  0.00    +0.000 A 
ATOM     12  C   UNL     1      -0.834  14.913  22.897  0.00  0.00    +0.000 A 
ATOM     13  C   UNL     1      -1.539  13.853  23.501  0.00  0.00    +0.000 A 
ATOM     14  C   UNL     1      -1.323  12.517  23.121  0.00  0.00    +0.000 A 
ATOM     15  C   UNL     1      -0.404  12.238  22.129  0.00  0.00    +0.000 A 
ATOM     16  C   UNL     1       0.246  13.333  21.519  0.00  0.00    +0.000 A 
BRANCH  11  17
ATOM     17  C   UNL     1       0.947  15.825  21.100  0.00  0.00    +0.000 C 
ATOM     18  C   UNL     1       2.465  15.838  21.421  0.00  0.00    +0.000 C 
ATOM     19  O   UNL     1       2.419  17.180  21.938  0.00  0.00    +0.000 OA
ATOM     20  C   UNL     1       0.995  17.256  21.724  0.00  0.00    +0.000 C 
BRANCH  17  21
ATOM     21  C   UNL     1       0.630  15.853  19.581  0.00  0.00    +0.000 C 
BRANCH  21  27
ATOM     22  C   UNL     1       2.660  13.833  18.226  0.00  0.00    +0.000 C 
ATOM     23  N   UNL     1       2.664  15.268  18.129  0.00  0.00    +0.000 N 
ATOM     24  C   UNL     1       3.590  15.997  17.441  0.00  0.00    +0.000 A 
ATOM     25  N   UNL     1       3.333  17.275  17.584  0.00  0.00    +0.000 NA
ATOM     26  N   UNL     1       2.227  17.388  18.387  0.00  0.00    +0.000 NA
ATOM     27  C   UNL     1       1.803  16.177  18.700  0.00  0.00    +0.000 A 
ENDBRANCH  21  27
ENDBRANCH  17  21
ENDBRANCH  11  17
ENDBRANCH   1  15
BRANCH   8  28
ATOM     28  C   UNL     1       1.748   9.570  17.876  0.00  0.00    +0.000 C 
ATOM     29  F   UNL     1       2.497  10.697  18.028  0.00  0.00    +0.000 F 
ATOM     30  F   UNL     1       2.395   8.815  16.948  0.00  0.00    +0.000 F 
ATOM     31  F   UNL     1       0.591   9.984  17.292  0.00  0.00    +0.000 F 
ENDBRANCH   8  28
BRANCH   6  32
ATOM     32  C   UNL     1       2.290   5.345  20.543  0.00  0.00    +0.000 C 
BRANCH  32  33
ATOM     33  N   UNL     1       2.542   4.860  19.173  0.00  0.00    +0.000 NA
ATOM     34  C   UNL     1       3.890   4.339  18.950  0.00  0.00    +0.000 C 
ATOM     35  C   UNL     1       4.108   2.919  19.473  0.00  0.00    +0.000 C 
ATOM     36  C   UNL     1       3.029   1.947  19.014  0.00  0.00    +0.000 C 
ATOM     37  F   UNL     1       3.282   1.614  17.714  0.00  0.00    +0.000 F 
ATOM     38  C   UNL     1       1.616   2.500  19.109  0.00  0.00    +0.000 C 
ATOM     39  F   UNL     1       1.189   2.429  20.401  0.00  0.00    +0.000 F 
ATOM     40  C   UNL     1       1.522   3.949  18.635  0.00  0.00    +0.000 C 
ENDBRANCH  32  33
ENDBRANCH   6  32
TORSDOF 7
ENDMDL
MODEL 9
REMARK VINA RESULT:      -8.8      4.045      9.591
REMARK  Name = 
REMARK  8 active torsions:
REMARK  status: ('A' for Active; 'I' for Inactive)
REMARK    1  A    between atoms: C_1  and  N_2
REMARK    2  A    between atoms: C_6  and  C_7
REMARK    3  A    between atoms: C_7  and  C_8
REMARK    4  A    between atoms: C_8  and  C_9
REMARK    5  A    between atoms: C_13  and  N_14
REMARK    6  A    between atoms: C_19  and  C_20
REMARK    7  A    between atoms: C_20  and  N_21
REMARK    8  A    between atoms: C_30  and  C_31
REMARK                            x       y       z     vdW  Elec       q    Type
REMARK                         _______ _______ _______ _____ _____    ______ ____
ROOT
ATOM      1  N   UNL     1       1.237   8.455  20.426  0.00  0.00    +0.000 N 
ATOM      2  C   UNL     1       1.403   7.119  20.951  0.00  0.00    +0.000 C 
ATOM      3  C   UNL     1       2.168   6.402  19.919  0.00  0.00    +0.000 A 
ATOM      4  C   UNL     1       2.534   7.270  18.893  0.00  0.00    +0.000 A 
ATOM      5  C   UNL     1       3.286   6.804  17.817  0.00  0.00    +0.000 A 
ATOM      6  C   UNL     1       3.642   5.431  17.794  0.00  0.00    +0.000 A 
ATOM      7  C   UNL     1       3.229   4.582  18.857  0.00  0.00    +0.000 A 
ATOM      8  C   UNL     1       2.471   5.049  19.927  0.00  0.00    +0.000 A 
ATOM      9  C   UNL     1       1.914   8.601  19.206  0.00  0.00    +0.000 C 
ATOM     10  O   UNL     1       1.999   9.576  18.472  0.00  0.00    +0.000 OA
ENDROOT
BRANCH   1  15
ATOM     11  C   UNL     1      -1.098  11.363  20.933  0.00  0.00    +0.000 A 
ATOM     12  C   UNL     1      -1.287  11.278  22.320  0.00  0.00    +0.000 A 
ATOM     13  C   UNL     1      -0.703  10.246  23.081  0.00  0.00    +0.000 A 
ATOM     14  C   UNL     1       0.119   9.271  22.489  0.00  0.00    +0.000 A 
ATOM     15  C   UNL     1       0.354   9.323  21.129  0.00  0.00    +0.000 A 
ATOM     16  C   UNL     1      -0.288  10.346  20.397  0.00  0.00    +0.000 A 
BRANCH  11  17
ATOM     17  C   UNL     1      -1.729  12.492  19.961  0.00  0.00    +0.000 C 
ATOM     18  C   UNL     1      -0.753  13.063  18.897  0.00  0.00    +0.000 C 
ATOM     19  O   UNL     1      -0.865  14.404  19.407  0.00  0.00    +0.000 OA
ATOM     20  C   UNL     1      -1.743  13.971  20.465  0.00  0.00    +0.000 C 
BRANCH  17  21
ATOM     21  C   UNL     1      -3.098  12.052  19.379  0.00  0.00    +0.000 C 
BRANCH  21  27
ATOM     22  C   UNL     1      -5.349  12.144  17.151  0.00  0.00    +0.000 C 
ATOM     23  N   UNL     1      -4.041  11.553  17.045  0.00  0.00    +0.000 N 
ATOM     24  C   UNL     1      -3.572  10.899  15.944  0.00  0.00    +0.000 A 
ATOM     25  N   UNL     1      -2.364  10.448  16.185  0.00  0.00    +0.000 NA
ATOM     26  N   UNL     1      -2.039  10.803  17.469  0.00  0.00    +0.000 NA
ATOM     27  C   UNL     1      -3.039  11.493  17.986  0.00  0.00    +0.000 A 
ENDBRANCH  21  27
ENDBRANCH  17  21
ENDBRANCH  11  17
ENDBRANCH   1  15
BRANCH   8  28
ATOM     28  C   UNL     1       1.974   4.108  20.994  0.00  0.00    +0.000 C 
ATOM     29  F   UNL     1       2.383   2.819  20.832  0.00  0.00    +0.000 F 
ATOM     30  F   UNL     1       2.382   4.476  22.238  0.00  0.00    +0.000 F 
ATOM     31  F   UNL     1       0.615   4.049  21.039  0.00  0.00    +0.000 F 
ENDBRANCH   8  28
BRANCH   6  32
ATOM     32  C   UNL     1       4.473   4.785  16.686  0.00  0.00    +0.000 C 
BRANCH  32  33
ATOM     33  N   UNL     1       5.370   5.773  16.058  0.00  0.00    +0.000 NA
ATOM     34  C   UNL     1       6.771   5.668  16.467  0.00  0.00    +0.000 C 
ATOM     35  C   UNL     1       7.544   4.549  15.771  0.00  0.00    +0.000 C 
ATOM     36  C   UNL     1       7.384   4.571  14.256  0.00  0.00    +0.000 C 
ATOM     37  F   UNL     1       8.178   5.565  13.760  0.00  0.00    +0.000 F 
ATOM     38  C   UNL     1       5.958   4.808  13.788  0.00  0.00    +0.000 C 
ATOM     39  F   UNL     1       5.251   3.646  13.887  0.00  0.00    +0.000 F 
ATOM     40  C   UNL     1       5.248   5.890  14.599  0.00  0.00    +0.000 C 
ENDBRANCH  32  33
ENDBRANCH   6  32
TORSDOF 7
ENDMDL
