MODEL 1
REMARK VINA RESULT:      -9.7      0.000      0.000
REMARK  Name = 
REMARK  10 active torsions:
REMARK  status: ('A' for Active; 'I' for Inactive)
REMARK    1  A    between atoms: C_1  and  N_2
REMARK    2  A    between atoms: C_6  and  C_7
REMARK    3  A    between atoms: C_7  and  C_10
REMARK    4  A    between atoms: C_10  and  C_11
REMARK    5  A    between atoms: C_10  and  C_13
REMARK    6  A    between atoms: C_17  and  N_18
REMARK    7  A    between atoms: C_23  and  C_24
REMARK    8  A    between atoms: C_24  and  N_25
REMARK    9  A    between atoms: C_28  and  C_29
REMARK   10  A    between atoms: C_33  and  C_34
REMARK                            x       y       z     vdW  Elec       q    Type
REMARK                         _______ _______ _______ _____ _____    ______ ____
ROOT
ATOM      1  N   UNL     1       2.078   7.887  19.327  0.00  0.00    +0.000 N 
ATOM      2  C   UNL     1       1.469   8.188  20.596  0.00  0.00    +0.000 C 
ATOM      3  C   UNL     1       0.729   9.446  20.366  0.00  0.00    +0.000 A 
ATOM      4  C   UNL     1       1.005   9.952  19.100  0.00  0.00    +0.000 A 
ATOM      5  C   UNL     1       0.542  11.221  18.738  0.00  0.00    +0.000 A 
ATOM      6  C   UNL     1      -0.271  11.938  19.658  0.00  0.00    +0.000 A 
ATOM      7  C   UNL     1      -0.635  11.313  20.874  0.00  0.00    +0.000 A 
ATOM      8  C   UNL     1      -0.089  10.097  21.278  0.00  0.00    +0.000 A 
ATOM      9  C   UNL     1       1.834   8.915  18.393  0.00  0.00    +0.000 C 
ATOM     10  O   UNL     1       2.197   9.015  17.237  0.00  0.00    +0.000 OA
ENDROOT
BRANCH   1  15
ATOM     11  C   UNL     1       4.508   5.378  17.923  0.00  0.00    +0.000 A 
ATOM     12  C   UNL     1       4.320   4.309  18.804  0.00  0.00    +0.000 A 
ATOM     13  C   UNL     1       3.393   4.414  19.857  0.00  0.00    +0.000 A 
ATOM     14  C   UNL     1       2.606   5.564  20.031  0.00  0.00    +0.000 A 
ATOM     15  C   UNL     1       2.803   6.666  19.206  0.00  0.00    +0.000 A 
ATOM     16  C   UNL     1       3.786   6.556  18.191  0.00  0.00    +0.000 A 
BRANCH  11  17
ATOM     17  C   UNL     1       5.250   5.268  16.569  0.00  0.00    +0.000 C 
ATOM     18  C   UNL     1       4.643   4.042  15.863  0.00  0.00    +0.000 C 
ATOM     19  F   UNL     1       4.928   6.346  15.756  0.00  0.00    +0.000 F 
BRANCH  17  20
ATOM     20  C   UNL     1       6.807   5.223  16.618  0.00  0.00    +0.000 C 
ATOM     21  F   UNL     1       7.311   5.142  15.350  0.00  0.00    +0.000 F 
ATOM     22  F   UNL     1       7.211   4.075  17.237  0.00  0.00    +0.000 F 
BRANCH  20  28
ATOM     23  C   UNL     1       8.035   5.498  19.587  0.00  0.00    +0.000 C 
ATOM     24  N   UNL     1       7.873   6.524  18.592  0.00  0.00    +0.000 N 
ATOM     25  C   UNL     1       8.198   7.835  18.787  0.00  0.00    +0.000 A 
ATOM     26  N   UNL     1       8.000   8.508  17.682  0.00  0.00    +0.000 NA
ATOM     27  N   UNL     1       7.515   7.631  16.749  0.00  0.00    +0.000 NA
ATOM     28  C   UNL     1       7.404   6.434  17.302  0.00  0.00    +0.000 A 
ENDBRANCH  20  28
ENDBRANCH  17  20
ENDBRANCH  11  17
ENDBRANCH   1  15
BRANCH   8  29
ATOM     29  C   UNL     1      -0.362   9.562  22.657  0.00  0.00    +0.000 C 
ATOM     30  F   UNL     1       0.754   9.438  23.430  0.00  0.00    +0.000 F 
ATOM     31  F   UNL     1      -1.202  10.367  23.364  0.00  0.00    +0.000 F 
ATOM     32  F   UNL     1      -0.936   8.331  22.637  0.00  0.00    +0.000 F 
ENDBRANCH   8  29
BRANCH   6  33
ATOM     33  C   UNL     1      -0.791  13.357  19.385  0.00  0.00    +0.000 C 
BRANCH  33  34
ATOM     34  N   UNL     1       0.294  14.313  19.047  0.00  0.00    +0.000 NA
ATOM     35  C   UNL     1      -0.159  15.694  18.844  0.00  0.00    +0.000 C 
ATOM     36  C   UNL     1       0.301  16.526  20.035  0.00  0.00    +0.000 C 
ATOM     37  C   UNL     1       1.136  15.596  20.903  0.00  0.00    +0.000 C 
ATOM     38  C   UNL     1       1.388  14.379  20.022  0.00  0.00    +0.000 C 
BRANCH  37  39
ATOM     39  C   UNL     1       0.434  15.214  22.132  0.00  0.00    +0.000 C 
ATOM     40  N   UNL     1      -0.130  14.903  23.099  0.00  0.00    +0.000 NA
ENDBRANCH  37  39
ENDBRANCH  33  34
ENDBRANCH   6  33
TORSDOF 8
ENDMDL
MODEL 2
REMARK VINA RESULT:      -9.5      0.673      1.253
REMARK  Name = 
REMARK  10 active torsions:
REMARK  status: ('A' for Active; 'I' for Inactive)
REMARK    1  A    between atoms: C_1  and  N_2
REMARK    2  A    between atoms: C_6  and  C_7
REMARK    3  A    between atoms: C_7  and  C_10
REMARK    4  A    between atoms: C_10  and  C_11
REMARK    5  A    between atoms: C_10  and  C_13
REMARK    6  A    between atoms: C_17  and  N_18
REMARK    7  A    between atoms: C_23  and  C_24
REMARK    8  A    between atoms: C_24  and  N_25
REMARK    9  A    between atoms: C_28  and  C_29
REMARK   10  A    between atoms: C_33  and  C_34
REMARK                            x       y       z     vdW  Elec       q    Type
REMARK                         _______ _______ _______ _____ _____    ______ ____
ROOT
ATOM      1  N   UNL     1       2.076   7.901  19.201  0.00  0.00    +0.000 N 
ATOM      2  C   UNL     1       1.488   8.186  20.485  0.00  0.00    +0.000 C 
ATOM      3  C   UNL     1       0.794   9.478  20.299  0.00  0.00    +0.000 A 
ATOM      4  C   UNL     1       1.079  10.011  19.047  0.00  0.00    +0.000 A 
ATOM      5  C   UNL     1       0.661  11.307  18.728  0.00  0.00    +0.000 A 
ATOM      6  C   UNL     1      -0.117  12.025  19.677  0.00  0.00    +0.000 A 
ATOM      7  C   UNL     1      -0.495  11.377  20.877  0.00  0.00    +0.000 A 
ATOM      8  C   UNL     1       0.009  10.129  21.239  0.00  0.00    +0.000 A 
ATOM      9  C   UNL     1       1.863   8.967  18.301  0.00  0.00    +0.000 C 
ATOM     10  O   UNL     1       2.220   9.088  17.146  0.00  0.00    +0.000 OA
ENDROOT
BRANCH   1  15
ATOM     11  C   UNL     1       4.391   5.345  17.693  0.00  0.00    +0.000 A 
ATOM     12  C   UNL     1       4.177   4.260  18.548  0.00  0.00    +0.000 A 
ATOM     13  C   UNL     1       3.269   4.369  19.617  0.00  0.00    +0.000 A 
ATOM     14  C   UNL     1       2.527   5.542  19.834  0.00  0.00    +0.000 A 
ATOM     15  C   UNL     1       2.753   6.659  19.037  0.00  0.00    +0.000 A 
ATOM     16  C   UNL     1       3.717   6.541  18.004  0.00  0.00    +0.000 A 
BRANCH  11  17
ATOM     17  C   UNL     1       5.110   5.246  16.326  0.00  0.00    +0.000 C 
ATOM     18  C   UNL     1       4.362   4.151  15.544  0.00  0.00    +0.000 C 
ATOM     19  F   UNL     1       4.911   6.408  15.594  0.00  0.00    +0.000 F 
BRANCH  17  20
ATOM     20  C   UNL     1       6.652   5.018  16.353  0.00  0.00    +0.000 C 
ATOM     21  F   UNL     1       7.246   5.735  15.352  0.00  0.00    +0.000 F 
ATOM     22  F   UNL     1       6.924   3.711  16.067  0.00  0.00    +0.000 F 
BRANCH  20  28
ATOM     23  C   UNL     1       7.400   7.952  17.464  0.00  0.00    +0.000 C 
ATOM     24  N   UNL     1       7.628   6.677  18.090  0.00  0.00    +0.000 N 
ATOM     25  C   UNL     1       8.260   6.518  19.290  0.00  0.00    +0.000 A 
ATOM     26  N   UNL     1       8.256   5.253  19.626  0.00  0.00    +0.000 NA
ATOM     27  N   UNL     1       7.630   4.563  18.623  0.00  0.00    +0.000 NA
ATOM     28  C   UNL     1       7.276   5.415  17.672  0.00  0.00    +0.000 A 
ENDBRANCH  20  28
ENDBRANCH  17  20
ENDBRANCH  11  17
ENDBRANCH   1  15
BRANCH   8  29
ATOM     29  C   UNL     1      -0.274   9.563  22.603  0.00  0.00    +0.000 C 
ATOM     30  F   UNL     1      -0.905   8.356  22.577  0.00  0.00    +0.000 F 
ATOM     31  F   UNL     1       0.864   9.360  23.322  0.00  0.00    +0.000 F 
ATOM     32  F   UNL     1      -1.063  10.377  23.354  0.00  0.00    +0.000 F 
ENDBRANCH   8  29
BRANCH   6  33
ATOM     33  C   UNL     1      -0.586  13.470  19.452  0.00  0.00    +0.000 C 
BRANCH  33  34
ATOM     34  N   UNL     1       0.530  14.450  19.484  0.00  0.00    +0.000 NA
ATOM     35  C   UNL     1       0.107  15.852  19.389  0.00  0.00    +0.000 C 
ATOM     36  C   UNL     1       0.298  16.501  20.754  0.00  0.00    +0.000 C 
ATOM     37  C   UNL     1       0.951  15.445  21.636  0.00  0.00    +0.000 C 
ATOM     38  C   UNL     1       1.399  14.362  20.663  0.00  0.00    +0.000 C 
BRANCH  37  39
ATOM     39  C   UNL     1       0.017  14.903  22.627  0.00  0.00    +0.000 C 
ATOM     40  N   UNL     1      -0.721  14.462  23.409  0.00  0.00    +0.000 NA
ENDBRANCH  37  39
ENDBRANCH  33  34
ENDBRANCH   6  33
TORSDOF 8
ENDMDL
MODEL 3
REMARK VINA RESULT:      -9.5      1.329      2.333
REMARK  Name = 
REMARK  10 active torsions:
REMARK  status: ('A' for Active; 'I' for Inactive)
REMARK    1  A    between atoms: C_1  and  N_2
REMARK    2  A    between atoms: C_6  and  C_7
REMARK    3  A    between atoms: C_7  and  C_10
REMARK    4  A    between atoms: C_10  and  C_11
REMARK    5  A    between atoms: C_10  and  C_13
REMARK    6  A    between atoms: C_17  and  N_18
REMARK    7  A    between atoms: C_23  and  C_24
REMARK    8  A    between atoms: C_24  and  N_25
REMARK    9  A    between atoms: C_28  and  C_29
REMARK   10  A    between atoms: C_33  and  C_34
REMARK                            x       y       z     vdW  Elec       q    Type
REMARK                         _______ _______ _______ _____ _____    ______ ____
ROOT
ATOM      1  N   UNL     1       2.249   7.528  19.451  0.00  0.00    +0.000 N 
ATOM      2  C   UNL     1       1.594   7.938  20.665  0.00  0.00    +0.000 C 
ATOM      3  C   UNL     1       0.856   9.165  20.295  0.00  0.00    +0.000 A 
ATOM      4  C   UNL     1       1.175   9.555  18.999  0.00  0.00    +0.000 A 
ATOM      5  C   UNL     1       0.718  10.782  18.507  0.00  0.00    +0.000 A 
ATOM      6  C   UNL     1      -0.130  11.573  19.329  0.00  0.00    +0.000 A 
ATOM      7  C   UNL     1      -0.535  11.058  20.584  0.00  0.00    +0.000 A 
ATOM      8  C   UNL     1       0.003   9.888  21.116  0.00  0.00    +0.000 A 
ATOM      9  C   UNL     1       2.033   8.466  18.419  0.00  0.00    +0.000 C 
ATOM     10  O   UNL     1       2.436   8.462  17.272  0.00  0.00    +0.000 OA
ENDROOT
BRANCH   1  15
ATOM     11  C   UNL     1       5.181   5.197  19.075  0.00  0.00    +0.000 A 
ATOM     12  C   UNL     1       4.594   3.978  19.428  0.00  0.00    +0.000 A 
ATOM     13  C   UNL     1       3.235   3.924  19.786  0.00  0.00    +0.000 A 
ATOM     14  C   UNL     1       2.422   5.070  19.762  0.00  0.00    +0.000 A 
ATOM     15  C   UNL     1       2.984   6.307  19.467  0.00  0.00    +0.000 A 
ATOM     16  C   UNL     1       4.369   6.343  19.168  0.00  0.00    +0.000 A 
BRANCH  11  17
ATOM     17  C   UNL     1       6.554   5.330  18.373  0.00  0.00    +0.000 C 
ATOM     18  C   UNL     1       7.539   5.770  19.471  0.00  0.00    +0.000 C 
ATOM     19  F   UNL     1       7.006   4.084  17.963  0.00  0.00    +0.000 F 
BRANCH  17  20
ATOM     20  C   UNL     1       6.616   6.242  17.110  0.00  0.00    +0.000 C 
ATOM     21  F   UNL     1       7.757   6.994  17.134  0.00  0.00    +0.000 F 
ATOM     22  F   UNL     1       5.592   7.144  17.148  0.00  0.00    +0.000 F 
BRANCH  20  28
ATOM     23  C   UNL     1       4.313   4.299  15.960  0.00  0.00    +0.000 C 
ATOM     24  N   UNL     1       5.599   4.593  15.386  0.00  0.00    +0.000 N 
ATOM     25  C   UNL     1       6.067   4.032  14.232  0.00  0.00    +0.000 A 
ATOM     26  N   UNL     1       7.233   4.545  13.934  0.00  0.00    +0.000 NA
ATOM     27  N   UNL     1       7.551   5.443  14.918  0.00  0.00    +0.000 NA
ATOM     28  C   UNL     1       6.581   5.453  15.819  0.00  0.00    +0.000 A 
ENDBRANCH  20  28
ENDBRANCH  17  20
ENDBRANCH  11  17
ENDBRANCH   1  15
BRANCH   8  29
ATOM     29  C   UNL     1      -0.316   9.480  22.527  0.00  0.00    +0.000 C 
ATOM     30  F   UNL     1      -1.140  10.349  23.179  0.00  0.00    +0.000 F 
ATOM     31  F   UNL     1      -0.946   8.275  22.584  0.00  0.00    +0.000 F 
ATOM     32  F   UNL     1       0.794   9.370  23.304  0.00  0.00    +0.000 F 
ENDBRANCH   8  29
BRANCH   6  33
ATOM     33  C   UNL     1      -0.648  12.957  18.909  0.00  0.00    +0.000 C 
BRANCH  33  34
ATOM     34  N   UNL     1       0.439  13.960  18.768  0.00  0.00    +0.000 NA
ATOM     35  C   UNL     1      -0.022  15.353  18.768  0.00  0.00    +0.000 C 
ATOM     36  C   UNL     1       0.386  15.989  20.091  0.00  0.00    +0.000 C 
ATOM     37  C   UNL     1       1.199  14.938  20.833  0.00  0.00    +0.000 C 
ATOM     38  C   UNL     1       1.496  13.876  19.782  0.00  0.00    +0.000 C 
BRANCH  37  39
ATOM     39  C   UNL     1       0.456  14.363  21.959  0.00  0.00    +0.000 C 
ATOM     40  N   UNL     1      -0.135  13.898  22.845  0.00  0.00    +0.000 NA
ENDBRANCH  37  39
ENDBRANCH  33  34
ENDBRANCH   6  33
TORSDOF 8
ENDMDL
MODEL 4
REMARK VINA RESULT:      -9.4      0.789      1.501
REMARK  Name = 
REMARK  10 active torsions:
REMARK  status: ('A' for Active; 'I' for Inactive)
REMARK    1  A    between atoms: C_1  and  N_2
REMARK    2  A    between atoms: C_6  and  C_7
REMARK    3  A    between atoms: C_7  and  C_10
REMARK    4  A    between atoms: C_10  and  C_11
REMARK    5  A    between atoms: C_10  and  C_13
REMARK    6  A    between atoms: C_17  and  N_18
REMARK    7  A    between atoms: C_23  and  C_24
REMARK    8  A    between atoms: C_24  and  N_25
REMARK    9  A    between atoms: C_28  and  C_29
REMARK   10  A    between atoms: C_33  and  C_34
REMARK                            x       y       z     vdW  Elec       q    Type
REMARK                         _______ _______ _______ _____ _____    ______ ____
ROOT
ATOM      1  N   UNL     1       2.020   7.873  19.445  0.00  0.00    +0.000 N 
ATOM      2  C   UNL     1       1.404   8.197  20.705  0.00  0.00    +0.000 C 
ATOM      3  C   UNL     1       0.731   9.492  20.470  0.00  0.00    +0.000 A 
ATOM      4  C   UNL     1       1.055   9.990  19.212  0.00  0.00    +0.000 A 
ATOM      5  C   UNL     1       0.661  11.282  18.850  0.00  0.00    +0.000 A 
ATOM      6  C   UNL     1      -0.132  12.034  19.761  0.00  0.00    +0.000 A 
ATOM      7  C   UNL     1      -0.548  11.421  20.967  0.00  0.00    +0.000 A 
ATOM      8  C   UNL     1      -0.069  10.177  21.372  0.00  0.00    +0.000 A 
ATOM      9  C   UNL     1       1.843   8.918  18.513  0.00  0.00    +0.000 C 
ATOM     10  O   UNL     1       2.231   9.006  17.364  0.00  0.00    +0.000 OA
ENDROOT
BRANCH   1  15
ATOM     11  C   UNL     1       4.357   5.260  18.075  0.00  0.00    +0.000 A 
ATOM     12  C   UNL     1       4.093   4.193  18.939  0.00  0.00    +0.000 A 
ATOM     13  C   UNL     1       3.145   4.333  19.968  0.00  0.00    +0.000 A 
ATOM     14  C   UNL     1       2.412   5.520  20.135  0.00  0.00    +0.000 A 
ATOM     15  C   UNL     1       2.686   6.619  19.329  0.00  0.00    +0.000 A 
ATOM     16  C   UNL     1       3.689   6.470  18.338  0.00  0.00    +0.000 A 
BRANCH  11  17
ATOM     17  C   UNL     1       5.129   5.127  16.740  0.00  0.00    +0.000 C 
ATOM     18  C   UNL     1       4.504   3.918  16.020  0.00  0.00    +0.000 C 
ATOM     19  F   UNL     1       4.859   6.213  15.919  0.00  0.00    +0.000 F 
BRANCH  17  20
ATOM     20  C   UNL     1       6.683   5.037  16.828  0.00  0.00    +0.000 C 
ATOM     21  F   UNL     1       7.203   4.751  15.596  0.00  0.00    +0.000 F 
ATOM     22  F   UNL     1       7.034   3.980  17.618  0.00  0.00    +0.000 F 
BRANCH  20  28
ATOM     23  C   UNL     1       8.046   5.647  19.685  0.00  0.00    +0.000 C 
ATOM     24  N   UNL     1       7.841   6.551  18.585  0.00  0.00    +0.000 N 
ATOM     25  C   UNL     1       8.178   7.874  18.611  0.00  0.00    +0.000 A 
ATOM     26  N   UNL     1       7.931   8.414  17.445  0.00  0.00    +0.000 NA
ATOM     27  N   UNL     1       7.402   7.438  16.643  0.00  0.00    +0.000 NA
ATOM     28  C   UNL     1       7.313   6.314  17.338  0.00  0.00    +0.000 A 
ENDBRANCH  20  28
ENDBRANCH  17  20
ENDBRANCH  11  17
ENDBRANCH   1  15
BRANCH   8  29
ATOM     29  C   UNL     1      -0.393   9.650  22.743  0.00  0.00    +0.000 C 
ATOM     30  F   UNL     1      -1.237  10.449  23.454  0.00  0.00    +0.000 F 
ATOM     31  F   UNL     1      -1.001   8.433  22.696  0.00  0.00    +0.000 F 
ATOM     32  F   UNL     1       0.713   9.497  23.519  0.00  0.00    +0.000 F 
ENDBRANCH   8  29
BRANCH   6  33
ATOM     33  C   UNL     1      -0.577  13.478  19.487  0.00  0.00    +0.000 C 
BRANCH  33  34
ATOM     34  N   UNL     1      -0.604  14.314  20.715  0.00  0.00    +0.000 NA
ATOM     35  C   UNL     1       0.709  14.821  21.130  0.00  0.00    +0.000 C 
ATOM     36  C   UNL     1       0.754  16.317  20.841  0.00  0.00    +0.000 C 
ATOM     37  C   UNL     1      -0.630  16.691  20.330  0.00  0.00    +0.000 C 
ATOM     38  C   UNL     1      -1.494  15.479  20.653  0.00  0.00    +0.000 C 
BRANCH  37  39
ATOM     39  C   UNL     1      -0.628  16.962  18.890  0.00  0.00    +0.000 C 
ATOM     40  N   UNL     1      -0.617  17.171  17.746  0.00  0.00    +0.000 NA
ENDBRANCH  37  39
ENDBRANCH  33  34
ENDBRANCH   6  33
TORSDOF 8
ENDMDL
MODEL 5
REMARK VINA RESULT:      -9.3      1.050      1.725
REMARK  Name = 
REMARK  10 active torsions:
REMARK  status: ('A' for Active; 'I' for Inactive)
REMARK    1  A    between atoms: C_1  and  N_2
REMARK    2  A    between atoms: C_6  and  C_7
REMARK    3  A    between atoms: C_7  and  C_10
REMARK    4  A    between atoms: C_10  and  C_11
REMARK    5  A    between atoms: C_10  and  C_13
REMARK    6  A    between atoms: C_17  and  N_18
REMARK    7  A    between atoms: C_23  and  C_24
REMARK    8  A    between atoms: C_24  and  N_25
REMARK    9  A    between atoms: C_28  and  C_29
REMARK   10  A    between atoms: C_33  and  C_34
REMARK                            x       y       z     vdW  Elec       q    Type
REMARK                         _______ _______ _______ _____ _____    ______ ____
ROOT
ATOM      1  N   UNL     1       2.151   7.860  18.968  0.00  0.00    +0.000 N 
ATOM      2  C   UNL     1       1.536   8.065  20.253  0.00  0.00    +0.000 C 
ATOM      3  C   UNL     1       0.972   9.430  20.185  0.00  0.00    +0.000 A 
ATOM      4  C   UNL     1       1.360  10.060  19.008  0.00  0.00    +0.000 A 
ATOM      5  C   UNL     1       1.077  11.417  18.816  0.00  0.00    +0.000 A 
ATOM      6  C   UNL     1       0.327  12.104  19.810  0.00  0.00    +0.000 A 
ATOM      7  C   UNL     1      -0.160  11.374  20.920  0.00  0.00    +0.000 A 
ATOM      8  C   UNL     1       0.210  10.053  21.162  0.00  0.00    +0.000 A 
ATOM      9  C   UNL     1       2.075   9.029  18.181  0.00  0.00    +0.000 C 
ATOM     10  O   UNL     1       2.492   9.235  17.058  0.00  0.00    +0.000 OA
ENDROOT
BRANCH   1  15
ATOM     11  C   UNL     1       4.366   5.284  17.348  0.00  0.00    +0.000 A 
ATOM     12  C   UNL     1       3.946   4.125  18.007  0.00  0.00    +0.000 A 
ATOM     13  C   UNL     1       2.933   4.192  18.980  0.00  0.00    +0.000 A 
ATOM     14  C   UNL     1       2.289   5.401  19.290  0.00  0.00    +0.000 A 
ATOM     15  C   UNL     1       2.717   6.582  18.693  0.00  0.00    +0.000 A 
ATOM     16  C   UNL     1       3.781   6.496  17.760  0.00  0.00    +0.000 A 
BRANCH  11  17
ATOM     17  C   UNL     1       5.229   5.290  16.063  0.00  0.00    +0.000 C 
ATOM     18  C   UNL     1       4.541   4.306  15.099  0.00  0.00    +0.000 C 
ATOM     19  F   UNL     1       5.148   6.525  15.435  0.00  0.00    +0.000 F 
BRANCH  17  20
ATOM     20  C   UNL     1       6.751   4.998  16.233  0.00  0.00    +0.000 C 
ATOM     21  F   UNL     1       7.464   5.681  15.288  0.00  0.00    +0.000 F 
ATOM     22  F   UNL     1       6.993   3.678  15.979  0.00  0.00    +0.000 F 
BRANCH  20  28
ATOM     23  C   UNL     1       7.412   7.918  17.430  0.00  0.00    +0.000 C 
ATOM     24  N   UNL     1       7.587   6.637  18.060  0.00  0.00    +0.000 N 
ATOM     25  C   UNL     1       8.121   6.464  19.305  0.00  0.00    +0.000 A 
ATOM     26  N   UNL     1       8.088   5.195  19.627  0.00  0.00    +0.000 NA
ATOM     27  N   UNL     1       7.543   4.517  18.569  0.00  0.00    +0.000 NA
ATOM     28  C   UNL     1       7.269   5.379  17.602  0.00  0.00    +0.000 A 
ENDBRANCH  20  28
ENDBRANCH  17  20
ENDBRANCH  11  17
ENDBRANCH   1  15
BRANCH   8  29
ATOM     29  C   UNL     1      -0.182   9.378  22.448  0.00  0.00    +0.000 C 
ATOM     30  F   UNL     1      -1.024  10.119  23.223  0.00  0.00    +0.000 F 
ATOM     31  F   UNL     1      -0.831   8.201  22.234  0.00  0.00    +0.000 F 
ATOM     32  F   UNL     1       0.888   9.090  23.235  0.00  0.00    +0.000 F 
ENDBRANCH   8  29
BRANCH   6  33
ATOM     33  C   UNL     1       0.003  13.603  19.726  0.00  0.00    +0.000 C 
BRANCH  33  34
ATOM     34  N   UNL     1       1.181  14.463  20.009  0.00  0.00    +0.000 NA
ATOM     35  C   UNL     1       1.928  14.877  18.816  0.00  0.00    +0.000 C 
ATOM     36  C   UNL     1       1.662  16.358  18.578  0.00  0.00    +0.000 C 
ATOM     37  C   UNL     1       0.804  16.827  19.745  0.00  0.00    +0.000 C 
ATOM     38  C   UNL     1       0.887  15.691  20.756  0.00  0.00    +0.000 C 
BRANCH  37  39
ATOM     39  C   UNL     1      -0.585  17.068  19.343  0.00  0.00    +0.000 C 
ATOM     40  N   UNL     1      -1.689  17.260  19.036  0.00  0.00    +0.000 NA
ENDBRANCH  37  39
ENDBRANCH  33  34
ENDBRANCH   6  33
TORSDOF 8
ENDMDL
MODEL 6
REMARK VINA RESULT:      -9.3      1.608      2.313
REMARK  Name = 
REMARK  10 active torsions:
REMARK  status: ('A' for Active; 'I' for Inactive)
REMARK    1  A    between atoms: C_1  and  N_2
REMARK    2  A    between atoms: C_6  and  C_7
REMARK    3  A    between atoms: C_7  and  C_10
REMARK    4  A    between atoms: C_10  and  C_11
REMARK    5  A    between atoms: C_10  and  C_13
REMARK    6  A    between atoms: C_17  and  N_18
REMARK    7  A    between atoms: C_23  and  C_24
REMARK    8  A    between atoms: C_24  and  N_25
REMARK    9  A    between atoms: C_28  and  C_29
REMARK   10  A    between atoms: C_33  and  C_34
REMARK                            x       y       z     vdW  Elec       q    Type
REMARK                         _______ _______ _______ _____ _____    ______ ____
ROOT
ATOM      1  N   UNL     1       1.967   8.066  19.165  0.00  0.00    +0.000 N 
ATOM      2  C   UNL     1       1.402   8.279  20.472  0.00  0.00    +0.000 C 
ATOM      3  C   UNL     1       0.634   9.536  20.345  0.00  0.00    +0.000 A 
ATOM      4  C   UNL     1       0.854  10.121  19.103  0.00  0.00    +0.000 A 
ATOM      5  C   UNL     1       0.358  11.401  18.836  0.00  0.00    +0.000 A 
ATOM      6  C   UNL     1      -0.431  12.048  19.827  0.00  0.00    +0.000 A 
ATOM      7  C   UNL     1      -0.739  11.344  21.016  0.00  0.00    +0.000 A 
ATOM      8  C   UNL     1      -0.159  10.116  21.325  0.00  0.00    +0.000 A 
ATOM      9  C   UNL     1       1.671   9.144  18.305  0.00  0.00    +0.000 C 
ATOM     10  O   UNL     1       1.988   9.319  17.144  0.00  0.00    +0.000 OA
ENDROOT
BRANCH   1  15
ATOM     11  C   UNL     1       4.627   5.796  17.773  0.00  0.00    +0.000 A 
ATOM     12  C   UNL     1       4.279   4.583  18.376  0.00  0.00    +0.000 A 
ATOM     13  C   UNL     1       3.169   4.513  19.236  0.00  0.00    +0.000 A 
ATOM     14  C   UNL     1       2.359   5.634  19.483  0.00  0.00    +0.000 A 
ATOM     15  C   UNL     1       2.706   6.867  18.944  0.00  0.00    +0.000 A 
ATOM     16  C   UNL     1       3.864   6.923  18.129  0.00  0.00    +0.000 A 
BRANCH  11  17
ATOM     17  C   UNL     1       5.614   5.926  16.588  0.00  0.00    +0.000 C 
ATOM     18  C   UNL     1       4.962   6.927  15.616  0.00  0.00    +0.000 C 
ATOM     19  F   UNL     1       6.786   6.541  17.004  0.00  0.00    +0.000 F 
BRANCH  17  20
ATOM     20  C   UNL     1       6.053   4.605  15.885  0.00  0.00    +0.000 C 
ATOM     21  F   UNL     1       4.957   3.836  15.613  0.00  0.00    +0.000 F 
ATOM     22  F   UNL     1       6.808   3.861  16.745  0.00  0.00    +0.000 F 
BRANCH  20  28
ATOM     23  C   UNL     1       5.478   3.457  12.927  0.00  0.00    +0.000 C 
ATOM     24  N   UNL     1       6.558   4.303  13.360  0.00  0.00    +0.000 N 
ATOM     25  C   UNL     1       7.566   4.732  12.545  0.00  0.00    +0.000 A 
ATOM     26  N   UNL     1       8.357   5.537  13.208  0.00  0.00    +0.000 NA
ATOM     27  N   UNL     1       7.876   5.625  14.487  0.00  0.00    +0.000 NA
ATOM     28  C   UNL     1       6.805   4.853  14.596  0.00  0.00    +0.000 A 
ENDBRANCH  20  28
ENDBRANCH  17  20
ENDBRANCH  11  17
ENDBRANCH   1  15
BRANCH   8  29
ATOM     29  C   UNL     1      -0.371   9.495  22.679  0.00  0.00    +0.000 C 
ATOM     30  F   UNL     1       0.775   9.345  23.401  0.00  0.00    +0.000 F 
ATOM     31  F   UNL     1      -1.197  10.240  23.463  0.00  0.00    +0.000 F 
ATOM     32  F   UNL     1      -0.925   8.256  22.604  0.00  0.00    +0.000 F 
ENDBRANCH   8  29
BRANCH   6  33
ATOM     33  C   UNL     1      -0.983  13.471  19.660  0.00  0.00    +0.000 C 
BRANCH  33  34
ATOM     34  N   UNL     1       0.081  14.475  19.403  0.00  0.00    +0.000 NA
ATOM     35  C   UNL     1      -0.411  15.848  19.243  0.00  0.00    +0.000 C 
ATOM     36  C   UNL     1      -0.020  16.641  20.484  0.00  0.00    +0.000 C 
ATOM     37  C   UNL     1       0.815  15.701  21.341  0.00  0.00    +0.000 C 
ATOM     38  C   UNL     1       1.138  14.533  20.419  0.00  0.00    +0.000 C 
BRANCH  37  39
ATOM     39  C   UNL     1       0.083  15.243  22.526  0.00  0.00    +0.000 C 
ATOM     40  N   UNL     1      -0.503  14.873  23.459  0.00  0.00    +0.000 NA
ENDBRANCH  37  39
ENDBRANCH  33  34
ENDBRANCH   6  33
TORSDOF 8
ENDMDL
MODEL 7
REMARK VINA RESULT:      -9.2      0.745      1.007
REMARK  Name = 
REMARK  10 active torsions:
REMARK  status: ('A' for Active; 'I' for Inactive)
REMARK    1  A    between atoms: C_1  and  N_2
REMARK    2  A    between atoms: C_6  and  C_7
REMARK    3  A    between atoms: C_7  and  C_10
REMARK    4  A    between atoms: C_10  and  C_11
REMARK    5  A    between atoms: C_10  and  C_13
REMARK    6  A    between atoms: C_17  and  N_18
REMARK    7  A    between atoms: C_23  and  C_24
REMARK    8  A    between atoms: C_24  and  N_25
REMARK    9  A    between atoms: C_28  and  C_29
REMARK   10  A    between atoms: C_33  and  C_34
REMARK                            x       y       z     vdW  Elec       q    Type
REMARK                         _______ _______ _______ _____ _____    ______ ____
ROOT
ATOM      1  N   UNL     1       1.975   7.811  19.465  0.00  0.00    +0.000 N 
ATOM      2  C   UNL     1       1.394   8.157  20.736  0.00  0.00    +0.000 C 
ATOM      3  C   UNL     1       0.700   9.440  20.492  0.00  0.00    +0.000 A 
ATOM      4  C   UNL     1       0.981   9.912  19.214  0.00  0.00    +0.000 A 
ATOM      5  C   UNL     1       0.563  11.192  18.835  0.00  0.00    +0.000 A 
ATOM      6  C   UNL     1      -0.210  11.957  19.752  0.00  0.00    +0.000 A 
ATOM      7  C   UNL     1      -0.583  11.367  20.983  0.00  0.00    +0.000 A 
ATOM      8  C   UNL     1      -0.080  10.137  21.402  0.00  0.00    +0.000 A 
ATOM      9  C   UNL     1       1.759   8.832  18.516  0.00  0.00    +0.000 C 
ATOM     10  O   UNL     1       2.111   8.897  17.355  0.00  0.00    +0.000 OA
ENDROOT
BRANCH   1  15
ATOM     11  C   UNL     1       4.338   5.209  18.119  0.00  0.00    +0.000 A 
ATOM     12  C   UNL     1       4.076   4.143  18.984  0.00  0.00    +0.000 A 
ATOM     13  C   UNL     1       3.120   4.280  20.007  0.00  0.00    +0.000 A 
ATOM     14  C   UNL     1       2.378   5.462  20.166  0.00  0.00    +0.000 A 
ATOM     15  C   UNL     1       2.650   6.560  19.358  0.00  0.00    +0.000 A 
ATOM     16  C   UNL     1       3.660   6.415  18.374  0.00  0.00    +0.000 A 
BRANCH  11  17
ATOM     17  C   UNL     1       5.119   5.077  16.789  0.00  0.00    +0.000 C 
ATOM     18  C   UNL     1       4.477   3.889  16.049  0.00  0.00    +0.000 C 
ATOM     19  F   UNL     1       4.877   6.177  15.979  0.00  0.00    +0.000 F 
BRANCH  17  20
ATOM     20  C   UNL     1       6.670   4.955  16.889  0.00  0.00    +0.000 C 
ATOM     21  F   UNL     1       7.190   4.621  15.670  0.00  0.00    +0.000 F 
ATOM     22  F   UNL     1       6.993   3.915  17.713  0.00  0.00    +0.000 F 
BRANCH  20  28
ATOM     23  C   UNL     1       7.891   5.674  19.786  0.00  0.00    +0.000 C 
ATOM     24  N   UNL     1       7.790   6.520  18.627  0.00  0.00    +0.000 N 
ATOM     25  C   UNL     1       8.183   7.827  18.599  0.00  0.00    +0.000 A 
ATOM     26  N   UNL     1       8.028   8.309  17.392  0.00  0.00    +0.000 NA
ATOM     27  N   UNL     1       7.504   7.310  16.615  0.00  0.00    +0.000 NA
ATOM     28  C   UNL     1       7.325   6.233  17.364  0.00  0.00    +0.000 A 
ENDBRANCH  20  28
ENDBRANCH  17  20
ENDBRANCH  11  17
ENDBRANCH   1  15
BRANCH   8  29
ATOM     29  C   UNL     1      -0.357   9.638  22.794  0.00  0.00    +0.000 C 
ATOM     30  F   UNL     1      -0.996   8.435  22.829  0.00  0.00    +0.000 F 
ATOM     31  F   UNL     1       0.784   9.462  23.514  0.00  0.00    +0.000 F 
ATOM     32  F   UNL     1      -1.136  10.491  23.510  0.00  0.00    +0.000 F 
ENDBRANCH   8  29
BRANCH   6  33
ATOM     33  C   UNL     1      -0.678  13.390  19.460  0.00  0.00    +0.000 C 
BRANCH  33  34
ATOM     34  N   UNL     1       0.397  14.397  19.652  0.00  0.00    +0.000 NA
ATOM     35  C   UNL     1       0.373  15.498  18.682  0.00  0.00    +0.000 C 
ATOM     36  C   UNL     1      -0.101  16.755  19.401  0.00  0.00    +0.000 C 
ATOM     37  C   UNL     1      -0.259  16.370  20.865  0.00  0.00    +0.000 C 
ATOM     38  C   UNL     1       0.435  15.019  20.980  0.00  0.00    +0.000 C 
BRANCH  37  39
ATOM     39  C   UNL     1      -1.668  16.268  21.257  0.00  0.00    +0.000 C 
ATOM     40  N   UNL     1      -2.788  16.192  21.557  0.00  0.00    +0.000 NA
ENDBRANCH  37  39
ENDBRANCH  33  34
ENDBRANCH   6  33
TORSDOF 8
ENDMDL
MODEL 8
REMARK VINA RESULT:      -9.2      1.137      1.804
REMARK  Name = 
REMARK  10 active torsions:
REMARK  status: ('A' for Active; 'I' for Inactive)
REMARK    1  A    between atoms: C_1  and  N_2
REMARK    2  A    between atoms: C_6  and  C_7
REMARK    3  A    between atoms: C_7  and  C_10
REMARK    4  A    between atoms: C_10  and  C_11
REMARK    5  A    between atoms: C_10  and  C_13
REMARK    6  A    between atoms: C_17  and  N_18
REMARK    7  A    between atoms: C_23  and  C_24
REMARK    8  A    between atoms: C_24  and  N_25
REMARK    9  A    between atoms: C_28  and  C_29
REMARK   10  A    between atoms: C_33  and  C_34
REMARK                            x       y       z     vdW  Elec       q    Type
REMARK                         _______ _______ _______ _____ _____    ______ ____
ROOT
ATOM      1  N   UNL     1       2.133   7.852  18.976  0.00  0.00    +0.000 N 
ATOM      2  C   UNL     1       1.521   8.060  20.263  0.00  0.00    +0.000 C 
ATOM      3  C   UNL     1       0.936   9.415  20.183  0.00  0.00    +0.000 A 
ATOM      4  C   UNL     1       1.308  10.040  18.998  0.00  0.00    +0.000 A 
ATOM      5  C   UNL     1       1.003  11.389  18.794  0.00  0.00    +0.000 A 
ATOM      6  C   UNL     1       0.248  12.075  19.785  0.00  0.00    +0.000 A 
ATOM      7  C   UNL     1      -0.223  11.349  20.904  0.00  0.00    +0.000 A 
ATOM      8  C   UNL     1       0.169  10.036  21.158  0.00  0.00    +0.000 A 
ATOM      9  C   UNL     1       2.036   9.011  18.178  0.00  0.00    +0.000 C 
ATOM     10  O   UNL     1       2.444   9.212  17.051  0.00  0.00    +0.000 OA
ENDROOT
BRANCH   1  15
ATOM     11  C   UNL     1       4.377   5.293  17.369  0.00  0.00    +0.000 A 
ATOM     12  C   UNL     1       3.981   4.135  18.044  0.00  0.00    +0.000 A 
ATOM     13  C   UNL     1       2.973   4.196  19.024  0.00  0.00    +0.000 A 
ATOM     14  C   UNL     1       2.313   5.399  19.325  0.00  0.00    +0.000 A 
ATOM     15  C   UNL     1       2.718   6.580  18.711  0.00  0.00    +0.000 A 
ATOM     16  C   UNL     1       3.776   6.500  17.771  0.00  0.00    +0.000 A 
BRANCH  11  17
ATOM     17  C   UNL     1       5.231   5.298  16.078  0.00  0.00    +0.000 C 
ATOM     18  C   UNL     1       4.531   4.320  15.116  0.00  0.00    +0.000 C 
ATOM     19  F   UNL     1       5.150   6.534  15.454  0.00  0.00    +0.000 F 
BRANCH  17  20
ATOM     20  C   UNL     1       6.753   4.999  16.235  0.00  0.00    +0.000 C 
ATOM     21  F   UNL     1       7.462   5.679  15.285  0.00  0.00    +0.000 F 
ATOM     22  F   UNL     1       6.987   3.678  15.980  0.00  0.00    +0.000 F 
BRANCH  20  28
ATOM     23  C   UNL     1       7.460   7.913  17.421  0.00  0.00    +0.000 C 
ATOM     24  N   UNL     1       7.620   6.631  18.053  0.00  0.00    +0.000 N 
ATOM     25  C   UNL     1       8.158   6.455  19.296  0.00  0.00    +0.000 A 
ATOM     26  N   UNL     1       8.110   5.188  19.622  0.00  0.00    +0.000 NA
ATOM     27  N   UNL     1       7.551   4.514  18.569  0.00  0.00    +0.000 NA
ATOM     28  C   UNL     1       7.282   5.377  17.601  0.00  0.00    +0.000 A 
ENDBRANCH  20  28
ENDBRANCH  17  20
ENDBRANCH  11  17
ENDBRANCH   1  15
BRANCH   8  29
ATOM     29  C   UNL     1      -0.207   9.368  22.452  0.00  0.00    +0.000 C 
ATOM     30  F   UNL     1       0.856   9.105  23.264  0.00  0.00    +0.000 F 
ATOM     31  F   UNL     1      -1.051  10.131  23.199  0.00  0.00    +0.000 F 
ATOM     32  F   UNL     1      -0.832   8.176  22.263  0.00  0.00    +0.000 F 
ENDBRANCH   8  29
BRANCH   6  33
ATOM     33  C   UNL     1      -0.099  13.568  19.687  0.00  0.00    +0.000 C 
BRANCH  33  34
ATOM     34  N   UNL     1      -0.738  14.092  20.921  0.00  0.00    +0.000 NA
ATOM     35  C   UNL     1       0.146  14.911  21.758  0.00  0.00    +0.000 C 
ATOM     36  C   UNL     1      -0.296  16.365  21.637  0.00  0.00    +0.000 C 
ATOM     37  C   UNL     1      -1.547  16.355  20.769  0.00  0.00    +0.000 C 
ATOM     38  C   UNL     1      -1.951  14.888  20.703  0.00  0.00    +0.000 C 
BRANCH  37  39
ATOM     39  C   UNL     1      -1.289  16.887  19.428  0.00  0.00    +0.000 C 
ATOM     40  N   UNL     1      -1.097  17.307  18.362  0.00  0.00    +0.000 NA
ENDBRANCH  37  39
ENDBRANCH  33  34
ENDBRANCH   6  33
TORSDOF 8
ENDMDL
MODEL 9
REMARK VINA RESULT:      -9.1      1.027      1.927
REMARK  Name = 
REMARK  10 active torsions:
REMARK  status: ('A' for Active; 'I' for Inactive)
REMARK    1  A    between atoms: C_1  and  N_2
REMARK    2  A    between atoms: C_6  and  C_7
REMARK    3  A    between atoms: C_7  and  C_10
REMARK    4  A    between atoms: C_10  and  C_11
REMARK    5  A    between atoms: C_10  and  C_13
REMARK    6  A    between atoms: C_17  and  N_18
REMARK    7  A    between atoms: C_23  and  C_24
REMARK    8  A    between atoms: C_24  and  N_25
REMARK    9  A    between atoms: C_28  and  C_29
REMARK   10  A    between atoms: C_33  and  C_34
REMARK                            x       y       z     vdW  Elec       q    Type
REMARK                         _______ _______ _______ _____ _____    ______ ____
ROOT
ATOM      1  N   UNL     1       2.104   7.942  19.055  0.00  0.00    +0.000 N 
ATOM      2  C   UNL     1       1.487   8.174  20.335  0.00  0.00    +0.000 C 
ATOM      3  C   UNL     1       0.864   9.509  20.212  0.00  0.00    +0.000 A 
ATOM      4  C   UNL     1       1.219  10.105  19.007  0.00  0.00    +0.000 A 
ATOM      5  C   UNL     1       0.876  11.439  18.760  0.00  0.00    +0.000 A 
ATOM      6  C   UNL     1       0.102  12.135  19.729  0.00  0.00    +0.000 A 
ATOM      7  C   UNL     1      -0.349  11.432  20.872  0.00  0.00    +0.000 A 
ATOM      8  C   UNL     1       0.080  10.140  21.167  0.00  0.00    +0.000 A 
ATOM      9  C   UNL     1       1.974   9.071  18.220  0.00  0.00    +0.000 C 
ATOM     10  O   UNL     1       2.377   9.247  17.087  0.00  0.00    +0.000 OA
ENDROOT
BRANCH   1  15
ATOM     11  C   UNL     1       4.388   5.386  17.500  0.00  0.00    +0.000 A 
ATOM     12  C   UNL     1       4.050   4.248  18.238  0.00  0.00    +0.000 A 
ATOM     13  C   UNL     1       3.069   4.322  19.244  0.00  0.00    +0.000 A 
ATOM     14  C   UNL     1       2.377   5.515  19.509  0.00  0.00    +0.000 A 
ATOM     15  C   UNL     1       2.724   6.678  18.831  0.00  0.00    +0.000 A 
ATOM     16  C   UNL     1       3.758   6.590  17.865  0.00  0.00    +0.000 A 
BRANCH  11  17
ATOM     17  C   UNL     1       5.204   5.359  16.185  0.00  0.00    +0.000 C 
ATOM     18  C   UNL     1       4.470   4.368  15.263  0.00  0.00    +0.000 C 
ATOM     19  F   UNL     1       5.115   6.584  15.539  0.00  0.00    +0.000 F 
BRANCH  17  20
ATOM     20  C   UNL     1       6.728   5.051  16.305  0.00  0.00    +0.000 C 
ATOM     21  F   UNL     1       7.417   5.726  15.337  0.00  0.00    +0.000 F 
ATOM     22  F   UNL     1       6.948   3.729  16.045  0.00  0.00    +0.000 F 
BRANCH  20  28
ATOM     23  C   UNL     1       7.486   7.962  17.468  0.00  0.00    +0.000 C 
ATOM     24  N   UNL     1       7.652   6.680  18.099  0.00  0.00    +0.000 N 
ATOM     25  C   UNL     1       8.219   6.502  19.328  0.00  0.00    +0.000 A 
ATOM     26  N   UNL     1       8.168   5.236  19.657  0.00  0.00    +0.000 NA
ATOM     27  N   UNL     1       7.579   4.565  18.620  0.00  0.00    +0.000 NA
ATOM     28  C   UNL     1       7.294   5.428  17.657  0.00  0.00    +0.000 A 
ENDBRANCH  20  28
ENDBRANCH  17  20
ENDBRANCH  11  17
ENDBRANCH   1  15
BRANCH   8  29
ATOM     29  C   UNL     1      -0.277   9.504  22.482  0.00  0.00    +0.000 C 
ATOM     30  F   UNL     1      -0.880   8.287  22.359  0.00  0.00    +0.000 F 
ATOM     31  F   UNL     1       0.816   9.287  23.263  0.00  0.00    +0.000 F 
ATOM     32  F   UNL     1      -1.129  10.266  23.218  0.00  0.00    +0.000 F 
ENDBRANCH   8  29
BRANCH   6  33
ATOM     33  C   UNL     1      -0.287  13.613  19.583  0.00  0.00    +0.000 C 
BRANCH  33  34
ATOM     34  N   UNL     1       0.261  14.462  20.672  0.00  0.00    +0.000 NA
ATOM     35  C   UNL     1       1.325  13.826  21.457  0.00  0.00    +0.000 C 
ATOM     36  C   UNL     1       2.646  14.492  21.094  0.00  0.00    +0.000 C 
ATOM     37  C   UNL     1       2.301  15.622  20.134  0.00  0.00    +0.000 C 
ATOM     38  C   UNL     1       0.788  15.761  20.241  0.00  0.00    +0.000 C 
BRANCH  37  39
ATOM     39  C   UNL     1       2.701  15.313  18.758  0.00  0.00    +0.000 C 
ATOM     40  N   UNL     1       3.025  15.079  17.667  0.00  0.00    +0.000 NA
ENDBRANCH  37  39
ENDBRANCH  33  34
ENDBRANCH   6  33
TORSDOF 8
ENDMDL
