MODEL 1
REMARK VINA RESULT:      -9.1      0.000      0.000
REMARK  Name = 
REMARK  7 active torsions:
REMARK  status: ('A' for Active; 'I' for Inactive)
REMARK    1  A    between atoms: C_1  and  C_2
REMARK    2  A    between atoms: C_6  and  C_7
REMARK    3  A    between atoms: C_7  and  C_8
REMARK    4  A    between atoms: C_8  and  C_9
REMARK    5  A    between atoms: C_8  and  C_10
REMARK    6  A    between atoms: C_14  and  N_15
REMARK    7  A    between atoms: C_22  and  C_23
REMARK                            x       y       z     vdW  Elec       q    Type
REMARK                         _______ _______ _______ _____ _____    ______ ____
ROOT
ATOM      1  C   UNL     1       4.163   4.844  18.114  0.00  0.00    +0.000 A 
ATOM      2  C   UNL     1       3.924   3.819  19.025  0.00  0.00    +0.000 A 
ATOM      3  C   UNL     1       3.110   4.044  20.143  0.00  0.00    +0.000 A 
ATOM      4  C   UNL     1       2.476   5.279  20.335  0.00  0.00    +0.000 A 
ATOM      5  C   UNL     1       2.648   6.302  19.411  0.00  0.00    +0.000 A 
ATOM      6  C   UNL     1       3.519   6.069  18.326  0.00  0.00    +0.000 A 
ENDROOT
BRANCH   5   7
ATOM      7  N   UNL     1       1.971   7.543  19.478  0.00  0.00    +0.000 N 
ATOM      8  C   UNL     1       1.277   7.909  20.697  0.00  0.00    +0.000 C 
ATOM      9  C   UNL     1       0.824   9.298  20.464  0.00  0.00    +0.000 A 
ATOM     10  C   UNL     1       1.186   9.695  19.177  0.00  0.00    +0.000 A 
ATOM     11  C   UNL     1       0.870  10.954  18.708  0.00  0.00    +0.000 A 
ATOM     12  C   UNL     1       0.181  11.818  19.570  0.00  0.00    +0.000 A 
ATOM     13  C   UNL     1      -0.170  11.416  20.876  0.00  0.00    +0.000 A 
ATOM     14  C   UNL     1       0.155  10.136  21.348  0.00  0.00    +0.000 A 
ATOM     15  C   UNL     1       1.930   8.581  18.542  0.00  0.00    +0.000 C 
ATOM     16  O   UNL     1       2.399   8.655  17.419  0.00  0.00    +0.000 OA
BRANCH  14  17
ATOM     17  C   UNL     1      -0.192   9.706  22.753  0.00  0.00    +0.000 C 
ATOM     18  F   UNL     1      -0.962   8.581  22.809  0.00  0.00    +0.000 F 
ATOM     19  F   UNL     1       0.912   9.427  23.498  0.00  0.00    +0.000 F 
ATOM     20  F   UNL     1      -0.885  10.655  23.436  0.00  0.00    +0.000 F 
ENDBRANCH  14  17
ENDBRANCH   5   7
BRANCH   1  21
ATOM     21  C   UNL     1       5.042   4.716  16.877  0.00  0.00    +0.000 C 
ATOM     22  C   UNL     1       4.519   3.571  16.001  0.00  0.00    +0.000 C 
BRANCH  21  23
ATOM     23  C   UNL     1       6.555   4.571  17.145  0.00  0.00    +0.000 C 
BRANCH  23  29
ATOM     24  C   UNL     1       7.902   5.568  19.989  0.00  0.00    +0.000 C 
ATOM     25  C   UNL     1       7.790   6.297  18.707  0.00  0.00    +0.000 A 
ATOM     26  C   UNL     1       8.211   7.576  18.436  0.00  0.00    +0.000 A 
ATOM     27  O   UNL     1       7.957   7.885  17.144  0.00  0.00    +0.000 OA
ATOM     28  N   UNL     1       7.351   6.809  16.527  0.00  0.00    +0.000 NA
ATOM     29  C   UNL     1       7.224   5.868  17.473  0.00  0.00    +0.000 A 
ENDBRANCH  23  29
ENDBRANCH  21  23
ENDBRANCH   1  21
TORSDOF 5
ENDMDL
MODEL 2
REMARK VINA RESULT:      -9.1      1.223      2.368
REMARK  Name = 
REMARK  7 active torsions:
REMARK  status: ('A' for Active; 'I' for Inactive)
REMARK    1  A    between atoms: C_1  and  C_2
REMARK    2  A    between atoms: C_6  and  C_7
REMARK    3  A    between atoms: C_7  and  C_8
REMARK    4  A    between atoms: C_8  and  C_9
REMARK    5  A    between atoms: C_8  and  C_10
REMARK    6  A    between atoms: C_14  and  N_15
REMARK    7  A    between atoms: C_22  and  C_23
REMARK                            x       y       z     vdW  Elec       q    Type
REMARK                         _______ _______ _______ _____ _____    ______ ____
ROOT
ATOM      1  C   UNL     1       5.079   5.022  19.024  0.00  0.00    +0.000 A 
ATOM      2  C   UNL     1       4.534   3.814  19.450  0.00  0.00    +0.000 A 
ATOM      3  C   UNL     1       3.245   3.775  19.998  0.00  0.00    +0.000 A 
ATOM      4  C   UNL     1       2.460   4.933  20.073  0.00  0.00    +0.000 A 
ATOM      5  C   UNL     1       2.955   6.143  19.601  0.00  0.00    +0.000 A 
ATOM      6  C   UNL     1       4.276   6.166  19.109  0.00  0.00    +0.000 A 
ENDROOT
BRANCH   5   7
ATOM      7  N   UNL     1       2.195   7.336  19.552  0.00  0.00    +0.000 N 
ATOM      8  C   UNL     1       1.454   7.755  20.725  0.00  0.00    +0.000 C 
ATOM      9  C   UNL     1       0.914   9.085  20.368  0.00  0.00    +0.000 A 
ATOM     10  C   UNL     1       1.274   9.396  19.058  0.00  0.00    +0.000 A 
ATOM     11  C   UNL     1       0.885  10.587  18.478  0.00  0.00    +0.000 A 
ATOM     12  C   UNL     1       0.122  11.472  19.253  0.00  0.00    +0.000 A 
ATOM     13  C   UNL     1      -0.227  11.158  20.584  0.00  0.00    +0.000 A 
ATOM     14  C   UNL     1       0.172   9.948  21.168  0.00  0.00    +0.000 A 
ATOM     15  C   UNL     1       2.103   8.286  18.531  0.00  0.00    +0.000 C 
ATOM     16  O   UNL     1       2.589   8.297  17.412  0.00  0.00    +0.000 OA
BRANCH  14  17
ATOM     17  C   UNL     1      -0.173   9.615  22.599  0.00  0.00    +0.000 C 
ATOM     18  F   UNL     1       0.917   9.405  23.393  0.00  0.00    +0.000 F 
ATOM     19  F   UNL     1      -0.877  10.607  23.208  0.00  0.00    +0.000 F 
ATOM     20  F   UNL     1      -0.925   8.488  22.709  0.00  0.00    +0.000 F 
ENDBRANCH  14  17
ENDBRANCH   5   7
BRANCH   1  21
ATOM     21  C   UNL     1       6.472   5.183  18.431  0.00  0.00    +0.000 C 
ATOM     22  C   UNL     1       7.452   5.582  19.543  0.00  0.00    +0.000 C 
BRANCH  21  23
ATOM     23  C   UNL     1       6.578   6.136  17.223  0.00  0.00    +0.000 C 
BRANCH  23  29
ATOM     24  C   UNL     1       4.375   4.051  15.921  0.00  0.00    +0.000 C 
ATOM     25  C   UNL     1       5.662   4.512  15.359  0.00  0.00    +0.000 A 
ATOM     26  C   UNL     1       6.231   4.142  14.165  0.00  0.00    +0.000 A 
ATOM     27  O   UNL     1       7.402   4.795  13.986  0.00  0.00    +0.000 OA
ATOM     28  N   UNL     1       7.640   5.615  15.072  0.00  0.00    +0.000 NA
ATOM     29  C   UNL     1       6.610   5.422  15.908  0.00  0.00    +0.000 A 
ENDBRANCH  23  29
ENDBRANCH  21  23
ENDBRANCH   1  21
TORSDOF 5
ENDMDL
MODEL 3
REMARK VINA RESULT:      -9.0      1.788      2.705
REMARK  Name = 
REMARK  7 active torsions:
REMARK  status: ('A' for Active; 'I' for Inactive)
REMARK    1  A    between atoms: C_1  and  C_2
REMARK    2  A    between atoms: C_6  and  C_7
REMARK    3  A    between atoms: C_7  and  C_8
REMARK    4  A    between atoms: C_8  and  C_9
REMARK    5  A    between atoms: C_8  and  C_10
REMARK    6  A    between atoms: C_14  and  N_15
REMARK    7  A    between atoms: C_22  and  C_23
REMARK                            x       y       z     vdW  Elec       q    Type
REMARK                         _______ _______ _______ _____ _____    ______ ____
ROOT
ATOM      1  C   UNL     1       4.278   5.718  17.583  0.00  0.00    +0.000 A 
ATOM      2  C   UNL     1       3.872   4.511  18.146  0.00  0.00    +0.000 A 
ATOM      3  C   UNL     1       2.850   4.487  19.104  0.00  0.00    +0.000 A 
ATOM      4  C   UNL     1       2.179   5.661  19.469  0.00  0.00    +0.000 A 
ATOM      5  C   UNL     1       2.521   6.872  18.880  0.00  0.00    +0.000 A 
ATOM      6  C   UNL     1       3.592   6.878  17.962  0.00  0.00    +0.000 A 
ENDROOT
BRANCH   5   7
ATOM      7  N   UNL     1       1.832   8.085  19.121  0.00  0.00    +0.000 N 
ATOM      8  C   UNL     1       1.209   8.305  20.411  0.00  0.00    +0.000 C 
ATOM      9  C   UNL     1       0.723   9.701  20.356  0.00  0.00    +0.000 A 
ATOM     10  C   UNL     1       1.000  10.240  19.101  0.00  0.00    +0.000 A 
ATOM     11  C   UNL     1       0.638  11.536  18.789  0.00  0.00    +0.000 A 
ATOM     12  C   UNL     1      -0.009  12.289  19.779  0.00  0.00    +0.000 A 
ATOM     13  C   UNL     1      -0.273  11.742  21.053  0.00  0.00    +0.000 A 
ATOM     14  C   UNL     1       0.097  10.426  21.364  0.00  0.00    +0.000 A 
ATOM     15  C   UNL     1       1.719   9.216  18.307  0.00  0.00    +0.000 C 
ATOM     16  O   UNL     1       2.117   9.419  17.172  0.00  0.00    +0.000 OA
BRANCH  14  17
ATOM     17  C   UNL     1      -0.156   9.842  22.732  0.00  0.00    +0.000 C 
ATOM     18  F   UNL     1       0.979   9.466  23.388  0.00  0.00    +0.000 F 
ATOM     19  F   UNL     1      -0.780  10.719  23.564  0.00  0.00    +0.000 F 
ATOM     20  F   UNL     1      -0.938   8.731  22.691  0.00  0.00    +0.000 F 
ENDBRANCH  14  17
ENDBRANCH   5   7
BRANCH   1  21
ATOM     21  C   UNL     1       5.386   5.863  16.549  0.00  0.00    +0.000 C 
ATOM     22  C   UNL     1       4.971   6.908  15.505  0.00  0.00    +0.000 C 
BRANCH  21  23
ATOM     23  C   UNL     1       5.848   4.553  15.877  0.00  0.00    +0.000 C 
BRANCH  23  29
ATOM     24  C   UNL     1       5.332   3.471  12.801  0.00  0.00    +0.000 C 
ATOM     25  C   UNL     1       6.443   4.296  13.322  0.00  0.00    +0.000 A 
ATOM     26  C   UNL     1       7.526   4.772  12.623  0.00  0.00    +0.000 A 
ATOM     27  O   UNL     1       8.316   5.508  13.437  0.00  0.00    +0.000 OA
ATOM     28  N   UNL     1       7.772   5.531  14.707  0.00  0.00    +0.000 NA
ATOM     29  C   UNL     1       6.664   4.778  14.643  0.00  0.00    +0.000 A 
ENDBRANCH  23  29
ENDBRANCH  21  23
ENDBRANCH   1  21
TORSDOF 5
ENDMDL
MODEL 4
REMARK VINA RESULT:      -8.8      2.478      3.167
REMARK  Name = 
REMARK  7 active torsions:
REMARK  status: ('A' for Active; 'I' for Inactive)
REMARK    1  A    between atoms: C_1  and  C_2
REMARK    2  A    between atoms: C_6  and  C_7
REMARK    3  A    between atoms: C_7  and  C_8
REMARK    4  A    between atoms: C_8  and  C_9
REMARK    5  A    between atoms: C_8  and  C_10
REMARK    6  A    between atoms: C_14  and  N_15
REMARK    7  A    between atoms: C_22  and  C_23
REMARK                            x       y       z     vdW  Elec       q    Type
REMARK                         _______ _______ _______ _____ _____    ______ ____
ROOT
ATOM      1  C   UNL     1       4.612   4.728  16.562  0.00  0.00    +0.000 A 
ATOM      2  C   UNL     1       4.082   3.441  16.547  0.00  0.00    +0.000 A 
ATOM      3  C   UNL     1       3.081   3.078  17.458  0.00  0.00    +0.000 A 
ATOM      4  C   UNL     1       2.554   4.015  18.357  0.00  0.00    +0.000 A 
ATOM      5  C   UNL     1       3.021   5.323  18.356  0.00  0.00    +0.000 A 
ATOM      6  C   UNL     1       4.070   5.646  17.469  0.00  0.00    +0.000 A 
ENDROOT
BRANCH   5   7
ATOM      7  N   UNL     1       2.479   6.352  19.163  0.00  0.00    +0.000 N 
ATOM      8  C   UNL     1       2.243   7.659  18.584  0.00  0.00    +0.000 C 
ATOM      9  C   UNL     1       1.551   8.418  19.649  0.00  0.00    +0.000 A 
ATOM     10  C   UNL     1       1.438   7.621  20.788  0.00  0.00    +0.000 A 
ATOM     11  C   UNL     1       0.833   8.101  21.933  0.00  0.00    +0.000 A 
ATOM     12  C   UNL     1       0.334   9.411  21.907  0.00  0.00    +0.000 A 
ATOM     13  C   UNL     1       0.439  10.207  20.747  0.00  0.00    +0.000 A 
ATOM     14  C   UNL     1       1.053   9.714  19.587  0.00  0.00    +0.000 A 
ATOM     15  C   UNL     1       2.020   6.293  20.482  0.00  0.00    +0.000 C 
ATOM     16  O   UNL     1       2.032   5.376  21.286  0.00  0.00    +0.000 OA
BRANCH  14  17
ATOM     17  C   UNL     1       1.145  10.549  18.333  0.00  0.00    +0.000 C 
ATOM     18  F   UNL     1       0.682  11.823  18.485  0.00  0.00    +0.000 F 
ATOM     19  F   UNL     1       2.425  10.680  17.890  0.00  0.00    +0.000 F 
ATOM     20  F   UNL     1       0.435  10.023  17.300  0.00  0.00    +0.000 F 
ENDBRANCH  14  17
ENDBRANCH   5   7
BRANCH   1  21
ATOM     21  C   UNL     1       5.711   5.224  15.632  0.00  0.00    +0.000 C 
ATOM     22  C   UNL     1       5.412   4.758  14.201  0.00  0.00    +0.000 C 
BRANCH  21  23
ATOM     23  C   UNL     1       7.152   4.862  16.048  0.00  0.00    +0.000 C 
BRANCH  23  29
ATOM     24  C   UNL     1       7.497   7.892  17.313  0.00  0.00    +0.000 C 
ATOM     25  C   UNL     1       7.646   6.582  17.984  0.00  0.00    +0.000 A 
ATOM     26  C   UNL     1       7.989   6.350  19.293  0.00  0.00    +0.000 A 
ATOM     27  O   UNL     1       8.001   5.021  19.542  0.00  0.00    +0.000 OA
ATOM     28  N   UNL     1       7.668   4.336  18.390  0.00  0.00    +0.000 NA
ATOM     29  C   UNL     1       7.484   5.273  17.448  0.00  0.00    +0.000 A 
ENDBRANCH  23  29
ENDBRANCH  21  23
ENDBRANCH   1  21
TORSDOF 5
ENDMDL
MODEL 5
REMARK VINA RESULT:      -8.8      1.037      1.237
REMARK  Name = 
REMARK  7 active torsions:
REMARK  status: ('A' for Active; 'I' for Inactive)
REMARK    1  A    between atoms: C_1  and  C_2
REMARK    2  A    between atoms: C_6  and  C_7
REMARK    3  A    between atoms: C_7  and  C_8
REMARK    4  A    between atoms: C_8  and  C_9
REMARK    5  A    between atoms: C_8  and  C_10
REMARK    6  A    between atoms: C_14  and  N_15
REMARK    7  A    between atoms: C_22  and  C_23
REMARK                            x       y       z     vdW  Elec       q    Type
REMARK                         _______ _______ _______ _____ _____    ______ ____
ROOT
ATOM      1  C   UNL     1       4.388   5.226  17.448  0.00  0.00    +0.000 A 
ATOM      2  C   UNL     1       4.398   4.207  18.397  0.00  0.00    +0.000 A 
ATOM      3  C   UNL     1       3.754   4.382  19.628  0.00  0.00    +0.000 A 
ATOM      4  C   UNL     1       3.040   5.555  19.906  0.00  0.00    +0.000 A 
ATOM      5  C   UNL     1       2.961   6.566  18.955  0.00  0.00    +0.000 A 
ATOM      6  C   UNL     1       3.668   6.389  17.747  0.00  0.00    +0.000 A 
ENDROOT
BRANCH   5   7
ATOM      7  N   UNL     1       2.184   7.738  19.117  0.00  0.00    +0.000 N 
ATOM      8  C   UNL     1       1.512   7.976  20.379  0.00  0.00    +0.000 C 
ATOM      9  C   UNL     1       0.933   9.330  20.241  0.00  0.00    +0.000 A 
ATOM     10  C   UNL     1       1.208   9.826  18.967  0.00  0.00    +0.000 A 
ATOM     11  C   UNL     1       0.767  11.076  18.581  0.00  0.00    +0.000 A 
ATOM     12  C   UNL     1       0.042  11.829  19.515  0.00  0.00    +0.000 A 
ATOM     13  C   UNL     1      -0.220  11.329  20.808  0.00  0.00    +0.000 A 
ATOM     14  C   UNL     1       0.231  10.059  21.195  0.00  0.00    +0.000 A 
ATOM     15  C   UNL     1       2.017   8.817  18.244  0.00  0.00    +0.000 C 
ATOM     16  O   UNL     1       2.432   8.992  17.111  0.00  0.00    +0.000 OA
BRANCH  14  17
ATOM     17  C   UNL     1      -0.021   9.526  22.584  0.00  0.00    +0.000 C 
ATOM     18  F   UNL     1      -0.771   8.386  22.608  0.00  0.00    +0.000 F 
ATOM     19  F   UNL     1       1.131   9.213  23.237  0.00  0.00    +0.000 F 
ATOM     20  F   UNL     1      -0.681  10.413  23.375  0.00  0.00    +0.000 F 
ENDBRANCH  14  17
ENDBRANCH   5   7
BRANCH   1  21
ATOM     21  C   UNL     1       5.068   5.151  16.087  0.00  0.00    +0.000 C 
ATOM     22  C   UNL     1       4.989   3.711  15.561  0.00  0.00    +0.000 C 
BRANCH  21  23
ATOM     23  C   UNL     1       6.513   5.688  16.032  0.00  0.00    +0.000 C 
BRANCH  23  29
ATOM     24  C   UNL     1       7.568   8.274  17.792  0.00  0.00    +0.000 C 
ATOM     25  C   UNL     1       7.652   6.833  18.115  0.00  0.00    +0.000 A 
ATOM     26  C   UNL     1       8.220   6.259  19.227  0.00  0.00    +0.000 A 
ATOM     27  O   UNL     1       8.080   4.915  19.178  0.00  0.00    +0.000 OA
ATOM     28  N   UNL     1       7.416   4.565  18.019  0.00  0.00    +0.000 NA
ATOM     29  C   UNL     1       7.186   5.714  17.368  0.00  0.00    +0.000 A 
ENDBRANCH  23  29
ENDBRANCH  21  23
ENDBRANCH   1  21
TORSDOF 5
ENDMDL
MODEL 6
REMARK VINA RESULT:      -8.7      3.305      8.354
REMARK  Name = 
REMARK  7 active torsions:
REMARK  status: ('A' for Active; 'I' for Inactive)
REMARK    1  A    between atoms: C_1  and  C_2
REMARK    2  A    between atoms: C_6  and  C_7
REMARK    3  A    between atoms: C_7  and  C_8
REMARK    4  A    between atoms: C_8  and  C_9
REMARK    5  A    between atoms: C_8  and  C_10
REMARK    6  A    between atoms: C_14  and  N_15
REMARK    7  A    between atoms: C_22  and  C_23
REMARK                            x       y       z     vdW  Elec       q    Type
REMARK                         _______ _______ _______ _____ _____    ______ ____
ROOT
ATOM      1  C   UNL     1      -0.675  11.069  20.513  0.00  0.00    +0.000 A 
ATOM      2  C   UNL     1      -0.789  11.153  21.898  0.00  0.00    +0.000 A 
ATOM      3  C   UNL     1      -0.237  10.158  22.715  0.00  0.00    +0.000 A 
ATOM      4  C   UNL     1       0.488   9.095  22.161  0.00  0.00    +0.000 A 
ATOM      5  C   UNL     1       0.671   9.015  20.786  0.00  0.00    +0.000 A 
ATOM      6  C   UNL     1       0.055   9.998  19.983  0.00  0.00    +0.000 A 
ENDROOT
BRANCH   5   7
ATOM      7  N   UNL     1       1.468   8.030  20.155  0.00  0.00    +0.000 N 
ATOM      8  C   UNL     1       1.507   6.689  20.704  0.00  0.00    +0.000 C 
ATOM      9  C   UNL     1       2.301   5.911  19.729  0.00  0.00    +0.000 A 
ATOM     10  C   UNL     1       2.736   6.754  18.707  0.00  0.00    +0.000 A 
ATOM     11  C   UNL     1       3.508   6.271  17.668  0.00  0.00    +0.000 A 
ATOM     12  C   UNL     1       3.831   4.907  17.675  0.00  0.00    +0.000 A 
ATOM     13  C   UNL     1       3.375   4.056  18.704  0.00  0.00    +0.000 A 
ATOM     14  C   UNL     1       2.591   4.551  19.755  0.00  0.00    +0.000 A 
ATOM     15  C   UNL     1       2.199   8.111  18.967  0.00  0.00    +0.000 C 
ATOM     16  O   UNL     1       2.393   9.053  18.217  0.00  0.00    +0.000 OA
BRANCH  14  17
ATOM     17  C   UNL     1       2.076   3.644  20.846  0.00  0.00    +0.000 C 
ATOM     18  F   UNL     1       2.438   4.034  22.102  0.00  0.00    +0.000 F 
ATOM     19  F   UNL     1       0.717   3.576  20.866  0.00  0.00    +0.000 F 
ATOM     20  F   UNL     1       2.522   2.366  20.719  0.00  0.00    +0.000 F 
ENDBRANCH  14  17
ENDBRANCH   5   7
BRANCH   1  21
ATOM     21  C   UNL     1      -1.249  12.082  19.532  0.00  0.00    +0.000 C 
ATOM     22  C   UNL     1      -0.965  13.500  20.045  0.00  0.00    +0.000 C 
BRANCH  21  23
ATOM     23  C   UNL     1      -2.741  11.902  19.182  0.00  0.00    +0.000 C 
BRANCH  23  29
ATOM     24  C   UNL     1      -5.500  11.995  17.372  0.00  0.00    +0.000 C 
ATOM     25  C   UNL     1      -4.164  11.477  17.005  0.00  0.00    +0.000 A 
ATOM     26  C   UNL     1      -3.794  10.894  15.818  0.00  0.00    +0.000 A 
ATOM     27  O   UNL     1      -2.480  10.571  15.849  0.00  0.00    +0.000 OA
ATOM     28  N   UNL     1      -1.949  10.931  17.071  0.00  0.00    +0.000 NA
ATOM     29  C   UNL     1      -2.967  11.448  17.775  0.00  0.00    +0.000 A 
ENDBRANCH  23  29
ENDBRANCH  21  23
ENDBRANCH   1  21
TORSDOF 5
ENDMDL
MODEL 7
REMARK VINA RESULT:      -8.6      2.295      2.919
REMARK  Name = 
REMARK  7 active torsions:
REMARK  status: ('A' for Active; 'I' for Inactive)
REMARK    1  A    between atoms: C_1  and  C_2
REMARK    2  A    between atoms: C_6  and  C_7
REMARK    3  A    between atoms: C_7  and  C_8
REMARK    4  A    between atoms: C_8  and  C_9
REMARK    5  A    between atoms: C_8  and  C_10
REMARK    6  A    between atoms: C_14  and  N_15
REMARK    7  A    between atoms: C_22  and  C_23
REMARK                            x       y       z     vdW  Elec       q    Type
REMARK                         _______ _______ _______ _____ _____    ______ ____
ROOT
ATOM      1  C   UNL     1       4.407   4.409  16.778  0.00  0.00    +0.000 A 
ATOM      2  C   UNL     1       3.618   3.279  16.581  0.00  0.00    +0.000 A 
ATOM      3  C   UNL     1       2.434   3.109  17.312  0.00  0.00    +0.000 A 
ATOM      4  C   UNL     1       1.993   4.093  18.205  0.00  0.00    +0.000 A 
ATOM      5  C   UNL     1       2.729   5.259  18.378  0.00  0.00    +0.000 A 
ATOM      6  C   UNL     1       3.946   5.379  17.675  0.00  0.00    +0.000 A 
ENDROOT
BRANCH   5   7
ATOM      7  N   UNL     1       2.307   6.341  19.187  0.00  0.00    +0.000 N 
ATOM      8  C   UNL     1       2.088   7.639  18.580  0.00  0.00    +0.000 C 
ATOM      9  C   UNL     1       1.525   8.468  19.668  0.00  0.00    +0.000 A 
ATOM     10  C   UNL     1       1.469   7.718  20.842  0.00  0.00    +0.000 A 
ATOM     11  C   UNL     1       0.986   8.268  22.013  0.00  0.00    +0.000 A 
ATOM     12  C   UNL     1       0.551   9.600  21.978  0.00  0.00    +0.000 A 
ATOM     13  C   UNL     1       0.597  10.349  20.783  0.00  0.00    +0.000 A 
ATOM     14  C   UNL     1       1.087   9.786  19.597  0.00  0.00    +0.000 A 
ATOM     15  C   UNL     1       1.958   6.352  20.541  0.00  0.00    +0.000 C 
ATOM     16  O   UNL     1       1.993   5.464  21.376  0.00  0.00    +0.000 OA
BRANCH  14  17
ATOM     17  C   UNL     1       1.115  10.570  18.308  0.00  0.00    +0.000 C 
ATOM     18  F   UNL     1       0.310  10.056  17.333  0.00  0.00    +0.000 F 
ATOM     19  F   UNL     1       0.705  11.857  18.474  0.00  0.00    +0.000 F 
ATOM     20  F   UNL     1       2.357  10.632  17.758  0.00  0.00    +0.000 F 
ENDBRANCH  14  17
ENDBRANCH   5   7
BRANCH   1  21
ATOM     21  C   UNL     1       5.718   4.687  16.053  0.00  0.00    +0.000 C 
ATOM     22  C   UNL     1       5.829   3.761  14.835  0.00  0.00    +0.000 C 
BRANCH  21  23
ATOM     23  C   UNL     1       6.990   4.622  16.923  0.00  0.00    +0.000 C 
BRANCH  23  29
ATOM     24  C   UNL     1       8.036   5.575  19.906  0.00  0.00    +0.000 C 
ATOM     25  C   UNL     1       7.901   6.374  18.669  0.00  0.00    +0.000 A 
ATOM     26  C   UNL     1       8.166   7.713  18.508  0.00  0.00    +0.000 A 
ATOM     27  O   UNL     1       7.945   8.079  17.225  0.00  0.00    +0.000 OA
ATOM     28  N   UNL     1       7.519   6.982  16.503  0.00  0.00    +0.000 NA
ATOM     29  C   UNL     1       7.465   5.967  17.377  0.00  0.00    +0.000 A 
ENDBRANCH  23  29
ENDBRANCH  21  23
ENDBRANCH   1  21
TORSDOF 5
ENDMDL
MODEL 8
REMARK VINA RESULT:      -8.4      3.284      8.211
REMARK  Name = 
REMARK  7 active torsions:
REMARK  status: ('A' for Active; 'I' for Inactive)
REMARK    1  A    between atoms: C_1  and  C_2
REMARK    2  A    between atoms: C_6  and  C_7
REMARK    3  A    between atoms: C_7  and  C_8
REMARK    4  A    between atoms: C_8  and  C_9
REMARK    5  A    between atoms: C_8  and  C_10
REMARK    6  A    between atoms: C_14  and  N_15
REMARK    7  A    between atoms: C_22  and  C_23
REMARK                            x       y       z     vdW  Elec       q    Type
REMARK                         _______ _______ _______ _____ _____    ______ ____
ROOT
ATOM      1  C   UNL     1       0.941   9.811  20.041  0.00  0.00    +0.000 A 
ATOM      2  C   UNL     1       1.077  10.748  19.020  0.00  0.00    +0.000 A 
ATOM      3  C   UNL     1       1.814  10.438  17.870  0.00  0.00    +0.000 A 
ATOM      4  C   UNL     1       2.375   9.166  17.697  0.00  0.00    +0.000 A 
ATOM      5  C   UNL     1       2.205   8.190  18.671  0.00  0.00    +0.000 A 
ATOM      6  C   UNL     1       1.510   8.546  19.845  0.00  0.00    +0.000 A 
ENDROOT
BRANCH   5   7
ATOM      7  N   UNL     1       2.657   6.856  18.532  0.00  0.00    +0.000 N 
ATOM      8  C   UNL     1       1.952   5.793  19.221  0.00  0.00    +0.000 C 
ATOM      9  C   UNL     1       2.594   4.549  18.741  0.00  0.00    +0.000 A 
ATOM     10  C   UNL     1       3.634   4.871  17.869  0.00  0.00    +0.000 A 
ATOM     11  C   UNL     1       4.401   3.882  17.285  0.00  0.00    +0.000 A 
ATOM     12  C   UNL     1       4.094   2.550  17.593  0.00  0.00    +0.000 A 
ATOM     13  C   UNL     1       3.030   2.230  18.464  0.00  0.00    +0.000 A 
ATOM     14  C   UNL     1       2.254   3.238  19.053  0.00  0.00    +0.000 A 
ATOM     15  C   UNL     1       3.675   6.345  17.722  0.00  0.00    +0.000 C 
ATOM     16  O   UNL     1       4.469   6.914  16.993  0.00  0.00    +0.000 OA
BRANCH  14  17
ATOM     17  C   UNL     1       1.098   2.906  19.964  0.00  0.00    +0.000 C 
ATOM     18  F   UNL     1       1.432   2.080  20.998  0.00  0.00    +0.000 F 
ATOM     19  F   UNL     1       0.560   4.012  20.545  0.00  0.00    +0.000 F 
ATOM     20  F   UNL     1       0.080   2.282  19.314  0.00  0.00    +0.000 F 
ENDBRANCH  14  17
ENDBRANCH   5   7
BRANCH   1  21
ATOM     21  C   UNL     1       0.179  10.046  21.338  0.00  0.00    +0.000 C 
ATOM     22  C   UNL     1      -0.242   8.694  21.930  0.00  0.00    +0.000 C 
BRANCH  21  23
ATOM     23  C   UNL     1      -1.018  11.014  21.244  0.00  0.00    +0.000 C 
BRANCH  23  29
ATOM     24  C   UNL     1      -3.038  12.348  23.489  0.00  0.00    +0.000 C 
ATOM     25  C   UNL     1      -1.723  12.833  23.016  0.00  0.00    +0.000 A 
ATOM     26  C   UNL     1      -1.068  13.976  23.404  0.00  0.00    +0.000 A 
ATOM     27  O   UNL     1       0.123  14.068  22.768  0.00  0.00    +0.000 OA
ATOM     28  N   UNL     1       0.280  12.979  21.932  0.00  0.00    +0.000 NA
ATOM     29  C   UNL     1      -0.841  12.255  22.060  0.00  0.00    +0.000 A 
ENDBRANCH  23  29
ENDBRANCH  21  23
ENDBRANCH   1  21
TORSDOF 5
ENDMDL
MODEL 9
REMARK VINA RESULT:      -8.3      1.480      2.504
REMARK  Name = 
REMARK  7 active torsions:
REMARK  status: ('A' for Active; 'I' for Inactive)
REMARK    1  A    between atoms: C_1  and  C_2
REMARK    2  A    between atoms: C_6  and  C_7
REMARK    3  A    between atoms: C_7  and  C_8
REMARK    4  A    between atoms: C_8  and  C_9
REMARK    5  A    between atoms: C_8  and  C_10
REMARK    6  A    between atoms: C_14  and  N_15
REMARK    7  A    between atoms: C_22  and  C_23
REMARK                            x       y       z     vdW  Elec       q    Type
REMARK                         _______ _______ _______ _____ _____    ______ ____
ROOT
ATOM      1  C   UNL     1       5.218   4.921  19.120  0.00  0.00    +0.000 A 
ATOM      2  C   UNL     1       4.619   3.692  19.382  0.00  0.00    +0.000 A 
ATOM      3  C   UNL     1       3.272   3.630  19.764  0.00  0.00    +0.000 A 
ATOM      4  C   UNL     1       2.490   4.791  19.831  0.00  0.00    +0.000 A 
ATOM      5  C   UNL     1       3.045   6.025  19.517  0.00  0.00    +0.000 A 
ATOM      6  C   UNL     1       4.417   6.067  19.193  0.00  0.00    +0.000 A 
ENDROOT
BRANCH   5   7
ATOM      7  N   UNL     1       2.303   7.230  19.468  0.00  0.00    +0.000 N 
ATOM      8  C   UNL     1       1.550   7.649  20.633  0.00  0.00    +0.000 C 
ATOM      9  C   UNL     1       1.035   8.990  20.280  0.00  0.00    +0.000 A 
ATOM     10  C   UNL     1       1.420   9.307  18.978  0.00  0.00    +0.000 A 
ATOM     11  C   UNL     1       1.056  10.509  18.403  0.00  0.00    +0.000 A 
ATOM     12  C   UNL     1       0.294  11.398  19.175  0.00  0.00    +0.000 A 
ATOM     13  C   UNL     1      -0.080  11.077  20.497  0.00  0.00    +0.000 A 
ATOM     14  C   UNL     1       0.293   9.856  21.076  0.00  0.00    +0.000 A 
ATOM     15  C   UNL     1       2.241   8.190  18.454  0.00  0.00    +0.000 C 
ATOM     16  O   UNL     1       2.744   8.205  17.343  0.00  0.00    +0.000 OA
BRANCH  14  17
ATOM     17  C   UNL     1      -0.079   9.515  22.499  0.00  0.00    +0.000 C 
ATOM     18  F   UNL     1      -0.761  10.507  23.141  0.00  0.00    +0.000 F 
ATOM     19  F   UNL     1      -0.879   8.417  22.578  0.00  0.00    +0.000 F 
ATOM     20  F   UNL     1       1.005   9.256  23.277  0.00  0.00    +0.000 F 
ENDBRANCH  14  17
ENDBRANCH   5   7
BRANCH   1  21
ATOM     21  C   UNL     1       6.675   5.106  18.716  0.00  0.00    +0.000 C 
ATOM     22  C   UNL     1       7.463   5.668  19.907  0.00  0.00    +0.000 C 
BRANCH  21  23
ATOM     23  C   UNL     1       6.914   5.942  17.442  0.00  0.00    +0.000 C 
BRANCH  23  29
ATOM     24  C   UNL     1       4.780   6.877  15.103  0.00  0.00    +0.000 C 
ATOM     25  C   UNL     1       5.581   5.637  15.188  0.00  0.00    +0.000 A 
ATOM     26  C   UNL     1       5.584   4.584  14.306  0.00  0.00    +0.000 A 
ATOM     27  O   UNL     1       6.466   3.641  14.711  0.00  0.00    +0.000 OA
ATOM     28  N   UNL     1       7.067   4.051  15.885  0.00  0.00    +0.000 NA
ATOM     29  C   UNL     1       6.513   5.234  16.186  0.00  0.00    +0.000 A 
ENDBRANCH  23  29
ENDBRANCH  21  23
ENDBRANCH   1  21
TORSDOF 5
ENDMDL
