MODEL 1
REMARK VINA RESULT:      -9.2      0.000      0.000
REMARK  Name = 
REMARK  7 active torsions:
REMARK  status: ('A' for Active; 'I' for Inactive)
REMARK    1  A    between atoms: C_1  and  C_2
REMARK    2  A    between atoms: N_12  and  C_13
REMARK    3  A    between atoms: C_17  and  C_18
REMARK    4  A    between atoms: C_18  and  C_19
REMARK    5  A    between atoms: C_18  and  C_20
REMARK    6  A    between atoms: C_20  and  C_21
REMARK    7  A    between atoms: N_25  and  C_26
REMARK                            x       y       z     vdW  Elec       q    Type
REMARK                         _______ _______ _______ _____ _____    ______ ____
ROOT
ATOM      1  C   UNL     1       6.330   6.598  16.983  0.00  0.00    +0.000 A 
ATOM      2  C   UNL     1       6.934   5.552  16.284  0.00  0.00    +0.000 A 
ATOM      3  C   UNL     1       6.268   4.340  16.101  0.00  0.00    +0.000 A 
ATOM      4  C   UNL     1       4.978   4.170  16.595  0.00  0.00    +0.000 A 
ATOM      5  C   UNL     1       4.331   5.209  17.280  0.00  0.00    +0.000 A 
ATOM      6  C   UNL     1       5.040   6.407  17.509  0.00  0.00    +0.000 A 
ENDROOT
BRANCH   1  18
ATOM      7  C   UNL     1      11.621  11.809  20.224  0.00  0.00    +0.000 C 
ATOM      8  C   UNL     1      10.528  12.233  19.294  0.00  0.00    +0.000 A 
ATOM      9  C   UNL     1      10.396  13.580  18.916  0.00  0.00    +0.000 A 
ATOM     10  C   UNL     1       9.385  13.998  18.036  0.00  0.00    +0.000 A 
ATOM     11  C   UNL     1       8.476  13.079  17.513  0.00  0.00    +0.000 A 
ATOM     12  C   UNL     1       8.603  11.749  17.878  0.00  0.00    +0.000 A 
ATOM     13  C   UNL     1       9.609  11.328  18.761  0.00  0.00    +0.000 A 
ATOM     14  C   UNL     1       9.490   9.848  18.978  0.00  0.00    +0.000 C 
ATOM     15  N   UNL     1       8.376   9.446  18.113  0.00  0.00    +0.000 N 
ATOM     16  C   UNL     1       7.960   8.133  18.089  0.00  0.00    +0.000 C 
ATOM     17  O   UNL     1       8.485   7.304  18.828  0.00  0.00    +0.000 OA
ATOM     18  N   UNL     1       6.962   7.854  17.170  0.00  0.00    +0.000 N 
ATOM     19  C   UNL     1       7.771  10.588  17.436  0.00  0.00    +0.000 C 
ATOM     20  H   UNL     1       6.859   8.512  16.416  0.00  0.00    +0.000 HD
ENDBRANCH   1  18
BRANCH   5  21
ATOM     21  C   UNL     1       2.849   5.092  17.640  0.00  0.00    +0.000 C 
ATOM     22  C   UNL     1       2.477   5.963  18.847  0.00  0.00    +0.000 C 
BRANCH  21  23
ATOM     23  C   UNL     1       2.522   3.599  17.882  0.00  0.00    +0.000 C 
BRANCH  23  24
ATOM     24  C   UNL     1       2.192   3.281  19.300  0.00  0.00    +0.000 A 
ATOM     25  N   UNL     1       1.012   3.403  19.873  0.00  0.00    +0.000 NA
ATOM     26  N   UNL     1       1.121   2.979  21.176  0.00  0.00    +0.000 NA
ATOM     27  C   UNL     1       2.363   2.604  21.370  0.00  0.00    +0.000 A 
ATOM     28  N   UNL     1       3.074   2.779  20.224  0.00  0.00    +0.000 N 
ATOM     29  C   UNL     1       4.470   2.486  20.044  0.00  0.00    +0.000 C 
ENDBRANCH  23  24
ENDBRANCH  21  23
ENDBRANCH   5  21
TORSDOF 4
ENDMDL
MODEL 2
REMARK VINA RESULT:      -9.0      0.795      1.192
REMARK  Name = 
REMARK  7 active torsions:
REMARK  status: ('A' for Active; 'I' for Inactive)
REMARK    1  A    between atoms: C_1  and  C_2
REMARK    2  A    between atoms: N_12  and  C_13
REMARK    3  A    between atoms: C_17  and  C_18
REMARK    4  A    between atoms: C_18  and  C_19
REMARK    5  A    between atoms: C_18  and  C_20
REMARK    6  A    between atoms: C_20  and  C_21
REMARK    7  A    between atoms: N_25  and  C_26
REMARK                            x       y       z     vdW  Elec       q    Type
REMARK                         _______ _______ _______ _____ _____    ______ ____
ROOT
ATOM      1  C   UNL     1       6.533   6.255  16.700  0.00  0.00    +0.000 A 
ATOM      2  C   UNL     1       7.076   5.391  15.748  0.00  0.00    +0.000 A 
ATOM      3  C   UNL     1       6.503   4.142  15.511  0.00  0.00    +0.000 A 
ATOM      4  C   UNL     1       5.363   3.751  16.208  0.00  0.00    +0.000 A 
ATOM      5  C   UNL     1       4.775   4.604  17.154  0.00  0.00    +0.000 A 
ATOM      6  C   UNL     1       5.401   5.840  17.425  0.00  0.00    +0.000 A 
ENDROOT
BRANCH   1  18
ATOM      7  C   UNL     1      11.091  11.747  20.535  0.00  0.00    +0.000 C 
ATOM      8  C   UNL     1      10.104  12.110  19.471  0.00  0.00    +0.000 A 
ATOM      9  C   UNL     1       9.950  13.447  19.067  0.00  0.00    +0.000 A 
ATOM     10  C   UNL     1       9.039  13.809  18.062  0.00  0.00    +0.000 A 
ATOM     11  C   UNL     1       8.252  12.841  17.437  0.00  0.00    +0.000 A 
ATOM     12  C   UNL     1       8.401  11.521  17.827  0.00  0.00    +0.000 A 
ATOM     13  C   UNL     1       9.308  11.156  18.835  0.00  0.00    +0.000 A 
ATOM     14  C   UNL     1       9.241   9.672  19.049  0.00  0.00    +0.000 C 
ATOM     15  N   UNL     1       8.267   9.210  18.053  0.00  0.00    +0.000 N 
ATOM     16  C   UNL     1       7.927   7.877  17.989  0.00  0.00    +0.000 C 
ATOM     17  O   UNL     1       8.397   7.078  18.796  0.00  0.00    +0.000 OA
ATOM     18  N   UNL     1       7.069   7.543  16.954  0.00  0.00    +0.000 N 
ATOM     19  C   UNL     1       7.694  10.316  17.295  0.00  0.00    +0.000 C 
ATOM     20  H   UNL     1       7.028   8.192  16.186  0.00  0.00    +0.000 HD
ENDBRANCH   1  18
BRANCH   5  21
ATOM     21  C   UNL     1       3.417   4.262  17.765  0.00  0.00    +0.000 C 
ATOM     22  C   UNL     1       2.967   5.304  18.798  0.00  0.00    +0.000 C 
BRANCH  21  23
ATOM     23  C   UNL     1       3.501   2.842  18.376  0.00  0.00    +0.000 C 
BRANCH  23  24
ATOM     24  C   UNL     1       2.891   2.737  19.732  0.00  0.00    +0.000 A 
ATOM     25  N   UNL     1       3.535   2.769  20.881  0.00  0.00    +0.000 NA
ATOM     26  N   UNL     1       2.610   2.672  21.894  0.00  0.00    +0.000 NA
ATOM     27  C   UNL     1       1.423   2.588  21.343  0.00  0.00    +0.000 A 
ATOM     28  N   UNL     1       1.548   2.619  19.989  0.00  0.00    +0.000 N 
ATOM     29  C   UNL     1       0.471   2.545  19.040  0.00  0.00    +0.000 C 
ENDBRANCH  23  24
ENDBRANCH  21  23
ENDBRANCH   5  21
TORSDOF 4
ENDMDL
MODEL 3
REMARK VINA RESULT:      -8.8      5.000      8.108
REMARK  Name = 
REMARK  7 active torsions:
REMARK  status: ('A' for Active; 'I' for Inactive)
REMARK    1  A    between atoms: C_1  and  C_2
REMARK    2  A    between atoms: N_12  and  C_13
REMARK    3  A    between atoms: C_17  and  C_18
REMARK    4  A    between atoms: C_18  and  C_19
REMARK    5  A    between atoms: C_18  and  C_20
REMARK    6  A    between atoms: C_20  and  C_21
REMARK    7  A    between atoms: N_25  and  C_26
REMARK                            x       y       z     vdW  Elec       q    Type
REMARK                         _______ _______ _______ _____ _____    ______ ____
ROOT
ATOM      1  C   UNL     1       3.059   5.758  19.372  0.00  0.00    +0.000 A 
ATOM      2  C   UNL     1       3.229   4.485  19.918  0.00  0.00    +0.000 A 
ATOM      3  C   UNL     1       4.086   3.562  19.319  0.00  0.00    +0.000 A 
ATOM      4  C   UNL     1       4.803   3.911  18.178  0.00  0.00    +0.000 A 
ATOM      5  C   UNL     1       4.675   5.189  17.616  0.00  0.00    +0.000 A 
ATOM      6  C   UNL     1       3.760   6.092  18.199  0.00  0.00    +0.000 A 
ENDROOT
BRANCH   1  18
ATOM      7  C   UNL     1      -1.091  12.707  19.735  0.00  0.00    +0.000 C 
ATOM      8  C   UNL     1      -0.937  11.790  20.907  0.00  0.00    +0.000 A 
ATOM      9  C   UNL     1      -1.549  12.094  22.135  0.00  0.00    +0.000 A 
ATOM     10  C   UNL     1      -1.428  11.242  23.244  0.00  0.00    +0.000 A 
ATOM     11  C   UNL     1      -0.687  10.063  23.155  0.00  0.00    +0.000 A 
ATOM     12  C   UNL     1      -0.086   9.755  21.946  0.00  0.00    +0.000 A 
ATOM     13  C   UNL     1      -0.200  10.607  20.836  0.00  0.00    +0.000 A 
ATOM     14  C   UNL     1       0.561  10.023  19.683  0.00  0.00    +0.000 C 
ATOM     15  N   UNL     1       1.075   8.750  20.199  0.00  0.00    +0.000 N 
ATOM     16  C   UNL     1       1.866   7.951  19.403  0.00  0.00    +0.000 C 
ATOM     17  O   UNL     1       2.186   8.324  18.276  0.00  0.00    +0.000 OA
ATOM     18  N   UNL     1       2.217   6.735  19.962  0.00  0.00    +0.000 N 
ATOM     19  C   UNL     1       0.732   8.552  21.603  0.00  0.00    +0.000 C 
ATOM     20  H   UNL     1       1.636   6.411  20.718  0.00  0.00    +0.000 HD
ENDBRANCH   1  18
BRANCH   5  21
ATOM     21  C   UNL     1       5.609   5.636  16.491  0.00  0.00    +0.000 C 
ATOM     22  C   UNL     1       5.047   6.833  15.712  0.00  0.00    +0.000 C 
BRANCH  21  23
ATOM     23  C   UNL     1       5.879   4.422  15.570  0.00  0.00    +0.000 C 
BRANCH  23  24
ATOM     24  C   UNL     1       6.758   4.736  14.408  0.00  0.00    +0.000 A 
ATOM     25  N   UNL     1       7.818   5.519  14.421  0.00  0.00    +0.000 NA
ATOM     26  N   UNL     1       8.365   5.521  13.159  0.00  0.00    +0.000 NA
ATOM     27  C   UNL     1       7.631   4.738  12.405  0.00  0.00    +0.000 A 
ATOM     28  N   UNL     1       6.609   4.227  13.142  0.00  0.00    +0.000 N 
ATOM     29  C   UNL     1       5.590   3.332  12.665  0.00  0.00    +0.000 C 
ENDBRANCH  23  24
ENDBRANCH  21  23
ENDBRANCH   5  21
TORSDOF 4
ENDMDL
MODEL 4
REMARK VINA RESULT:      -8.8      4.551      7.836
REMARK  Name = 
REMARK  7 active torsions:
REMARK  status: ('A' for Active; 'I' for Inactive)
REMARK    1  A    between atoms: C_1  and  C_2
REMARK    2  A    between atoms: N_12  and  C_13
REMARK    3  A    between atoms: C_17  and  C_18
REMARK    4  A    between atoms: C_18  and  C_19
REMARK    5  A    between atoms: C_18  and  C_20
REMARK    6  A    between atoms: C_20  and  C_21
REMARK    7  A    between atoms: N_25  and  C_26
REMARK                            x       y       z     vdW  Elec       q    Type
REMARK                         _______ _______ _______ _____ _____    ______ ____
ROOT
ATOM      1  C   UNL     1       2.992   5.444  20.142  0.00  0.00    +0.000 A 
ATOM      2  C   UNL     1       2.687   4.112  20.427  0.00  0.00    +0.000 A 
ATOM      3  C   UNL     1       3.543   3.085  20.031  0.00  0.00    +0.000 A 
ATOM      4  C   UNL     1       4.729   3.380  19.366  0.00  0.00    +0.000 A 
ATOM      5  C   UNL     1       5.080   4.709  19.085  0.00  0.00    +0.000 A 
ATOM      6  C   UNL     1       4.176   5.733  19.439  0.00  0.00    +0.000 A 
ENDROOT
BRANCH   1  18
ATOM      7  C   UNL     1      -0.848  12.534  19.349  0.00  0.00    +0.000 C 
ATOM      8  C   UNL     1      -0.808  11.770  20.634  0.00  0.00    +0.000 A 
ATOM      9  C   UNL     1      -1.479  12.253  21.771  0.00  0.00    +0.000 A 
ATOM     10  C   UNL     1      -1.466  11.547  22.984  0.00  0.00    +0.000 A 
ATOM     11  C   UNL     1      -0.776  10.339  23.094  0.00  0.00    +0.000 A 
ATOM     12  C   UNL     1      -0.116   9.856  21.976  0.00  0.00    +0.000 A 
ATOM     13  C   UNL     1      -0.124  10.561  20.763  0.00  0.00    +0.000 A 
ATOM     14  C   UNL     1       0.679   9.805  19.745  0.00  0.00    +0.000 C 
ATOM     15  N   UNL     1       1.102   8.591  20.452  0.00  0.00    +0.000 N 
ATOM     16  C   UNL     1       1.901   7.666  19.816  0.00  0.00    +0.000 C 
ATOM     17  O   UNL     1       2.306   7.878  18.675  0.00  0.00    +0.000 OA
ATOM     18  N   UNL     1       2.161   6.520  20.547  0.00  0.00    +0.000 N 
ATOM     19  C   UNL     1       0.664   8.588  21.843  0.00  0.00    +0.000 C 
ATOM     20  H   UNL     1       1.521   6.318  21.298  0.00  0.00    +0.000 HD
ENDBRANCH   1  18
BRANCH   5  21
ATOM     21  C   UNL     1       6.470   5.043  18.540  0.00  0.00    +0.000 C 
ATOM     22  C   UNL     1       7.417   5.542  19.639  0.00  0.00    +0.000 C 
BRANCH  21  23
ATOM     23  C   UNL     1       6.311   6.077  17.400  0.00  0.00    +0.000 C 
BRANCH  23  24
ATOM     24  C   UNL     1       6.580   5.519  16.045  0.00  0.00    +0.000 A 
ATOM     25  N   UNL     1       7.645   5.749  15.303  0.00  0.00    +0.000 NA
ATOM     26  N   UNL     1       7.523   5.026  14.140  0.00  0.00    +0.000 NA
ATOM     27  C   UNL     1       6.390   4.367  14.198  0.00  0.00    +0.000 A 
ATOM     28  N   UNL     1       5.761   4.649  15.371  0.00  0.00    +0.000 N 
ATOM     29  C   UNL     1       4.492   4.122  15.795  0.00  0.00    +0.000 C 
ENDBRANCH  23  24
ENDBRANCH  21  23
ENDBRANCH   5  21
TORSDOF 4
ENDMDL
MODEL 5
REMARK VINA RESULT:      -8.8      3.913      7.326
REMARK  Name = 
REMARK  7 active torsions:
REMARK  status: ('A' for Active; 'I' for Inactive)
REMARK    1  A    between atoms: C_1  and  C_2
REMARK    2  A    between atoms: N_12  and  C_13
REMARK    3  A    between atoms: C_17  and  C_18
REMARK    4  A    between atoms: C_18  and  C_19
REMARK    5  A    between atoms: C_18  and  C_20
REMARK    6  A    between atoms: C_20  and  C_21
REMARK    7  A    between atoms: N_25  and  C_26
REMARK                            x       y       z     vdW  Elec       q    Type
REMARK                         _______ _______ _______ _____ _____    ______ ____
ROOT
ATOM      1  C   UNL     1       3.143   5.279  18.444  0.00  0.00    +0.000 A 
ATOM      2  C   UNL     1       3.127   3.921  18.770  0.00  0.00    +0.000 A 
ATOM      3  C   UNL     1       3.877   3.004  18.034  0.00  0.00    +0.000 A 
ATOM      4  C   UNL     1       4.673   3.438  16.978  0.00  0.00    +0.000 A 
ATOM      5  C   UNL     1       4.733   4.798  16.639  0.00  0.00    +0.000 A 
ATOM      6  C   UNL     1       3.923   5.706  17.354  0.00  0.00    +0.000 A 
ENDROOT
BRANCH   1  18
ATOM      7  C   UNL     1      -0.139  12.543  19.892  0.00  0.00    +0.000 C 
ATOM      8  C   UNL     1      -0.119  11.443  20.907  0.00  0.00    +0.000 A 
ATOM      9  C   UNL     1      -0.711  11.626  22.168  0.00  0.00    +0.000 A 
ATOM     10  C   UNL     1      -0.715  10.604  23.130  0.00  0.00    +0.000 A 
ATOM     11  C   UNL     1      -0.121   9.371  22.858  0.00  0.00    +0.000 A 
ATOM     12  C   UNL     1       0.461   9.184  21.615  0.00  0.00    +0.000 A 
ATOM     13  C   UNL     1       0.470  10.204  20.651  0.00  0.00    +0.000 A 
ATOM     14  C   UNL     1       1.176   9.718  19.420  0.00  0.00    +0.000 C 
ATOM     15  N   UNL     1       1.523   8.327  19.731  0.00  0.00    +0.000 N 
ATOM     16  C   UNL     1       2.225   7.570  18.819  0.00  0.00    +0.000 C 
ATOM     17  O   UNL     1       2.607   8.071  17.764  0.00  0.00    +0.000 OA
ATOM     18  N   UNL     1       2.416   6.248  19.182  0.00  0.00    +0.000 N 
ATOM     19  C   UNL     1       1.133   7.957  21.087  0.00  0.00    +0.000 C 
ATOM     20  H   UNL     1       1.787   5.885  19.878  0.00  0.00    +0.000 HD
ENDBRANCH   1  18
BRANCH   5  21
ATOM     21  C   UNL     1       5.757   5.296  15.618  0.00  0.00    +0.000 C 
ATOM     22  C   UNL     1       5.437   4.813  14.196  0.00  0.00    +0.000 C 
BRANCH  21  23
ATOM     23  C   UNL     1       7.164   4.846  16.078  0.00  0.00    +0.000 C 
BRANCH  23  24
ATOM     24  C   UNL     1       7.493   5.248  17.475  0.00  0.00    +0.000 A 
ATOM     25  N   UNL     1       7.735   4.435  18.484  0.00  0.00    +0.000 NA
ATOM     26  N   UNL     1       8.025   5.199  19.590  0.00  0.00    +0.000 NA
ATOM     27  C   UNL     1       7.959   6.459  19.233  0.00  0.00    +0.000 A 
ATOM     28  N   UNL     1       7.623   6.540  17.917  0.00  0.00    +0.000 N 
ATOM     29  C   UNL     1       7.449   7.752  17.164  0.00  0.00    +0.000 C 
ENDBRANCH  23  24
ENDBRANCH  21  23
ENDBRANCH   5  21
TORSDOF 4
ENDMDL
MODEL 6
REMARK VINA RESULT:      -8.6      0.959      1.289
REMARK  Name = 
REMARK  7 active torsions:
REMARK  status: ('A' for Active; 'I' for Inactive)
REMARK    1  A    between atoms: C_1  and  C_2
REMARK    2  A    between atoms: N_12  and  C_13
REMARK    3  A    between atoms: C_17  and  C_18
REMARK    4  A    between atoms: C_18  and  C_19
REMARK    5  A    between atoms: C_18  and  C_20
REMARK    6  A    between atoms: C_20  and  C_21
REMARK    7  A    between atoms: N_25  and  C_26
REMARK                            x       y       z     vdW  Elec       q    Type
REMARK                         _______ _______ _______ _____ _____    ______ ____
ROOT
ATOM      1  C   UNL     1       6.308   7.197  17.171  0.00  0.00    +0.000 A 
ATOM      2  C   UNL     1       6.798   6.081  16.491  0.00  0.00    +0.000 A 
ATOM      3  C   UNL     1       6.018   4.934  16.349  0.00  0.00    +0.000 A 
ATOM      4  C   UNL     1       4.726   4.899  16.867  0.00  0.00    +0.000 A 
ATOM      5  C   UNL     1       4.192   6.011  17.534  0.00  0.00    +0.000 A 
ATOM      6  C   UNL     1       5.015   7.142  17.721  0.00  0.00    +0.000 A 
ENDROOT
BRANCH   1  18
ATOM      7  C   UNL     1      12.239  11.905  20.053  0.00  0.00    +0.000 C 
ATOM      8  C   UNL     1      11.128  12.429  19.198  0.00  0.00    +0.000 A 
ATOM      9  C   UNL     1      11.090  13.784  18.830  0.00  0.00    +0.000 A 
ATOM     10  C   UNL     1      10.064  14.295  18.019  0.00  0.00    +0.000 A 
ATOM     11  C   UNL     1       9.045  13.461  17.557  0.00  0.00    +0.000 A 
ATOM     12  C   UNL     1       9.079  12.124  17.913  0.00  0.00    +0.000 A 
ATOM     13  C   UNL     1      10.100  11.610  18.727  0.00  0.00    +0.000 A 
ATOM     14  C   UNL     1       9.867  10.145  18.952  0.00  0.00    +0.000 C 
ATOM     15  N   UNL     1       8.666   9.848  18.163  0.00  0.00    +0.000 N 
ATOM     16  C   UNL     1       8.136   8.577  18.166  0.00  0.00    +0.000 C 
ATOM     17  O   UNL     1       8.634   7.700  18.869  0.00  0.00    +0.000 OA
ATOM     18  N   UNL     1       7.059   8.392  17.316  0.00  0.00    +0.000 N 
ATOM     19  C   UNL     1       8.121  11.042  17.528  0.00  0.00    +0.000 C 
ATOM     20  H   UNL     1       6.964   9.061  16.570  0.00  0.00    +0.000 HD
ENDBRANCH   1  18
BRANCH   5  21
ATOM     21  C   UNL     1       2.713   6.044  17.920  0.00  0.00    +0.000 C 
ATOM     22  C   UNL     1       2.165   7.476  17.993  0.00  0.00    +0.000 C 
BRANCH  21  23
ATOM     23  C   UNL     1       2.541   5.291  19.261  0.00  0.00    +0.000 C 
BRANCH  23  24
ATOM     24  C   UNL     1       1.810   3.999  19.132  0.00  0.00    +0.000 A 
ATOM     25  N   UNL     1       1.295   3.500  18.026  0.00  0.00    +0.000 NA
ATOM     26  N   UNL     1       0.734   2.281  18.324  0.00  0.00    +0.000 NA
ATOM     27  C   UNL     1       0.922   2.059  19.604  0.00  0.00    +0.000 A 
ATOM     28  N   UNL     1       1.587   3.110  20.153  0.00  0.00    +0.000 N 
ATOM     29  C   UNL     1       1.971   3.237  21.533  0.00  0.00    +0.000 C 
ENDBRANCH  23  24
ENDBRANCH  21  23
ENDBRANCH   5  21
TORSDOF 4
ENDMDL
MODEL 7
REMARK VINA RESULT:      -8.6      1.489      2.028
REMARK  Name = 
REMARK  7 active torsions:
REMARK  status: ('A' for Active; 'I' for Inactive)
REMARK    1  A    between atoms: C_1  and  C_2
REMARK    2  A    between atoms: N_12  and  C_13
REMARK    3  A    between atoms: C_17  and  C_18
REMARK    4  A    between atoms: C_18  and  C_19
REMARK    5  A    between atoms: C_18  and  C_20
REMARK    6  A    between atoms: C_20  and  C_21
REMARK    7  A    between atoms: N_25  and  C_26
REMARK                            x       y       z     vdW  Elec       q    Type
REMARK                         _______ _______ _______ _____ _____    ______ ____
ROOT
ATOM      1  C   UNL     1       6.628   6.270  16.736  0.00  0.00    +0.000 A 
ATOM      2  C   UNL     1       7.006   5.514  15.625  0.00  0.00    +0.000 A 
ATOM      3  C   UNL     1       6.454   4.253  15.402  0.00  0.00    +0.000 A 
ATOM      4  C   UNL     1       5.497   3.743  16.274  0.00  0.00    +0.000 A 
ATOM      5  C   UNL     1       5.074   4.487  17.386  0.00  0.00    +0.000 A 
ATOM      6  C   UNL     1       5.685   5.735  17.632  0.00  0.00    +0.000 A 
ENDROOT
BRANCH   1  18
ATOM      7  C   UNL     1      11.086  11.841  20.574  0.00  0.00    +0.000 C 
ATOM      8  C   UNL     1      10.102  12.186  19.501  0.00  0.00    +0.000 A 
ATOM      9  C   UNL     1       9.934  13.518  19.089  0.00  0.00    +0.000 A 
ATOM     10  C   UNL     1       9.026  13.863  18.075  0.00  0.00    +0.000 A 
ATOM     11  C   UNL     1       8.256  12.882  17.450  0.00  0.00    +0.000 A 
ATOM     12  C   UNL     1       8.420  11.566  17.848  0.00  0.00    +0.000 A 
ATOM     13  C   UNL     1       9.324  11.218  18.864  0.00  0.00    +0.000 A 
ATOM     14  C   UNL     1       9.274   9.735  19.085  0.00  0.00    +0.000 C 
ATOM     15  N   UNL     1       8.314   9.255  18.085  0.00  0.00    +0.000 N 
ATOM     16  C   UNL     1       7.991   7.917  18.025  0.00  0.00    +0.000 C 
ATOM     17  O   UNL     1       8.466   7.129  18.840  0.00  0.00    +0.000 OA
ATOM     18  N   UNL     1       7.146   7.567  16.987  0.00  0.00    +0.000 N 
ATOM     19  C   UNL     1       7.732  10.350  17.317  0.00  0.00    +0.000 C 
ATOM     20  H   UNL     1       7.102   8.212  16.215  0.00  0.00    +0.000 HD
ENDBRANCH   1  18
BRANCH   5  21
ATOM     21  C   UNL     1       3.884   4.017  18.223  0.00  0.00    +0.000 C 
ATOM     22  C   UNL     1       3.583   2.527  18.015  0.00  0.00    +0.000 C 
BRANCH  21  23
ATOM     23  C   UNL     1       2.665   4.906  17.879  0.00  0.00    +0.000 C 
BRANCH  23  24
ATOM     24  C   UNL     1       2.337   5.906  18.935  0.00  0.00    +0.000 A 
ATOM     25  N   UNL     1       2.519   7.209  18.859  0.00  0.00    +0.000 NA
ATOM     26  N   UNL     1       2.061   7.775  20.025  0.00  0.00    +0.000 NA
ATOM     27  C   UNL     1       1.606   6.808  20.786  0.00  0.00    +0.000 A 
ATOM     28  N   UNL     1       1.763   5.618  20.147  0.00  0.00    +0.000 N 
ATOM     29  C   UNL     1       1.389   4.329  20.663  0.00  0.00    +0.000 C 
ENDBRANCH  23  24
ENDBRANCH  21  23
ENDBRANCH   5  21
TORSDOF 4
ENDMDL
MODEL 8
REMARK VINA RESULT:      -8.5      4.072      7.605
REMARK  Name = 
REMARK  7 active torsions:
REMARK  status: ('A' for Active; 'I' for Inactive)
REMARK    1  A    between atoms: C_1  and  C_2
REMARK    2  A    between atoms: N_12  and  C_13
REMARK    3  A    between atoms: C_17  and  C_18
REMARK    4  A    between atoms: C_18  and  C_19
REMARK    5  A    between atoms: C_18  and  C_20
REMARK    6  A    between atoms: C_20  and  C_21
REMARK    7  A    between atoms: N_25  and  C_26
REMARK                            x       y       z     vdW  Elec       q    Type
REMARK                         _______ _______ _______ _____ _____    ______ ____
ROOT
ATOM      1  C   UNL     1       3.047   5.548  19.039  0.00  0.00    +0.000 A 
ATOM      2  C   UNL     1       3.173   4.260  19.562  0.00  0.00    +0.000 A 
ATOM      3  C   UNL     1       3.972   3.309  18.927  0.00  0.00    +0.000 A 
ATOM      4  C   UNL     1       4.674   3.644  17.772  0.00  0.00    +0.000 A 
ATOM      5  C   UNL     1       4.590   4.937  17.233  0.00  0.00    +0.000 A 
ATOM      6  C   UNL     1       3.732   5.869  17.854  0.00  0.00    +0.000 A 
ENDROOT
BRANCH   1  18
ATOM      7  C   UNL     1      -0.453  12.818  19.781  0.00  0.00    +0.000 C 
ATOM      8  C   UNL     1      -0.457  11.798  20.876  0.00  0.00    +0.000 A 
ATOM      9  C   UNL     1      -1.110  12.060  22.092  0.00  0.00    +0.000 A 
ATOM     10  C   UNL     1      -1.137  11.114  23.129  0.00  0.00    +0.000 A 
ATOM     11  C   UNL     1      -0.505   9.879  22.977  0.00  0.00    +0.000 A 
ATOM     12  C   UNL     1       0.138   9.613  21.780  0.00  0.00    +0.000 A 
ATOM     13  C   UNL     1       0.170  10.558  20.743  0.00  0.00    +0.000 A 
ATOM     14  C   UNL     1       0.943   9.998  19.585  0.00  0.00    +0.000 C 
ATOM     15  N   UNL     1       1.304   8.643  20.017  0.00  0.00    +0.000 N 
ATOM     16  C   UNL     1       2.063   7.837  19.197  0.00  0.00    +0.000 C 
ATOM     17  O   UNL     1       2.484   8.267  18.124  0.00  0.00    +0.000 OA
ATOM     18  N   UNL     1       2.265   6.551  19.667  0.00  0.00    +0.000 N 
ATOM     19  C   UNL     1       0.859   8.367  21.378  0.00  0.00    +0.000 C 
ATOM     20  H   UNL     1       1.612   6.226  20.361  0.00  0.00    +0.000 HD
ENDBRANCH   1  18
BRANCH   5  21
ATOM     21  C   UNL     1       5.515   5.359  16.091  0.00  0.00    +0.000 C 
ATOM     22  C   UNL     1       5.274   4.537  14.818  0.00  0.00    +0.000 C 
BRANCH  21  23
ATOM     23  C   UNL     1       6.978   5.250  16.581  0.00  0.00    +0.000 C 
BRANCH  23  24
ATOM     24  C   UNL     1       7.471   6.475  17.271  0.00  0.00    +0.000 A 
ATOM     25  N   UNL     1       7.577   7.678  16.744  0.00  0.00    +0.000 NA
ATOM     26  N   UNL     1       8.042   8.534  17.714  0.00  0.00    +0.000 NA
ATOM     27  C   UNL     1       8.207   7.837  18.814  0.00  0.00    +0.000 A 
ATOM     28  N   UNL     1       7.867   6.540  18.583  0.00  0.00    +0.000 N 
ATOM     29  C   UNL     1       7.919   5.471  19.543  0.00  0.00    +0.000 C 
ENDBRANCH  23  24
ENDBRANCH  21  23
ENDBRANCH   5  21
TORSDOF 4
ENDMDL
MODEL 9
REMARK VINA RESULT:      -8.5      5.001      7.473
REMARK  Name = 
REMARK  7 active torsions:
REMARK  status: ('A' for Active; 'I' for Inactive)
REMARK    1  A    between atoms: C_1  and  C_2
REMARK    2  A    between atoms: N_12  and  C_13
REMARK    3  A    between atoms: C_17  and  C_18
REMARK    4  A    between atoms: C_18  and  C_19
REMARK    5  A    between atoms: C_18  and  C_20
REMARK    6  A    between atoms: C_20  and  C_21
REMARK    7  A    between atoms: N_25  and  C_26
REMARK                            x       y       z     vdW  Elec       q    Type
REMARK                         _______ _______ _______ _____ _____    ______ ____
ROOT
ATOM      1  C   UNL     1       1.769   5.067  20.581  0.00  0.00    +0.000 A 
ATOM      2  C   UNL     1       2.059   4.109  21.554  0.00  0.00    +0.000 A 
ATOM      3  C   UNL     1       2.624   2.884  21.200  0.00  0.00    +0.000 A 
ATOM      4  C   UNL     1       2.928   2.612  19.869  0.00  0.00    +0.000 A 
ATOM      5  C   UNL     1       2.673   3.561  18.869  0.00  0.00    +0.000 A 
ATOM      6  C   UNL     1       2.048   4.772  19.234  0.00  0.00    +0.000 A 
ENDROOT
BRANCH   1  18
ATOM      7  C   UNL     1       0.751  13.077  19.903  0.00  0.00    +0.000 C 
ATOM      8  C   UNL     1       0.127  12.267  20.996  0.00  0.00    +0.000 A 
ATOM      9  C   UNL     1      -0.703  12.879  21.950  0.00  0.00    +0.000 A 
ATOM     10  C   UNL     1      -1.309  12.137  22.977  0.00  0.00    +0.000 A 
ATOM     11  C   UNL     1      -1.095  10.762  23.079  0.00  0.00    +0.000 A 
ATOM     12  C   UNL     1      -0.281  10.153  22.139  0.00  0.00    +0.000 A 
ATOM     13  C   UNL     1       0.330  10.891  21.114  0.00  0.00    +0.000 A 
ATOM     14  C   UNL     1       1.156   9.971  20.265  0.00  0.00    +0.000 C 
ATOM     15  N   UNL     1       0.931   8.645  20.849  0.00  0.00    +0.000 N 
ATOM     16  C   UNL     1       1.577   7.544  20.330  0.00  0.00    +0.000 C 
ATOM     17  O   UNL     1       2.382   7.675  19.410  0.00  0.00    +0.000 OA
ATOM     18  N   UNL     1       1.218   6.335  20.901  0.00  0.00    +0.000 N 
ATOM     19  C   UNL     1       0.077   8.705  22.029  0.00  0.00    +0.000 C 
ATOM     20  H   UNL     1       0.336   6.318  21.385  0.00  0.00    +0.000 HD
ENDBRANCH   1  18
BRANCH   5  21
ATOM     21  C   UNL     1       3.192   3.344  17.447  0.00  0.00    +0.000 C 
ATOM     22  C   UNL     1       4.045   2.073  17.330  0.00  0.00    +0.000 C 
BRANCH  21  23
ATOM     23  C   UNL     1       3.974   4.607  17.014  0.00  0.00    +0.000 C 
BRANCH  23  24
ATOM     24  C   UNL     1       5.380   4.637  17.505  0.00  0.00    +0.000 A 
ATOM     25  N   UNL     1       5.766   4.779  18.758  0.00  0.00    +0.000 NA
ATOM     26  N   UNL     1       7.139   4.725  18.793  0.00  0.00    +0.000 NA
ATOM     27  C   UNL     1       7.563   4.547  17.564  0.00  0.00    +0.000 A 
ATOM     28  N   UNL     1       6.497   4.492  16.721  0.00  0.00    +0.000 N 
ATOM     29  C   UNL     1       6.556   4.312  15.296  0.00  0.00    +0.000 C 
ENDBRANCH  23  24
ENDBRANCH  21  23
ENDBRANCH   5  21
TORSDOF 4
ENDMDL
