MODEL 1
REMARK VINA RESULT:     -10.2      0.000      0.000
REMARK  Name = 
REMARK  10 active torsions:
REMARK  status: ('A' for Active; 'I' for Inactive)
REMARK    1  A    between atoms: C_1  and  N_2
REMARK    2  A    between atoms: C_6  and  C_7
REMARK    3  A    between atoms: C_7  and  C_10
REMARK    4  A    between atoms: C_10  and  C_11
REMARK    5  A    between atoms: C_10  and  C_13
REMARK    6  A    between atoms: C_17  and  N_18
REMARK    7  A    between atoms: C_23  and  C_24
REMARK    8  A    between atoms: C_24  and  N_25
REMARK    9  A    between atoms: C_28  and  C_29
REMARK   10  A    between atoms: C_33  and  C_34
REMARK                            x       y       z     vdW  Elec       q    Type
REMARK                         _______ _______ _______ _____ _____    ______ ____
ROOT
ATOM      1  N   UNL     1       2.335   7.318  19.395  0.00  0.00    +0.000 N 
ATOM      2  C   UNL     1       1.595   7.710  20.567  0.00  0.00    +0.000 C 
ATOM      3  C   UNL     1       0.950   8.990  20.210  0.00  0.00    +0.000 A 
ATOM      4  C   UNL     1       1.280   9.349  18.907  0.00  0.00    +0.000 A 
ATOM      5  C   UNL     1       0.765  10.522  18.358  0.00  0.00    +0.000 A 
ATOM      6  C   UNL     1      -0.095  11.325  19.155  0.00  0.00    +0.000 A 
ATOM      7  C   UNL     1      -0.389  10.926  20.481  0.00  0.00    +0.000 A 
ATOM      8  C   UNL     1       0.124   9.751  21.029  0.00  0.00    +0.000 A 
ATOM      9  C   UNL     1       2.190   8.270  18.363  0.00  0.00    +0.000 C 
ATOM     10  O   UNL     1       2.674   8.293  17.240  0.00  0.00    +0.000 OA
ENDROOT
BRANCH   1  15
ATOM     11  C   UNL     1       5.369   5.108  19.023  0.00  0.00    +0.000 A 
ATOM     12  C   UNL     1       4.833   3.865  19.365  0.00  0.00    +0.000 A 
ATOM     13  C   UNL     1       3.491   3.758  19.774  0.00  0.00    +0.000 A 
ATOM     14  C   UNL     1       2.637   4.880  19.808  0.00  0.00    +0.000 A 
ATOM     15  C   UNL     1       3.136   6.134  19.483  0.00  0.00    +0.000 A 
ATOM     16  C   UNL     1       4.516   6.220  19.155  0.00  0.00    +0.000 A 
BRANCH  11  17
ATOM     17  C   UNL     1       6.724   5.309  18.301  0.00  0.00    +0.000 C 
ATOM     18  C   UNL     1       7.708   5.800  19.379  0.00  0.00    +0.000 C 
ATOM     19  F   UNL     1       7.233   4.087  17.884  0.00  0.00    +0.000 F 
BRANCH  17  20
ATOM     20  C   UNL     1       6.717   6.223  17.035  0.00  0.00    +0.000 C 
ATOM     21  F   UNL     1       7.845   6.991  17.015  0.00  0.00    +0.000 F 
ATOM     22  F   UNL     1       5.682   7.110  17.125  0.00  0.00    +0.000 F 
BRANCH  20  28
ATOM     23  C   UNL     1       4.356   4.303  15.946  0.00  0.00    +0.000 C 
ATOM     24  N   UNL     1       5.634   4.582  15.345  0.00  0.00    +0.000 N 
ATOM     25  C   UNL     1       6.069   4.007  14.184  0.00  0.00    +0.000 A 
ATOM     26  N   UNL     1       7.228   4.515  13.850  0.00  0.00    +0.000 NA
ATOM     27  N   UNL     1       7.577   5.418  14.819  0.00  0.00    +0.000 NA
ATOM     28  C   UNL     1       6.634   5.436  15.751  0.00  0.00    +0.000 A 
ENDBRANCH  20  28
ENDBRANCH  17  20
ENDBRANCH  11  17
ENDBRANCH   1  15
BRANCH   8  29
ATOM     29  C   UNL     1      -0.231   9.334  22.431  0.00  0.00    +0.000 C 
ATOM     30  F   UNL     1      -1.023  10.230  23.089  0.00  0.00    +0.000 F 
ATOM     31  F   UNL     1      -0.907   8.155  22.472  0.00  0.00    +0.000 F 
ATOM     32  F   UNL     1       0.866   9.178  23.217  0.00  0.00    +0.000 F 
ENDBRANCH   8  29
BRANCH   6  33
ATOM     33  C   UNL     1      -0.817  12.559  18.625  0.00  0.00    +0.000 C 
BRANCH  33  34
ATOM     34  N   UNL     1      -2.129  12.261  18.024  0.00  0.00    +0.000 NA
ATOM     35  C   UNL     1      -2.109  11.135  17.086  0.00  0.00    +0.000 C 
ATOM     36  C   UNL     1      -3.210  10.172  17.515  0.00  0.00    +0.000 C 
ATOM     37  C   UNL     1      -4.125  10.981  18.418  0.00  0.00    +0.000 C 
ATOM     38  C   UNL     1      -3.183  12.017  19.022  0.00  0.00    +0.000 C 
BRANCH  37  39
ATOM     39  C   UNL     1      -5.238  11.595  17.676  0.00  0.00    +0.000 C 
ATOM     40  N   UNL     1      -6.113  12.121  17.126  0.00  0.00    +0.000 NA
ENDBRANCH  37  39
ENDBRANCH  33  34
ENDBRANCH   6  33
TORSDOF 8
ENDMDL
MODEL 2
REMARK VINA RESULT:     -10.0      2.494      4.021
REMARK  Name = 
REMARK  10 active torsions:
REMARK  status: ('A' for Active; 'I' for Inactive)
REMARK    1  A    between atoms: C_1  and  N_2
REMARK    2  A    between atoms: C_6  and  C_7
REMARK    3  A    between atoms: C_7  and  C_10
REMARK    4  A    between atoms: C_10  and  C_11
REMARK    5  A    between atoms: C_10  and  C_13
REMARK    6  A    between atoms: C_17  and  N_18
REMARK    7  A    between atoms: C_23  and  C_24
REMARK    8  A    between atoms: C_24  and  N_25
REMARK    9  A    between atoms: C_28  and  C_29
REMARK   10  A    between atoms: C_33  and  C_34
REMARK                            x       y       z     vdW  Elec       q    Type
REMARK                         _______ _______ _______ _____ _____    ______ ____
ROOT
ATOM      1  N   UNL     1       2.048   7.917  19.096  0.00  0.00    +0.000 N 
ATOM      2  C   UNL     1       1.439   8.174  20.376  0.00  0.00    +0.000 C 
ATOM      3  C   UNL     1       0.902   9.547  20.282  0.00  0.00    +0.000 A 
ATOM      4  C   UNL     1       1.173  10.086  19.028  0.00  0.00    +0.000 A 
ATOM      5  C   UNL     1       0.741  11.373  18.717  0.00  0.00    +0.000 A 
ATOM      6  C   UNL     1       0.027  12.107  19.703  0.00  0.00    +0.000 A 
ATOM      7  C   UNL     1      -0.210  11.523  20.970  0.00  0.00    +0.000 A 
ATOM      8  C   UNL     1       0.220  10.233  21.280  0.00  0.00    +0.000 A 
ATOM      9  C   UNL     1       1.926   9.034  18.244  0.00  0.00    +0.000 C 
ATOM     10  O   UNL     1       2.327   9.200  17.100  0.00  0.00    +0.000 OA
ENDROOT
BRANCH   1  15
ATOM     11  C   UNL     1       4.372   5.377  17.553  0.00  0.00    +0.000 A 
ATOM     12  C   UNL     1       4.029   4.233  18.275  0.00  0.00    +0.000 A 
ATOM     13  C   UNL     1       3.077   4.304  19.309  0.00  0.00    +0.000 A 
ATOM     14  C   UNL     1       2.409   5.507  19.617  0.00  0.00    +0.000 A 
ATOM     15  C   UNL     1       2.729   6.668  18.927  0.00  0.00    +0.000 A 
ATOM     16  C   UNL     1       3.755   6.579  17.946  0.00  0.00    +0.000 A 
BRANCH  11  17
ATOM     17  C   UNL     1       5.181   5.371  16.233  0.00  0.00    +0.000 C 
ATOM     18  C   UNL     1       4.442   4.400  15.291  0.00  0.00    +0.000 C 
ATOM     19  F   UNL     1       5.092   6.608  15.609  0.00  0.00    +0.000 F 
BRANCH  17  20
ATOM     20  C   UNL     1       6.706   5.056  16.343  0.00  0.00    +0.000 C 
ATOM     21  F   UNL     1       7.383   5.709  15.355  0.00  0.00    +0.000 F 
ATOM     22  F   UNL     1       6.910   3.727  16.099  0.00  0.00    +0.000 F 
BRANCH  20  28
ATOM     23  C   UNL     1       7.519   7.978  17.459  0.00  0.00    +0.000 C 
ATOM     24  N   UNL     1       7.672   6.699  18.101  0.00  0.00    +0.000 N 
ATOM     25  C   UNL     1       8.256   6.528  19.324  0.00  0.00    +0.000 A 
ATOM     26  N   UNL     1       8.178   5.269  19.675  0.00  0.00    +0.000 NA
ATOM     27  N   UNL     1       7.559   4.594  18.657  0.00  0.00    +0.000 NA
ATOM     28  C   UNL     1       7.284   5.447  17.680  0.00  0.00    +0.000 A 
ENDBRANCH  20  28
ENDBRANCH  17  20
ENDBRANCH  11  17
ENDBRANCH   1  15
BRANCH   8  29
ATOM     29  C   UNL     1      -0.073   9.624  22.625  0.00  0.00    +0.000 C 
ATOM     30  F   UNL     1       1.043   9.274  23.327  0.00  0.00    +0.000 F 
ATOM     31  F   UNL     1      -0.765  10.462  23.441  0.00  0.00    +0.000 F 
ATOM     32  F   UNL     1      -0.809   8.486  22.526  0.00  0.00    +0.000 F 
ENDBRANCH   8  29
BRANCH   6  33
ATOM     33  C   UNL     1      -0.603  13.471  19.439  0.00  0.00    +0.000 C 
BRANCH  33  34
ATOM     34  N   UNL     1       0.368  14.497  19.018  0.00  0.00    +0.000 NA
ATOM     35  C   UNL     1      -0.243  15.783  18.669  0.00  0.00    +0.000 C 
ATOM     36  C   UNL     1       0.485  16.859  19.468  0.00  0.00    +0.000 C 
ATOM     37  C   UNL     1       1.786  16.217  19.918  0.00  0.00    +0.000 C 
ATOM     38  C   UNL     1       1.425  14.738  20.014  0.00  0.00    +0.000 C 
BRANCH  37  39
ATOM     39  C   UNL     1       2.886  16.468  18.973  0.00  0.00    +0.000 C 
ATOM     40  N   UNL     1       3.754  16.719  18.245  0.00  0.00    +0.000 NA
ENDBRANCH  37  39
ENDBRANCH  33  34
ENDBRANCH   6  33
TORSDOF 8
ENDMDL
MODEL 3
REMARK VINA RESULT:     -10.0      2.258      3.807
REMARK  Name = 
REMARK  10 active torsions:
REMARK  status: ('A' for Active; 'I' for Inactive)
REMARK    1  A    between atoms: C_1  and  N_2
REMARK    2  A    between atoms: C_6  and  C_7
REMARK    3  A    between atoms: C_7  and  C_10
REMARK    4  A    between atoms: C_10  and  C_11
REMARK    5  A    between atoms: C_10  and  C_13
REMARK    6  A    between atoms: C_17  and  N_18
REMARK    7  A    between atoms: C_23  and  C_24
REMARK    8  A    between atoms: C_24  and  N_25
REMARK    9  A    between atoms: C_28  and  C_29
REMARK   10  A    between atoms: C_33  and  C_34
REMARK                            x       y       z     vdW  Elec       q    Type
REMARK                         _______ _______ _______ _____ _____    ______ ____
ROOT
ATOM      1  N   UNL     1       2.018   7.765  19.393  0.00  0.00    +0.000 N 
ATOM      2  C   UNL     1       1.368   8.109  20.632  0.00  0.00    +0.000 C 
ATOM      3  C   UNL     1       0.782   9.446  20.404  0.00  0.00    +0.000 A 
ATOM      4  C   UNL     1       1.062   9.883  19.113  0.00  0.00    +0.000 A 
ATOM      5  C   UNL     1       0.589  11.120  18.681  0.00  0.00    +0.000 A 
ATOM      6  C   UNL     1      -0.177  11.908  19.582  0.00  0.00    +0.000 A 
ATOM      7  C   UNL     1      -0.422  11.427  20.891  0.00  0.00    +0.000 A 
ATOM      8  C   UNL     1       0.049  10.189  21.323  0.00  0.00    +0.000 A 
ATOM      9  C   UNL     1       1.875   8.797  18.442  0.00  0.00    +0.000 C 
ATOM     10  O   UNL     1       2.297   8.878  17.297  0.00  0.00    +0.000 OA
ENDROOT
BRANCH   1  15
ATOM     11  C   UNL     1       4.417   5.163  18.088  0.00  0.00    +0.000 A 
ATOM     12  C   UNL     1       4.143   4.097  18.946  0.00  0.00    +0.000 A 
ATOM     13  C   UNL     1       3.213   4.248  19.991  0.00  0.00    +0.000 A 
ATOM     14  C   UNL     1       2.499   5.450  20.177  0.00  0.00    +0.000 A 
ATOM     15  C   UNL     1       2.750   6.535  19.349  0.00  0.00    +0.000 A 
ATOM     16  C   UNL     1       3.756   6.376  18.357  0.00  0.00    +0.000 A 
BRANCH  11  17
ATOM     17  C   UNL     1       5.195   5.037  16.754  0.00  0.00    +0.000 C 
ATOM     18  C   UNL     1       4.591   3.821  16.028  0.00  0.00    +0.000 C 
ATOM     19  F   UNL     1       4.915   6.119  15.931  0.00  0.00    +0.000 F 
BRANCH  17  20
ATOM     20  C   UNL     1       6.751   4.966  16.852  0.00  0.00    +0.000 C 
ATOM     21  F   UNL     1       7.276   4.651  15.632  0.00  0.00    +0.000 F 
ATOM     22  F   UNL     1       7.104   3.931  17.671  0.00  0.00    +0.000 F 
BRANCH  20  28
ATOM     23  C   UNL     1       8.053   5.685  19.721  0.00  0.00    +0.000 C 
ATOM     24  N   UNL     1       7.858   6.546  18.585  0.00  0.00    +0.000 N 
ATOM     25  C   UNL     1       8.176   7.875  18.574  0.00  0.00    +0.000 A 
ATOM     26  N   UNL     1       7.960   8.369  17.382  0.00  0.00    +0.000 NA
ATOM     27  N   UNL     1       7.466   7.358  16.600  0.00  0.00    +0.000 NA
ATOM     28  C   UNL     1       7.363   6.258  17.333  0.00  0.00    +0.000 A 
ENDBRANCH  20  28
ENDBRANCH  17  20
ENDBRANCH  11  17
ENDBRANCH   1  15
BRANCH   8  29
ATOM     29  C   UNL     1      -0.254   9.688  22.710  0.00  0.00    +0.000 C 
ATOM     30  F   UNL     1      -0.990  10.558  23.462  0.00  0.00    +0.000 F 
ATOM     31  F   UNL     1      -0.960   8.526  22.707  0.00  0.00    +0.000 F 
ATOM     32  F   UNL     1       0.873   9.454  23.432  0.00  0.00    +0.000 F 
ENDBRANCH   8  29
BRANCH   6  33
ATOM     33  C   UNL     1      -0.852  13.217  19.185  0.00  0.00    +0.000 C 
BRANCH  33  34
ATOM     34  N   UNL     1       0.047  14.383  19.240  0.00  0.00    +0.000 NA
ATOM     35  C   UNL     1       0.191  14.957  20.581  0.00  0.00    +0.000 C 
ATOM     36  C   UNL     1       1.685  15.056  20.870  0.00  0.00    +0.000 C 
ATOM     37  C   UNL     1       2.366  14.952  19.517  0.00  0.00    +0.000 C 
ATOM     38  C   UNL     1       1.390  14.107  18.705  0.00  0.00    +0.000 C 
BRANCH  37  39
ATOM     39  C   UNL     1       2.607  16.272  18.912  0.00  0.00    +0.000 C 
ATOM     40  N   UNL     1       2.761  17.299  18.396  0.00  0.00    +0.000 NA
ENDBRANCH  37  39
ENDBRANCH  33  34
ENDBRANCH   6  33
TORSDOF 8
ENDMDL
MODEL 4
REMARK VINA RESULT:     -10.0      1.277      2.219
REMARK  Name = 
REMARK  10 active torsions:
REMARK  status: ('A' for Active; 'I' for Inactive)
REMARK    1  A    between atoms: C_1  and  N_2
REMARK    2  A    between atoms: C_6  and  C_7
REMARK    3  A    between atoms: C_7  and  C_10
REMARK    4  A    between atoms: C_10  and  C_11
REMARK    5  A    between atoms: C_10  and  C_13
REMARK    6  A    between atoms: C_17  and  N_18
REMARK    7  A    between atoms: C_23  and  C_24
REMARK    8  A    between atoms: C_24  and  N_25
REMARK    9  A    between atoms: C_28  and  C_29
REMARK   10  A    between atoms: C_33  and  C_34
REMARK                            x       y       z     vdW  Elec       q    Type
REMARK                         _______ _______ _______ _____ _____    ______ ____
ROOT
ATOM      1  N   UNL     1       2.153   7.576  19.351  0.00  0.00    +0.000 N 
ATOM      2  C   UNL     1       1.507   7.895  20.598  0.00  0.00    +0.000 C 
ATOM      3  C   UNL     1       0.852   9.200  20.374  0.00  0.00    +0.000 A 
ATOM      4  C   UNL     1       1.090   9.643  19.077  0.00  0.00    +0.000 A 
ATOM      5  C   UNL     1       0.551  10.853  18.646  0.00  0.00    +0.000 A 
ATOM      6  C   UNL     1      -0.238  11.608  19.556  0.00  0.00    +0.000 A 
ATOM      7  C   UNL     1      -0.439  11.123  20.870  0.00  0.00    +0.000 A 
ATOM      8  C   UNL     1       0.098   9.911  21.301  0.00  0.00    +0.000 A 
ATOM      9  C   UNL     1       1.944   8.595  18.397  0.00  0.00    +0.000 C 
ATOM     10  O   UNL     1       2.344   8.690  17.246  0.00  0.00    +0.000 OA
ENDROOT
BRANCH   1  15
ATOM     11  C   UNL     1       4.629   5.070  18.002  0.00  0.00    +0.000 A 
ATOM     12  C   UNL     1       4.440   4.009  18.889  0.00  0.00    +0.000 A 
ATOM     13  C   UNL     1       3.544   4.135  19.966  0.00  0.00    +0.000 A 
ATOM     14  C   UNL     1       2.778   5.303  20.158  0.00  0.00    +0.000 A 
ATOM     15  C   UNL     1       2.944   6.383  19.301  0.00  0.00    +0.000 A 
ATOM     16  C   UNL     1       3.918   6.254  18.274  0.00  0.00    +0.000 A 
BRANCH  11  17
ATOM     17  C   UNL     1       5.362   4.956  16.642  0.00  0.00    +0.000 C 
ATOM     18  C   UNL     1       4.805   3.688  15.968  0.00  0.00    +0.000 C 
ATOM     19  F   UNL     1       4.986   5.998  15.805  0.00  0.00    +0.000 F 
BRANCH  17  20
ATOM     20  C   UNL     1       6.922   4.979  16.680  0.00  0.00    +0.000 C 
ATOM     21  F   UNL     1       7.416   4.804  15.420  0.00  0.00    +0.000 F 
ATOM     22  F   UNL     1       7.371   3.904  17.393  0.00  0.00    +0.000 F 
BRANCH  20  28
ATOM     23  C   UNL     1       7.917   5.638  19.683  0.00  0.00    +0.000 C 
ATOM     24  N   UNL     1       7.833   6.524  18.552  0.00  0.00    +0.000 N 
ATOM     25  C   UNL     1       8.139   7.855  18.605  0.00  0.00    +0.000 A 
ATOM     26  N   UNL     1       8.042   8.376  17.408  0.00  0.00    +0.000 NA
ATOM     27  N   UNL     1       7.638   7.381  16.558  0.00  0.00    +0.000 NA
ATOM     28  C   UNL     1       7.470   6.263  17.250  0.00  0.00    +0.000 A 
ENDBRANCH  20  28
ENDBRANCH  17  20
ENDBRANCH  11  17
ENDBRANCH   1  15
BRANCH   8  29
ATOM     29  C   UNL     1      -0.158   9.404  22.695  0.00  0.00    +0.000 C 
ATOM     30  F   UNL     1      -0.922  10.242  23.455  0.00  0.00    +0.000 F 
ATOM     31  F   UNL     1      -0.808   8.210  22.708  0.00  0.00    +0.000 F 
ATOM     32  F   UNL     1       0.991   9.227  23.399  0.00  0.00    +0.000 F 
ENDBRANCH   8  29
BRANCH   6  33
ATOM     33  C   UNL     1      -0.983  12.880  19.163  0.00  0.00    +0.000 C 
BRANCH  33  34
ATOM     34  N   UNL     1      -2.237  12.627  18.433  0.00  0.00    +0.000 NA
ATOM     35  C   UNL     1      -2.130  11.574  17.418  0.00  0.00    +0.000 C 
ATOM     36  C   UNL     1      -3.257  10.580  17.679  0.00  0.00    +0.000 C 
ATOM     37  C   UNL     1      -4.249  11.318  18.560  0.00  0.00    +0.000 C 
ATOM     38  C   UNL     1      -3.369  12.307  19.318  0.00  0.00    +0.000 C 
BRANCH  37  39
ATOM     39  C   UNL     1      -5.301  11.985  17.776  0.00  0.00    +0.000 C 
ATOM     40  N   UNL     1      -6.100  12.502  17.112  0.00  0.00    +0.000 NA
ENDBRANCH  37  39
ENDBRANCH  33  34
ENDBRANCH   6  33
TORSDOF 8
ENDMDL
MODEL 5
REMARK VINA RESULT:      -9.9      1.946      2.947
REMARK  Name = 
REMARK  10 active torsions:
REMARK  status: ('A' for Active; 'I' for Inactive)
REMARK    1  A    between atoms: C_1  and  N_2
REMARK    2  A    between atoms: C_6  and  C_7
REMARK    3  A    between atoms: C_7  and  C_10
REMARK    4  A    between atoms: C_10  and  C_11
REMARK    5  A    between atoms: C_10  and  C_13
REMARK    6  A    between atoms: C_17  and  N_18
REMARK    7  A    between atoms: C_23  and  C_24
REMARK    8  A    between atoms: C_24  and  N_25
REMARK    9  A    between atoms: C_28  and  C_29
REMARK   10  A    between atoms: C_33  and  C_34
REMARK                            x       y       z     vdW  Elec       q    Type
REMARK                         _______ _______ _______ _____ _____    ______ ____
ROOT
ATOM      1  N   UNL     1       2.021   7.782  19.360  0.00  0.00    +0.000 N 
ATOM      2  C   UNL     1       1.457   8.047  20.659  0.00  0.00    +0.000 C 
ATOM      3  C   UNL     1       0.717   9.317  20.509  0.00  0.00    +0.000 A 
ATOM      4  C   UNL     1       0.830   9.790  19.206  0.00  0.00    +0.000 A 
ATOM      5  C   UNL     1       0.193  10.974  18.839  0.00  0.00    +0.000 A 
ATOM      6  C   UNL     1      -0.562  11.672  19.821  0.00  0.00    +0.000 A 
ATOM      7  C   UNL     1      -0.634  11.159  21.138  0.00  0.00    +0.000 A 
ATOM      8  C   UNL     1       0.000   9.973  21.504  0.00  0.00    +0.000 A 
ATOM      9  C   UNL     1       1.684   8.801  18.444  0.00  0.00    +0.000 C 
ATOM     10  O   UNL     1       1.988   8.933  17.267  0.00  0.00    +0.000 OA
ENDROOT
BRANCH   1  15
ATOM     11  C   UNL     1       4.595   5.488  17.831  0.00  0.00    +0.000 A 
ATOM     12  C   UNL     1       4.474   4.368  18.655  0.00  0.00    +0.000 A 
ATOM     13  C   UNL     1       3.590   4.385  19.750  0.00  0.00    +0.000 A 
ATOM     14  C   UNL     1       2.771   5.500  20.022  0.00  0.00    +0.000 A 
ATOM     15  C   UNL     1       2.869   6.635  19.229  0.00  0.00    +0.000 A 
ATOM     16  C   UNL     1       3.831   6.616  18.183  0.00  0.00    +0.000 A 
BRANCH  11  17
ATOM     17  C   UNL     1       5.310   5.491  16.456  0.00  0.00    +0.000 C 
ATOM     18  C   UNL     1       4.684   4.335  15.653  0.00  0.00    +0.000 C 
ATOM     19  F   UNL     1       4.980   6.637  15.746  0.00  0.00    +0.000 F 
BRANCH  17  20
ATOM     20  C   UNL     1       6.869   5.434  16.475  0.00  0.00    +0.000 C 
ATOM     21  F   UNL     1       7.347   5.472  15.197  0.00  0.00    +0.000 F 
ATOM     22  F   UNL     1       7.270   4.225  16.970  0.00  0.00    +0.000 F 
BRANCH  20  28
ATOM     23  C   UNL     1       8.041   5.439  19.486  0.00  0.00    +0.000 C 
ATOM     24  N   UNL     1       7.922   6.542  18.569  0.00  0.00    +0.000 N 
ATOM     25  C   UNL     1       8.267   7.827  18.878  0.00  0.00    +0.000 A 
ATOM     26  N   UNL     1       8.121   8.586  17.821  0.00  0.00    +0.000 NA
ATOM     27  N   UNL     1       7.646   7.796  16.809  0.00  0.00    +0.000 NA
ATOM     28  C   UNL     1       7.483   6.562  17.265  0.00  0.00    +0.000 A 
ENDBRANCH  20  28
ENDBRANCH  17  20
ENDBRANCH  11  17
ENDBRANCH   1  15
BRANCH   8  29
ATOM     29  C   UNL     1      -0.119   9.433  22.904  0.00  0.00    +0.000 C 
ATOM     30  F   UNL     1       1.079   9.270  23.536  0.00  0.00    +0.000 F 
ATOM     31  F   UNL     1      -0.849  10.242  23.718  0.00  0.00    +0.000 F 
ATOM     32  F   UNL     1      -0.714   8.212  22.938  0.00  0.00    +0.000 F 
ENDBRANCH   8  29
BRANCH   6  33
ATOM     33  C   UNL     1      -1.403  12.906  19.509  0.00  0.00    +0.000 C 
BRANCH  33  34
ATOM     34  N   UNL     1      -2.577  13.055  20.386  0.00  0.00    +0.000 NA
ATOM     35  C   UNL     1      -2.792  14.425  20.861  0.00  0.00    +0.000 C 
ATOM     36  C   UNL     1      -4.238  14.791  20.543  0.00  0.00    +0.000 C 
ATOM     37  C   UNL     1      -4.943  13.469  20.296  0.00  0.00    +0.000 C 
ATOM     38  C   UNL     1      -3.825  12.575  19.770  0.00  0.00    +0.000 C 
BRANCH  37  39
ATOM     39  C   UNL     1      -5.567  12.935  21.517  0.00  0.00    +0.000 C 
ATOM     40  N   UNL     1      -6.061  12.464  22.455  0.00  0.00    +0.000 NA
ENDBRANCH  37  39
ENDBRANCH  33  34
ENDBRANCH   6  33
TORSDOF 8
ENDMDL
MODEL 6
REMARK VINA RESULT:      -9.8      1.724      3.015
REMARK  Name = 
REMARK  10 active torsions:
REMARK  status: ('A' for Active; 'I' for Inactive)
REMARK    1  A    between atoms: C_1  and  N_2
REMARK    2  A    between atoms: C_6  and  C_7
REMARK    3  A    between atoms: C_7  and  C_10
REMARK    4  A    between atoms: C_10  and  C_11
REMARK    5  A    between atoms: C_10  and  C_13
REMARK    6  A    between atoms: C_17  and  N_18
REMARK    7  A    between atoms: C_23  and  C_24
REMARK    8  A    between atoms: C_24  and  N_25
REMARK    9  A    between atoms: C_28  and  C_29
REMARK   10  A    between atoms: C_33  and  C_34
REMARK                            x       y       z     vdW  Elec       q    Type
REMARK                         _______ _______ _______ _____ _____    ______ ____
ROOT
ATOM      1  N   UNL     1       2.241   7.412  19.462  0.00  0.00    +0.000 N 
ATOM      2  C   UNL     1       1.554   7.842  20.653  0.00  0.00    +0.000 C 
ATOM      3  C   UNL     1       0.933   9.134  20.297  0.00  0.00    +0.000 A 
ATOM      4  C   UNL     1       1.229   9.465  18.978  0.00  0.00    +0.000 A 
ATOM      5  C   UNL     1       0.728  10.644  18.429  0.00  0.00    +0.000 A 
ATOM      6  C   UNL     1      -0.081  11.483  19.242  0.00  0.00    +0.000 A 
ATOM      7  C   UNL     1      -0.341  11.111  20.583  0.00  0.00    +0.000 A 
ATOM      8  C   UNL     1       0.157   9.931  21.132  0.00  0.00    +0.000 A 
ATOM      9  C   UNL     1       2.089   8.352  18.421  0.00  0.00    +0.000 C 
ATOM     10  O   UNL     1       2.534   8.345  17.283  0.00  0.00    +0.000 OA
ENDROOT
BRANCH   1  15
ATOM     11  C   UNL     1       5.222   5.130  19.091  0.00  0.00    +0.000 A 
ATOM     12  C   UNL     1       4.652   3.897  19.409  0.00  0.00    +0.000 A 
ATOM     13  C   UNL     1       3.303   3.819  19.802  0.00  0.00    +0.000 A 
ATOM     14  C   UNL     1       2.477   4.961  19.843  0.00  0.00    +0.000 A 
ATOM     15  C   UNL     1       3.011   6.206  19.542  0.00  0.00    +0.000 A 
ATOM     16  C   UNL     1       4.397   6.262  19.230  0.00  0.00    +0.000 A 
BRANCH  11  17
ATOM     17  C   UNL     1       6.591   5.308  18.387  0.00  0.00    +0.000 C 
ATOM     18  C   UNL     1       7.573   5.762  19.483  0.00  0.00    +0.000 C 
ATOM     19  F   UNL     1       7.075   4.078  17.962  0.00  0.00    +0.000 F 
BRANCH  17  20
ATOM     20  C   UNL     1       6.621   6.236  17.132  0.00  0.00    +0.000 C 
ATOM     21  F   UNL     1       7.745   7.009  17.158  0.00  0.00    +0.000 F 
ATOM     22  F   UNL     1       5.579   7.118  17.200  0.00  0.00    +0.000 F 
BRANCH  20  28
ATOM     23  C   UNL     1       4.316   4.298  15.959  0.00  0.00    +0.000 C 
ATOM     24  N   UNL     1       5.605   4.601  15.395  0.00  0.00    +0.000 N 
ATOM     25  C   UNL     1       6.078   4.047  14.239  0.00  0.00    +0.000 A 
ATOM     26  N   UNL     1       7.238   4.575  13.942  0.00  0.00    +0.000 NA
ATOM     27  N   UNL     1       7.549   5.471  14.931  0.00  0.00    +0.000 NA
ATOM     28  C   UNL     1       6.582   5.464  15.837  0.00  0.00    +0.000 A 
ENDBRANCH  20  28
ENDBRANCH  17  20
ENDBRANCH  11  17
ENDBRANCH   1  15
BRANCH   8  29
ATOM     29  C   UNL     1      -0.162   9.544  22.551  0.00  0.00    +0.000 C 
ATOM     30  F   UNL     1       0.941   9.322  23.324  0.00  0.00    +0.000 F 
ATOM     31  F   UNL     1      -0.875  10.498  23.207  0.00  0.00    +0.000 F 
ATOM     32  F   UNL     1      -0.889   8.399  22.623  0.00  0.00    +0.000 F 
ENDBRANCH   8  29
BRANCH   6  33
ATOM     33  C   UNL     1      -0.786  12.730  18.718  0.00  0.00    +0.000 C 
BRANCH  33  34
ATOM     34  N   UNL     1       0.133  13.841  18.412  0.00  0.00    +0.000 NA
ATOM     35  C   UNL     1      -0.355  15.151  18.852  0.00  0.00    +0.000 C 
ATOM     36  C   UNL     1       0.755  15.789  19.681  0.00  0.00    +0.000 C 
ATOM     37  C   UNL     1       2.016  15.022  19.326  0.00  0.00    +0.000 C 
ATOM     38  C   UNL     1       1.486  13.641  18.955  0.00  0.00    +0.000 C 
BRANCH  37  39
ATOM     39  C   UNL     1       2.761  15.655  18.225  0.00  0.00    +0.000 C 
ATOM     40  N   UNL     1       3.368  16.103  17.344  0.00  0.00    +0.000 NA
ENDBRANCH  37  39
ENDBRANCH  33  34
ENDBRANCH   6  33
TORSDOF 8
ENDMDL
MODEL 7
REMARK VINA RESULT:      -9.8      2.312      3.634
REMARK  Name = 
REMARK  10 active torsions:
REMARK  status: ('A' for Active; 'I' for Inactive)
REMARK    1  A    between atoms: C_1  and  N_2
REMARK    2  A    between atoms: C_6  and  C_7
REMARK    3  A    between atoms: C_7  and  C_10
REMARK    4  A    between atoms: C_10  and  C_11
REMARK    5  A    between atoms: C_10  and  C_13
REMARK    6  A    between atoms: C_17  and  N_18
REMARK    7  A    between atoms: C_23  and  C_24
REMARK    8  A    between atoms: C_24  and  N_25
REMARK    9  A    between atoms: C_28  and  C_29
REMARK   10  A    between atoms: C_33  and  C_34
REMARK                            x       y       z     vdW  Elec       q    Type
REMARK                         _______ _______ _______ _____ _____    ______ ____
ROOT
ATOM      1  N   UNL     1       1.997   7.814  19.373  0.00  0.00    +0.000 N 
ATOM      2  C   UNL     1       1.356   8.134  20.623  0.00  0.00    +0.000 C 
ATOM      3  C   UNL     1       0.699   9.438  20.400  0.00  0.00    +0.000 A 
ATOM      4  C   UNL     1       0.930   9.879  19.101  0.00  0.00    +0.000 A 
ATOM      5  C   UNL     1       0.387  11.088  18.671  0.00  0.00    +0.000 A 
ATOM      6  C   UNL     1      -0.399  11.843  19.583  0.00  0.00    +0.000 A 
ATOM      7  C   UNL     1      -0.593  11.360  20.899  0.00  0.00    +0.000 A 
ATOM      8  C   UNL     1      -0.052  10.149  21.329  0.00  0.00    +0.000 A 
ATOM      9  C   UNL     1       1.783   8.832  18.419  0.00  0.00    +0.000 C 
ATOM     10  O   UNL     1       2.177   8.925  17.265  0.00  0.00    +0.000 OA
ENDROOT
BRANCH   1  15
ATOM     11  C   UNL     1       4.465   5.307  18.013  0.00  0.00    +0.000 A 
ATOM     12  C   UNL     1       4.286   4.249  18.905  0.00  0.00    +0.000 A 
ATOM     13  C   UNL     1       3.398   4.378  19.989  0.00  0.00    +0.000 A 
ATOM     14  C   UNL     1       2.632   5.546  20.183  0.00  0.00    +0.000 A 
ATOM     15  C   UNL     1       2.789   6.622  19.321  0.00  0.00    +0.000 A 
ATOM     16  C   UNL     1       3.755   6.490  18.287  0.00  0.00    +0.000 A 
BRANCH  11  17
ATOM     17  C   UNL     1       5.187   5.188  16.647  0.00  0.00    +0.000 C 
ATOM     18  C   UNL     1       4.565   3.966  15.947  0.00  0.00    +0.000 C 
ATOM     19  F   UNL     1       4.860   6.267  15.836  0.00  0.00    +0.000 F 
BRANCH  17  20
ATOM     20  C   UNL     1       6.746   5.133  16.678  0.00  0.00    +0.000 C 
ATOM     21  F   UNL     1       7.226   4.964  15.412  0.00  0.00    +0.000 F 
ATOM     22  F   UNL     1       7.144   4.020  17.363  0.00  0.00    +0.000 F 
BRANCH  20  28
ATOM     23  C   UNL     1       7.988   5.600  19.625  0.00  0.00    +0.000 C 
ATOM     24  N   UNL     1       7.829   6.553  18.558  0.00  0.00    +0.000 N 
ATOM     25  C   UNL     1       8.161   7.874  18.664  0.00  0.00    +0.000 A 
ATOM     26  N   UNL     1       7.977   8.466  17.511  0.00  0.00    +0.000 NA
ATOM     27  N   UNL     1       7.491   7.529  16.639  0.00  0.00    +0.000 NA
ATOM     28  C   UNL     1       7.360   6.374  17.276  0.00  0.00    +0.000 A 
ENDBRANCH  20  28
ENDBRANCH  17  20
ENDBRANCH  11  17
ENDBRANCH   1  15
BRANCH   8  29
ATOM     29  C   UNL     1      -0.301   9.644  22.725  0.00  0.00    +0.000 C 
ATOM     30  F   UNL     1       0.837   9.455  23.455  0.00  0.00    +0.000 F 
ATOM     31  F   UNL     1      -1.066  10.492  23.462  0.00  0.00    +0.000 F 
ATOM     32  F   UNL     1      -0.937   8.443  22.733  0.00  0.00    +0.000 F 
ENDBRANCH   8  29
BRANCH   6  33
ATOM     33  C   UNL     1      -1.147  13.114  19.192  0.00  0.00    +0.000 C 
BRANCH  33  34
ATOM     34  N   UNL     1      -0.570  14.339  19.774  0.00  0.00    +0.000 NA
ATOM     35  C   UNL     1       0.098  15.202  18.796  0.00  0.00    +0.000 C 
ATOM     36  C   UNL     1      -0.484  16.602  18.958  0.00  0.00    +0.000 C 
ATOM     37  C   UNL     1      -1.151  16.606  20.323  0.00  0.00    +0.000 C 
ATOM     38  C   UNL     1      -1.553  15.147  20.514  0.00  0.00    +0.000 C 
BRANCH  37  39
ATOM     39  C   UNL     1      -0.248  17.085  21.382  0.00  0.00    +0.000 C 
ATOM     40  N   UNL     1       0.507  17.443  22.187  0.00  0.00    +0.000 NA
ENDBRANCH  37  39
ENDBRANCH  33  34
ENDBRANCH   6  33
TORSDOF 8
ENDMDL
MODEL 8
REMARK VINA RESULT:      -9.8      2.172      3.176
REMARK  Name = 
REMARK  10 active torsions:
REMARK  status: ('A' for Active; 'I' for Inactive)
REMARK    1  A    between atoms: C_1  and  N_2
REMARK    2  A    between atoms: C_6  and  C_7
REMARK    3  A    between atoms: C_7  and  C_10
REMARK    4  A    between atoms: C_10  and  C_11
REMARK    5  A    between atoms: C_10  and  C_13
REMARK    6  A    between atoms: C_17  and  N_18
REMARK    7  A    between atoms: C_23  and  C_24
REMARK    8  A    between atoms: C_24  and  N_25
REMARK    9  A    between atoms: C_28  and  C_29
REMARK   10  A    between atoms: C_33  and  C_34
REMARK                            x       y       z     vdW  Elec       q    Type
REMARK                         _______ _______ _______ _____ _____    ______ ____
ROOT
ATOM      1  N   UNL     1       2.070   7.791  19.345  0.00  0.00    +0.000 N 
ATOM      2  C   UNL     1       1.443   8.082  20.608  0.00  0.00    +0.000 C 
ATOM      3  C   UNL     1       0.810   9.406  20.432  0.00  0.00    +0.000 A 
ATOM      4  C   UNL     1       1.043   9.885  19.147  0.00  0.00    +0.000 A 
ATOM      5  C   UNL     1       0.522  11.117  18.760  0.00  0.00    +0.000 A 
ATOM      6  C   UNL     1      -0.244  11.858  19.702  0.00  0.00    +0.000 A 
ATOM      7  C   UNL     1      -0.440  11.336  21.002  0.00  0.00    +0.000 A 
ATOM      8  C   UNL     1       0.079  10.101  21.389  0.00  0.00    +0.000 A 
ATOM      9  C   UNL     1       1.871   8.844  18.426  0.00  0.00    +0.000 C 
ATOM     10  O   UNL     1       2.261   8.967  17.274  0.00  0.00    +0.000 OA
ENDROOT
BRANCH   1  15
ATOM     11  C   UNL     1       4.498   5.292  17.900  0.00  0.00    +0.000 A 
ATOM     12  C   UNL     1       4.289   4.202  18.746  0.00  0.00    +0.000 A 
ATOM     13  C   UNL     1       3.395   4.304  19.828  0.00  0.00    +0.000 A 
ATOM     14  C   UNL     1       2.652   5.478  20.065  0.00  0.00    +0.000 A 
ATOM     15  C   UNL     1       2.838   6.586  19.249  0.00  0.00    +0.000 A 
ATOM     16  C   UNL     1       3.810   6.478  18.217  0.00  0.00    +0.000 A 
BRANCH  11  17
ATOM     17  C   UNL     1       5.228   5.215  16.536  0.00  0.00    +0.000 C 
ATOM     18  C   UNL     1       4.624   4.003  15.802  0.00  0.00    +0.000 C 
ATOM     19  F   UNL     1       4.893   6.309  15.750  0.00  0.00    +0.000 F 
BRANCH  17  20
ATOM     20  C   UNL     1       6.788   5.178  16.574  0.00  0.00    +0.000 C 
ATOM     21  F   UNL     1       7.277   5.066  15.305  0.00  0.00    +0.000 F 
ATOM     22  F   UNL     1       7.195   4.043  17.216  0.00  0.00    +0.000 F 
BRANCH  20  28
ATOM     23  C   UNL     1       7.937   5.560  19.570  0.00  0.00    +0.000 C 
ATOM     24  N   UNL     1       7.811   6.543  18.527  0.00  0.00    +0.000 N 
ATOM     25  C   UNL     1       8.140   7.860  18.680  0.00  0.00    +0.000 A 
ATOM     26  N   UNL     1       7.993   8.485  17.539  0.00  0.00    +0.000 NA
ATOM     27  N   UNL     1       7.534   7.573  16.626  0.00  0.00    +0.000 NA
ATOM     28  C   UNL     1       7.383   6.401  17.226  0.00  0.00    +0.000 A 
ENDBRANCH  20  28
ENDBRANCH  17  20
ENDBRANCH  11  17
ENDBRANCH   1  15
BRANCH   8  29
ATOM     29  C   UNL     1      -0.172   9.555  22.769  0.00  0.00    +0.000 C 
ATOM     30  F   UNL     1      -0.922  10.378  23.559  0.00  0.00    +0.000 F 
ATOM     31  F   UNL     1      -0.835   8.368  22.752  0.00  0.00    +0.000 F 
ATOM     32  F   UNL     1       0.980   9.345  23.458  0.00  0.00    +0.000 F 
ENDBRANCH   8  29
BRANCH   6  33
ATOM     33  C   UNL     1      -0.968  13.155  19.357  0.00  0.00    +0.000 C 
BRANCH  33  34
ATOM     34  N   UNL     1      -1.643  13.777  20.510  0.00  0.00    +0.000 NA
ATOM     35  C   UNL     1      -1.337  15.200  20.679  0.00  0.00    +0.000 C 
ATOM     36  C   UNL     1      -2.668  15.938  20.781  0.00  0.00    +0.000 C 
ATOM     37  C   UNL     1      -3.696  14.872  21.114  0.00  0.00    +0.000 C 
ATOM     38  C   UNL     1      -3.106  13.615  20.482  0.00  0.00    +0.000 C 
BRANCH  37  39
ATOM     39  C   UNL     1      -3.902  14.731  22.564  0.00  0.00    +0.000 C 
ATOM     40  N   UNL     1      -4.105  14.657  23.704  0.00  0.00    +0.000 NA
ENDBRANCH  37  39
ENDBRANCH  33  34
ENDBRANCH   6  33
TORSDOF 8
ENDMDL
MODEL 9
REMARK VINA RESULT:      -9.7      2.005      3.061
REMARK  Name = 
REMARK  10 active torsions:
REMARK  status: ('A' for Active; 'I' for Inactive)
REMARK    1  A    between atoms: C_1  and  N_2
REMARK    2  A    between atoms: C_6  and  C_7
REMARK    3  A    between atoms: C_7  and  C_10
REMARK    4  A    between atoms: C_10  and  C_11
REMARK    5  A    between atoms: C_10  and  C_13
REMARK    6  A    between atoms: C_17  and  N_18
REMARK    7  A    between atoms: C_23  and  C_24
REMARK    8  A    between atoms: C_24  and  N_25
REMARK    9  A    between atoms: C_28  and  C_29
REMARK   10  A    between atoms: C_33  and  C_34
REMARK                            x       y       z     vdW  Elec       q    Type
REMARK                         _______ _______ _______ _____ _____    ______ ____
ROOT
ATOM      1  N   UNL     1       2.342   7.384  19.205  0.00  0.00    +0.000 N 
ATOM      2  C   UNL     1       1.652   7.759  20.412  0.00  0.00    +0.000 C 
ATOM      3  C   UNL     1       1.048   9.075  20.122  0.00  0.00    +0.000 A 
ATOM      4  C   UNL     1       1.356   9.472  18.825  0.00  0.00    +0.000 A 
ATOM      5  C   UNL     1       0.873  10.684  18.336  0.00  0.00    +0.000 A 
ATOM      6  C   UNL     1       0.068  11.488  19.187  0.00  0.00    +0.000 A 
ATOM      7  C   UNL     1      -0.204  11.049  20.505  0.00  0.00    +0.000 A 
ATOM      8  C   UNL     1       0.277   9.836  20.994  0.00  0.00    +0.000 A 
ATOM      9  C   UNL     1       2.207   8.380  18.214  0.00  0.00    +0.000 C 
ATOM     10  O   UNL     1       2.659   8.428  17.079  0.00  0.00    +0.000 OA
ENDROOT
BRANCH   1  15
ATOM     11  C   UNL     1       5.068   4.940  18.296  0.00  0.00    +0.000 A 
ATOM     12  C   UNL     1       4.618   3.790  18.944  0.00  0.00    +0.000 A 
ATOM     13  C   UNL     1       3.451   3.827  19.729  0.00  0.00    +0.000 A 
ATOM     14  C   UNL     1       2.678   5.001  19.848  0.00  0.00    +0.000 A 
ATOM     15  C   UNL     1       3.098   6.167  19.225  0.00  0.00    +0.000 A 
ATOM     16  C   UNL     1       4.325   6.116  18.509  0.00  0.00    +0.000 A 
BRANCH  11  17
ATOM     17  C   UNL     1       6.161   4.957  17.198  0.00  0.00    +0.000 C 
ATOM     18  C   UNL     1       6.558   6.434  17.021  0.00  0.00    +0.000 C 
ATOM     19  F   UNL     1       7.312   4.331  17.656  0.00  0.00    +0.000 F 
BRANCH  17  20
ATOM     20  C   UNL     1       5.808   4.264  15.844  0.00  0.00    +0.000 C 
ATOM     21  F   UNL     1       4.503   4.508  15.529  0.00  0.00    +0.000 F 
ATOM     22  F   UNL     1       5.891   2.909  15.997  0.00  0.00    +0.000 F 
BRANCH  20  28
ATOM     23  C   UNL     1       5.668   3.524  12.702  0.00  0.00    +0.000 C 
ATOM     24  N   UNL     1       6.631   4.345  13.387  0.00  0.00    +0.000 N 
ATOM     25  C   UNL     1       7.706   4.926  12.776  0.00  0.00    +0.000 A 
ATOM     26  N   UNL     1       8.350   5.672  13.637  0.00  0.00    +0.000 NA
ATOM     27  N   UNL     1       7.706   5.562  14.841  0.00  0.00    +0.000 NA
ATOM     28  C   UNL     1       6.685   4.727  14.708  0.00  0.00    +0.000 A 
ENDBRANCH  20  28
ENDBRANCH  17  20
ENDBRANCH  11  17
ENDBRANCH   1  15
BRANCH   8  29
ATOM     29  C   UNL     1      -0.055   9.379  22.389  0.00  0.00    +0.000 C 
ATOM     30  F   UNL     1       1.040   9.103  23.155  0.00  0.00    +0.000 F 
ATOM     31  F   UNL     1      -0.763  10.304  23.090  0.00  0.00    +0.000 F 
ATOM     32  F   UNL     1      -0.795   8.239  22.396  0.00  0.00    +0.000 F 
ENDBRANCH   8  29
BRANCH   6  33
ATOM     33  C   UNL     1      -0.619  12.769  18.726  0.00  0.00    +0.000 C 
BRANCH  33  34
ATOM     34  N   UNL     1      -0.293  13.944  19.554  0.00  0.00    +0.000 NA
ATOM     35  C   UNL     1       0.383  15.017  18.819  0.00  0.00    +0.000 C 
ATOM     36  C   UNL     1      -0.394  16.302  19.082  0.00  0.00    +0.000 C 
ATOM     37  C   UNL     1      -1.235  16.020  20.315  0.00  0.00    +0.000 C 
ATOM     38  C   UNL     1      -1.465  14.514  20.238  0.00  0.00    +0.000 C 
BRANCH  37  39
ATOM     39  C   UNL     1      -0.555  16.424  21.557  0.00  0.00    +0.000 C 
ATOM     40  N   UNL     1       0.015  16.700  22.528  0.00  0.00    +0.000 NA
ENDBRANCH  37  39
ENDBRANCH  33  34
ENDBRANCH   6  33
TORSDOF 8
ENDMDL
