MODEL 1
REMARK VINA RESULT:      -8.4      0.000      0.000
REMARK  Name = 
REMARK  7 active torsions:
REMARK  status: ('A' for Active; 'I' for Inactive)
REMARK    1  A    between atoms: C_1  and  C_2
REMARK    2  A    between atoms: C_2  and  S_3
REMARK    3  A    between atoms: C_2  and  C_10
REMARK    4  A    between atoms: S_3  and  C_4
REMARK    5  A    between atoms: N_8  and  C_9
REMARK    6  A    between atoms: C_14  and  N_15
REMARK    7  A    between atoms: N_24  and  C_25
REMARK                            x       y       z     vdW  Elec       q    Type
REMARK                         _______ _______ _______ _____ _____    ______ ____
ROOT
ATOM      1  C   UNL     1       0.717   9.864  19.412  0.00  0.00    +0.000 A 
ATOM      2  C   UNL     1       0.496   9.681  20.788  0.00  0.00    +0.000 A 
ATOM      3  C   UNL     1       1.068   8.604  21.466  0.00  0.00    +0.000 A 
ATOM      4  C   UNL     1       1.847   7.676  20.778  0.00  0.00    +0.000 A 
ATOM      5  C   UNL     1       2.029   7.795  19.404  0.00  0.00    +0.000 A 
ATOM      6  C   UNL     1       1.478   8.898  18.733  0.00  0.00    +0.000 A 
ENDROOT
BRANCH   5   7
ATOM      7  N   UNL     1       2.737   6.857  18.630  0.00  0.00    +0.000 N 
ATOM      8  C   UNL     1       2.609   5.487  18.658  0.00  0.00    +0.000 C 
ATOM      9  O   UNL     1       1.859   4.848  19.392  0.00  0.00    +0.000 OA
ATOM     10  N   UNL     1       3.340   4.859  17.673  0.00  0.00    +0.000 N 
ATOM     11  C   UNL     1       3.270   3.433  17.349  0.00  0.00    +0.000 C 
ATOM     12  C   UNL     1       4.414   3.732  16.366  0.00  0.00    +0.000 C 
ATOM     13  C   UNL     1       4.763   4.947  17.277  0.00  0.00    +0.000 C 
ATOM     14  C   UNL     1       5.116   6.248  16.566  0.00  0.00    +0.000 C 
ATOM     15  C   UNL     1       6.578   6.218  16.116  0.00  0.00    +0.000 C 
ATOM     16  N   UNL     1       7.519   5.932  17.208  0.00  0.00    +0.000 NA
ATOM     17  C   UNL     1       7.626   7.040  18.162  0.00  0.00    +0.000 C 
ATOM     18  C   UNL     1       7.179   4.670  17.877  0.00  0.00    +0.000 C 
ATOM     19  C   UNL     1       5.740   4.617  18.415  0.00  0.00    +0.000 C 
ATOM     20  H   UNL     1       3.145   7.216  17.783  0.00  0.00    +0.000 HD
ENDBRANCH   5   7
BRANCH   1  22
ATOM     21  C   UNL     1       1.067  12.357  18.753  0.00  0.00    +0.000 C 
ATOM     22  C   UNL     1       0.177  11.111  18.733  0.00  0.00    +0.000 C 
BRANCH  22  23
ATOM     23  S   UNL     1      -1.541  11.483  19.262  0.00  0.00    +0.000 S 
BRANCH  23  24
ATOM     24  C   UNL     1      -2.480  11.340  17.820  0.00  0.00    +0.000 A 
ATOM     25  N   UNL     1      -2.082  10.979  16.621  0.00  0.00    +0.000 NA
ATOM     26  N   UNL     1      -3.184  10.929  15.799  0.00  0.00    +0.000 NA
ATOM     27  C   UNL     1      -4.228  11.261  16.524  0.00  0.00    +0.000 A 
ATOM     28  N   UNL     1      -3.829  11.555  17.793  0.00  0.00    +0.000 N 
ATOM     29  C   UNL     1      -4.684  11.993  18.863  0.00  0.00    +0.000 C 
ENDBRANCH  23  24
ENDBRANCH  22  23
ENDBRANCH   1  22
TORSDOF 4
ENDMDL
MODEL 2
REMARK VINA RESULT:      -8.4      1.899      3.202
REMARK  Name = 
REMARK  7 active torsions:
REMARK  status: ('A' for Active; 'I' for Inactive)
REMARK    1  A    between atoms: C_1  and  C_2
REMARK    2  A    between atoms: C_2  and  S_3
REMARK    3  A    between atoms: C_2  and  C_10
REMARK    4  A    between atoms: S_3  and  C_4
REMARK    5  A    between atoms: N_8  and  C_9
REMARK    6  A    between atoms: C_14  and  N_15
REMARK    7  A    between atoms: N_24  and  C_25
REMARK                            x       y       z     vdW  Elec       q    Type
REMARK                         _______ _______ _______ _____ _____    ______ ____
ROOT
ATOM      1  C   UNL     1      -0.251  10.780  20.030  0.00  0.00    +0.000 A 
ATOM      2  C   UNL     1      -0.530  10.793  21.407  0.00  0.00    +0.000 A 
ATOM      3  C   UNL     1       0.066   9.870  22.266  0.00  0.00    +0.000 A 
ATOM      4  C   UNL     1       0.930   8.900  21.763  0.00  0.00    +0.000 A 
ATOM      5  C   UNL     1       1.175   8.821  20.395  0.00  0.00    +0.000 A 
ATOM      6  C   UNL     1       0.597   9.773  19.540  0.00  0.00    +0.000 A 
ENDROOT
BRANCH   5   7
ATOM      7  N   UNL     1       1.973   7.824  19.805  0.00  0.00    +0.000 N 
ATOM      8  C   UNL     1       2.490   7.817  18.530  0.00  0.00    +0.000 C 
ATOM      9  O   UNL     1       2.317   8.684  17.677  0.00  0.00    +0.000 OA
ATOM     10  N   UNL     1       3.353   6.766  18.305  0.00  0.00    +0.000 N 
ATOM     11  C   UNL     1       4.181   6.593  17.111  0.00  0.00    +0.000 C 
ATOM     12  C   UNL     1       4.572   5.243  17.734  0.00  0.00    +0.000 C 
ATOM     13  C   UNL     1       3.220   5.306  18.505  0.00  0.00    +0.000 C 
ATOM     14  C   UNL     1       3.256   4.888  19.971  0.00  0.00    +0.000 C 
ATOM     15  C   UNL     1       3.201   3.363  20.081  0.00  0.00    +0.000 C 
ATOM     16  N   UNL     1       2.053   2.768  19.383  0.00  0.00    +0.000 NA
ATOM     17  C   UNL     1       0.779   3.062  20.044  0.00  0.00    +0.000 C 
ATOM     18  C   UNL     1       2.037   3.165  17.969  0.00  0.00    +0.000 C 
ATOM     19  C   UNL     1       2.037   4.686  17.748  0.00  0.00    +0.000 C 
ATOM     20  H   UNL     1       2.455   7.219  20.449  0.00  0.00    +0.000 HD
ENDBRANCH   5   7
BRANCH   1  22
ATOM     21  C   UNL     1      -0.410  13.314  19.459  0.00  0.00    +0.000 C 
ATOM     22  C   UNL     1      -0.825  11.873  19.145  0.00  0.00    +0.000 C 
BRANCH  22  23
ATOM     23  S   UNL     1      -2.643  11.706  18.952  0.00  0.00    +0.000 S 
BRANCH  23  24
ATOM     24  C   UNL     1      -2.855  11.097  17.350  0.00  0.00    +0.000 A 
ATOM     25  N   UNL     1      -2.020  10.379  16.635  0.00  0.00    +0.000 NA
ATOM     26  N   UNL     1      -2.639  10.054  15.450  0.00  0.00    +0.000 NA
ATOM     27  C   UNL     1      -3.840  10.584  15.478  0.00  0.00    +0.000 A 
ATOM     28  N   UNL     1      -4.010  11.273  16.641  0.00  0.00    +0.000 N 
ATOM     29  C   UNL     1      -5.182  12.016  17.016  0.00  0.00    +0.000 C 
ENDBRANCH  23  24
ENDBRANCH  22  23
ENDBRANCH   1  22
TORSDOF 4
ENDMDL
MODEL 3
REMARK VINA RESULT:      -8.1      2.647      3.150
REMARK  Name = 
REMARK  7 active torsions:
REMARK  status: ('A' for Active; 'I' for Inactive)
REMARK    1  A    between atoms: C_1  and  C_2
REMARK    2  A    between atoms: C_2  and  S_3
REMARK    3  A    between atoms: C_2  and  C_10
REMARK    4  A    between atoms: S_3  and  C_4
REMARK    5  A    between atoms: N_8  and  C_9
REMARK    6  A    between atoms: C_14  and  N_15
REMARK    7  A    between atoms: N_24  and  C_25
REMARK                            x       y       z     vdW  Elec       q    Type
REMARK                         _______ _______ _______ _____ _____    ______ ____
ROOT
ATOM      1  C   UNL     1       1.041   9.987  19.400  0.00  0.00    +0.000 A 
ATOM      2  C   UNL     1       0.523   9.806  20.694  0.00  0.00    +0.000 A 
ATOM      3  C   UNL     1       0.780   8.636  21.409  0.00  0.00    +0.000 A 
ATOM      4  C   UNL     1       1.535   7.616  20.835  0.00  0.00    +0.000 A 
ATOM      5  C   UNL     1       2.006   7.739  19.531  0.00  0.00    +0.000 A 
ATOM      6  C   UNL     1       1.771   8.931  18.829  0.00  0.00    +0.000 A 
ENDROOT
BRANCH   5   7
ATOM      7  N   UNL     1       2.708   6.722  18.859  0.00  0.00    +0.000 N 
ATOM      8  C   UNL     1       2.753   5.385  19.184  0.00  0.00    +0.000 C 
ATOM      9  O   UNL     1       2.195   4.857  20.143  0.00  0.00    +0.000 OA
ATOM     10  N   UNL     1       3.410   4.624  18.241  0.00  0.00    +0.000 N 
ATOM     11  C   UNL     1       3.469   3.162  18.228  0.00  0.00    +0.000 C 
ATOM     12  C   UNL     1       4.421   3.339  17.034  0.00  0.00    +0.000 C 
ATOM     13  C   UNL     1       4.743   4.750  17.612  0.00  0.00    +0.000 C 
ATOM     14  C   UNL     1       4.834   5.891  16.604  0.00  0.00    +0.000 C 
ATOM     15  C   UNL     1       6.211   5.894  15.939  0.00  0.00    +0.000 C 
ATOM     16  N   UNL     1       7.322   5.939  16.900  0.00  0.00    +0.000 NA
ATOM     17  C   UNL     1       7.425   7.233  17.579  0.00  0.00    +0.000 C 
ATOM     18  C   UNL     1       7.234   4.828  17.856  0.00  0.00    +0.000 C 
ATOM     19  C   UNL     1       5.901   4.766  18.619  0.00  0.00    +0.000 C 
ATOM     20  H   UNL     1       2.947   6.922  17.902  0.00  0.00    +0.000 HD
ENDBRANCH   5   7
BRANCH   1  22
ATOM     21  C   UNL     1       2.094  12.150  18.406  0.00  0.00    +0.000 C 
ATOM     22  C   UNL     1       0.840  11.320  18.699  0.00  0.00    +0.000 C 
BRANCH  22  23
ATOM     23  S   UNL     1      -0.474  12.318  19.503  0.00  0.00    +0.000 S 
BRANCH  23  24
ATOM     24  C   UNL     1       0.381  13.460  20.476  0.00  0.00    +0.000 A 
ATOM     25  N   UNL     1       1.016  13.252  21.606  0.00  0.00    +0.000 NA
ATOM     26  N   UNL     1       1.617  14.431  21.984  0.00  0.00    +0.000 NA
ATOM     27  C   UNL     1       1.331  15.327  21.068  0.00  0.00    +0.000 A 
ATOM     28  N   UNL     1       0.533  14.770  20.115  0.00  0.00    +0.000 N 
ATOM     29  C   UNL     1      -0.014  15.449  18.972  0.00  0.00    +0.000 C 
ENDBRANCH  23  24
ENDBRANCH  22  23
ENDBRANCH   1  22
TORSDOF 4
ENDMDL
MODEL 4
REMARK VINA RESULT:      -8.1      1.581      2.866
REMARK  Name = 
REMARK  7 active torsions:
REMARK  status: ('A' for Active; 'I' for Inactive)
REMARK    1  A    between atoms: C_1  and  C_2
REMARK    2  A    between atoms: C_2  and  S_3
REMARK    3  A    between atoms: C_2  and  C_10
REMARK    4  A    between atoms: S_3  and  C_4
REMARK    5  A    between atoms: N_8  and  C_9
REMARK    6  A    between atoms: C_14  and  N_15
REMARK    7  A    between atoms: N_24  and  C_25
REMARK                            x       y       z     vdW  Elec       q    Type
REMARK                         _______ _______ _______ _____ _____    ______ ____
ROOT
ATOM      1  C   UNL     1       0.291  10.429  19.679  0.00  0.00    +0.000 A 
ATOM      2  C   UNL     1      -0.298  10.248  20.942  0.00  0.00    +0.000 A 
ATOM      3  C   UNL     1       0.033   9.148  21.733  0.00  0.00    +0.000 A 
ATOM      4  C   UNL     1       0.936   8.195  21.268  0.00  0.00    +0.000 A 
ATOM      5  C   UNL     1       1.486   8.314  19.995  0.00  0.00    +0.000 A 
ATOM      6  C   UNL     1       1.174   9.439  19.216  0.00  0.00    +0.000 A 
ENDROOT
BRANCH   5   7
ATOM      7  N   UNL     1       2.344   7.354  19.427  0.00  0.00    +0.000 N 
ATOM      8  C   UNL     1       2.874   7.358  18.157  0.00  0.00    +0.000 C 
ATOM      9  O   UNL     1       2.664   8.203  17.290  0.00  0.00    +0.000 OA
ATOM     10  N   UNL     1       3.796   6.353  17.956  0.00  0.00    +0.000 N 
ATOM     11  C   UNL     1       4.645   6.210  16.773  0.00  0.00    +0.000 C 
ATOM     12  C   UNL     1       5.103   4.892  17.418  0.00  0.00    +0.000 C 
ATOM     13  C   UNL     1       3.740   4.891  18.175  0.00  0.00    +0.000 C 
ATOM     14  C   UNL     1       3.783   4.495  19.647  0.00  0.00    +0.000 C 
ATOM     15  C   UNL     1       3.811   2.971  19.778  0.00  0.00    +0.000 C 
ATOM     16  N   UNL     1       2.705   2.305  19.076  0.00  0.00    +0.000 NA
ATOM     17  C   UNL     1       1.409   2.538  19.720  0.00  0.00    +0.000 C 
ATOM     18  C   UNL     1       2.682   2.681  17.656  0.00  0.00    +0.000 C 
ATOM     19  C   UNL     1       2.602   4.197  17.415  0.00  0.00    +0.000 C 
ATOM     20  H   UNL     1       2.851   6.785  20.084  0.00  0.00    +0.000 HD
ENDBRANCH   5   7
BRANCH   1  22
ATOM     21  C   UNL     1       1.078  12.783  18.896  0.00  0.00    +0.000 C 
ATOM     22  C   UNL     1      -0.004  11.699  18.897  0.00  0.00    +0.000 C 
BRANCH  22  23
ATOM     23  S   UNL     1      -1.660  12.377  19.303  0.00  0.00    +0.000 S 
BRANCH  23  24
ATOM     24  C   UNL     1      -2.700  11.746  18.077  0.00  0.00    +0.000 A 
ATOM     25  N   UNL     1      -2.368  11.209  16.925  0.00  0.00    +0.000 NA
ATOM     26  N   UNL     1      -3.518  10.775  16.307  0.00  0.00    +0.000 NA
ATOM     27  C   UNL     1      -4.522  11.059  17.104  0.00  0.00    +0.000 A 
ATOM     28  N   UNL     1      -4.058  11.696  18.215  0.00  0.00    +0.000 N 
ATOM     29  C   UNL     1      -4.863  12.194  19.298  0.00  0.00    +0.000 C 
ENDBRANCH  23  24
ENDBRANCH  22  23
ENDBRANCH   1  22
TORSDOF 4
ENDMDL
MODEL 5
REMARK VINA RESULT:      -8.0      3.166      4.693
REMARK  Name = 
REMARK  7 active torsions:
REMARK  status: ('A' for Active; 'I' for Inactive)
REMARK    1  A    between atoms: C_1  and  C_2
REMARK    2  A    between atoms: C_2  and  S_3
REMARK    3  A    between atoms: C_2  and  C_10
REMARK    4  A    between atoms: S_3  and  C_4
REMARK    5  A    between atoms: N_8  and  C_9
REMARK    6  A    between atoms: C_14  and  N_15
REMARK    7  A    between atoms: N_24  and  C_25
REMARK                            x       y       z     vdW  Elec       q    Type
REMARK                         _______ _______ _______ _____ _____    ______ ____
ROOT
ATOM      1  C   UNL     1       0.630   9.850  20.444  0.00  0.00    +0.000 A 
ATOM      2  C   UNL     1       0.311  10.568  19.279  0.00  0.00    +0.000 A 
ATOM      3  C   UNL     1       0.686  10.093  18.022  0.00  0.00    +0.000 A 
ATOM      4  C   UNL     1       1.408   8.908  17.907  0.00  0.00    +0.000 A 
ATOM      5  C   UNL     1       1.795   8.209  19.047  0.00  0.00    +0.000 A 
ATOM      6  C   UNL     1       1.387   8.675  20.306  0.00  0.00    +0.000 A 
ENDROOT
BRANCH   5   7
ATOM      7  N   UNL     1       2.589   7.048  19.014  0.00  0.00    +0.000 N 
ATOM      8  C   UNL     1       3.652   6.788  18.179  0.00  0.00    +0.000 C 
ATOM      9  O   UNL     1       4.074   7.532  17.297  0.00  0.00    +0.000 OA
ATOM     10  N   UNL     1       4.314   5.622  18.498  0.00  0.00    +0.000 N 
ATOM     11  C   UNL     1       5.573   5.176  17.902  0.00  0.00    +0.000 C 
ATOM     12  C   UNL     1       5.366   3.899  18.732  0.00  0.00    +0.000 C 
ATOM     13  C   UNL     1       3.844   4.235  18.707  0.00  0.00    +0.000 C 
ATOM     14  C   UNL     1       3.086   4.040  20.015  0.00  0.00    +0.000 C 
ATOM     15  C   UNL     1       2.716   2.566  20.191  0.00  0.00    +0.000 C 
ATOM     16  N   UNL     1       1.970   2.012  19.053  0.00  0.00    +0.000 NA
ATOM     17  C   UNL     1       0.611   2.549  18.956  0.00  0.00    +0.000 C 
ATOM     18  C   UNL     1       2.716   2.190  17.800  0.00  0.00    +0.000 C 
ATOM     19  C   UNL     1       3.093   3.651  17.502  0.00  0.00    +0.000 C 
ATOM     20  H   UNL     1       2.580   6.495  19.855  0.00  0.00    +0.000 HD
ENDBRANCH   5   7
BRANCH   1  22
ATOM     21  C   UNL     1      -0.411   9.272  22.758  0.00  0.00    +0.000 C 
ATOM     22  C   UNL     1       0.103  10.336  21.784  0.00  0.00    +0.000 C 
BRANCH  22  23
ATOM     23  S   UNL     1      -1.086  11.720  21.584  0.00  0.00    +0.000 S 
BRANCH  23  24
ATOM     24  C   UNL     1      -0.164  13.138  21.934  0.00  0.00    +0.000 A 
ATOM     25  N   UNL     1       1.112  13.356  21.709  0.00  0.00    +0.000 NA
ATOM     26  N   UNL     1       1.397  14.651  22.076  0.00  0.00    +0.000 NA
ATOM     27  C   UNL     1       0.283  15.188  22.515  0.00  0.00    +0.000 A 
ATOM     28  N   UNL     1      -0.719  14.265  22.471  0.00  0.00    +0.000 N 
ATOM     29  C   UNL     1      -2.074  14.472  22.904  0.00  0.00    +0.000 C 
ENDBRANCH  23  24
ENDBRANCH  22  23
ENDBRANCH   1  22
TORSDOF 4
ENDMDL
MODEL 6
REMARK VINA RESULT:      -7.9      3.215      4.735
REMARK  Name = 
REMARK  7 active torsions:
REMARK  status: ('A' for Active; 'I' for Inactive)
REMARK    1  A    between atoms: C_1  and  C_2
REMARK    2  A    between atoms: C_2  and  S_3
REMARK    3  A    between atoms: C_2  and  C_10
REMARK    4  A    between atoms: S_3  and  C_4
REMARK    5  A    between atoms: N_8  and  C_9
REMARK    6  A    between atoms: C_14  and  N_15
REMARK    7  A    between atoms: N_24  and  C_25
REMARK                            x       y       z     vdW  Elec       q    Type
REMARK                         _______ _______ _______ _____ _____    ______ ____
ROOT
ATOM      1  C   UNL     1       0.664   9.940  20.389  0.00  0.00    +0.000 A 
ATOM      2  C   UNL     1       0.383  10.632  19.198  0.00  0.00    +0.000 A 
ATOM      3  C   UNL     1       0.769  10.114  17.962  0.00  0.00    +0.000 A 
ATOM      4  C   UNL     1       1.465   8.910  17.894  0.00  0.00    +0.000 A 
ATOM      5  C   UNL     1       1.815   8.235  19.059  0.00  0.00    +0.000 A 
ATOM      6  C   UNL     1       1.396   8.745  20.298  0.00  0.00    +0.000 A 
ENDROOT
BRANCH   5   7
ATOM      7  N   UNL     1       2.583   7.056  19.074  0.00  0.00    +0.000 N 
ATOM      8  C   UNL     1       3.679   6.765  18.295  0.00  0.00    +0.000 C 
ATOM      9  O   UNL     1       4.161   7.492  17.429  0.00  0.00    +0.000 OA
ATOM     10  N   UNL     1       4.297   5.587  18.653  0.00  0.00    +0.000 N 
ATOM     11  C   UNL     1       5.574   5.107  18.123  0.00  0.00    +0.000 C 
ATOM     12  C   UNL     1       5.296   3.842  18.951  0.00  0.00    +0.000 C 
ATOM     13  C   UNL     1       3.786   4.212  18.848  0.00  0.00    +0.000 C 
ATOM     14  C   UNL     1       2.960   4.045  20.119  0.00  0.00    +0.000 C 
ATOM     15  C   UNL     1       2.547   2.582  20.286  0.00  0.00    +0.000 C 
ATOM     16  N   UNL     1       1.846   2.036  19.116  0.00  0.00    +0.000 NA
ATOM     17  C   UNL     1       0.506   2.603  18.949  0.00  0.00    +0.000 C 
ATOM     18  C   UNL     1       2.657   2.187  17.901  0.00  0.00    +0.000 C 
ATOM     19  C   UNL     1       3.082   3.636  17.612  0.00  0.00    +0.000 C 
ATOM     20  H   UNL     1       2.520   6.510  19.917  0.00  0.00    +0.000 HD
ENDBRANCH   5   7
BRANCH   1  22
ATOM     21  C   UNL     1      -0.002   9.483  22.862  0.00  0.00    +0.000 C 
ATOM     22  C   UNL     1       0.124  10.476  21.704  0.00  0.00    +0.000 C 
BRANCH  22  23
ATOM     23  S   UNL     1      -1.411  11.452  21.462  0.00  0.00    +0.000 S 
BRANCH  23  24
ATOM     24  C   UNL     1      -1.328  12.697  22.656  0.00  0.00    +0.000 A 
ATOM     25  N   UNL     1      -0.274  13.369  23.059  0.00  0.00    +0.000 NA
ATOM     26  N   UNL     1      -0.690  14.315  23.968  0.00  0.00    +0.000 NA
ATOM     27  C   UNL     1      -1.991  14.193  24.091  0.00  0.00    +0.000 A 
ATOM     28  N   UNL     1      -2.432  13.170  23.308  0.00  0.00    +0.000 N 
ATOM     29  C   UNL     1      -3.791  12.713  23.205  0.00  0.00    +0.000 C 
ENDBRANCH  23  24
ENDBRANCH  22  23
ENDBRANCH   1  22
TORSDOF 4
ENDMDL
MODEL 7
REMARK VINA RESULT:      -7.9      2.666      3.666
REMARK  Name = 
REMARK  7 active torsions:
REMARK  status: ('A' for Active; 'I' for Inactive)
REMARK    1  A    between atoms: C_1  and  C_2
REMARK    2  A    between atoms: C_2  and  S_3
REMARK    3  A    between atoms: C_2  and  C_10
REMARK    4  A    between atoms: S_3  and  C_4
REMARK    5  A    between atoms: N_8  and  C_9
REMARK    6  A    between atoms: C_14  and  N_15
REMARK    7  A    between atoms: N_24  and  C_25
REMARK                            x       y       z     vdW  Elec       q    Type
REMARK                         _______ _______ _______ _____ _____    ______ ____
ROOT
ATOM      1  C   UNL     1       0.824   9.902  19.761  0.00  0.00    +0.000 A 
ATOM      2  C   UNL     1       0.562   9.637  21.116  0.00  0.00    +0.000 A 
ATOM      3  C   UNL     1       1.058   8.486  21.728  0.00  0.00    +0.000 A 
ATOM      4  C   UNL     1       1.800   7.565  20.992  0.00  0.00    +0.000 A 
ATOM      5  C   UNL     1       2.020   7.767  19.633  0.00  0.00    +0.000 A 
ATOM      6  C   UNL     1       1.546   8.944  19.031  0.00  0.00    +0.000 A 
ENDROOT
BRANCH   5   7
ATOM      7  N   UNL     1       2.692   6.846  18.809  0.00  0.00    +0.000 N 
ATOM      8  C   UNL     1       2.565   5.476  18.813  0.00  0.00    +0.000 C 
ATOM      9  O   UNL     1       1.846   4.821  19.564  0.00  0.00    +0.000 OA
ATOM     10  N   UNL     1       3.251   4.869  17.783  0.00  0.00    +0.000 N 
ATOM     11  C   UNL     1       3.165   3.451  17.432  0.00  0.00    +0.000 C 
ATOM     12  C   UNL     1       4.266   3.770  16.407  0.00  0.00    +0.000 C 
ATOM     13  C   UNL     1       4.656   4.965  17.329  0.00  0.00    +0.000 C 
ATOM     14  C   UNL     1       4.980   6.282  16.631  0.00  0.00    +0.000 C 
ATOM     15  C   UNL     1       6.421   6.261  16.117  0.00  0.00    +0.000 C 
ATOM     16  N   UNL     1       7.407   5.952  17.161  0.00  0.00    +0.000 NA
ATOM     17  C   UNL     1       7.557   7.038  18.133  0.00  0.00    +0.000 C 
ATOM     18  C   UNL     1       7.095   4.675  17.816  0.00  0.00    +0.000 C 
ATOM     19  C   UNL     1       5.681   4.611  18.415  0.00  0.00    +0.000 C 
ATOM     20  H   UNL     1       3.064   7.224  17.953  0.00  0.00    +0.000 HD
ENDBRANCH   5   7
BRANCH   1  22
ATOM     21  C   UNL     1      -0.753  11.165  18.122  0.00  0.00    +0.000 C 
ATOM     22  C   UNL     1       0.370  11.222  19.161  0.00  0.00    +0.000 C 
BRANCH  22  23
ATOM     23  S   UNL     1       1.791  12.232  18.586  0.00  0.00    +0.000 S 
BRANCH  23  24
ATOM     24  C   UNL     1       2.121  13.303  19.900  0.00  0.00    +0.000 A 
ATOM     25  N   UNL     1       1.971  13.085  21.186  0.00  0.00    +0.000 NA
ATOM     26  N   UNL     1       2.434  14.188  21.866  0.00  0.00    +0.000 NA
ATOM     27  C   UNL     1       2.857  15.050  20.971  0.00  0.00    +0.000 A 
ATOM     28  N   UNL     1       2.655  14.549  19.721  0.00  0.00    +0.000 N 
ATOM     29  C   UNL     1       2.959  15.218  18.485  0.00  0.00    +0.000 C 
ENDBRANCH  23  24
ENDBRANCH  22  23
ENDBRANCH   1  22
TORSDOF 4
ENDMDL
MODEL 8
REMARK VINA RESULT:      -7.8      3.069      4.760
REMARK  Name = 
REMARK  7 active torsions:
REMARK  status: ('A' for Active; 'I' for Inactive)
REMARK    1  A    between atoms: C_1  and  C_2
REMARK    2  A    between atoms: C_2  and  S_3
REMARK    3  A    between atoms: C_2  and  C_10
REMARK    4  A    between atoms: S_3  and  C_4
REMARK    5  A    between atoms: N_8  and  C_9
REMARK    6  A    between atoms: C_14  and  N_15
REMARK    7  A    between atoms: N_24  and  C_25
REMARK                            x       y       z     vdW  Elec       q    Type
REMARK                         _______ _______ _______ _____ _____    ______ ____
ROOT
ATOM      1  C   UNL     1       0.100  10.637  20.207  0.00  0.00    +0.000 A 
ATOM      2  C   UNL     1      -0.377  10.475  21.520  0.00  0.00    +0.000 A 
ATOM      3  C   UNL     1       0.018   9.383  22.293  0.00  0.00    +0.000 A 
ATOM      4  C   UNL     1       0.872   8.420  21.762  0.00  0.00    +0.000 A 
ATOM      5  C   UNL     1       1.308   8.518  20.444  0.00  0.00    +0.000 A 
ATOM      6  C   UNL     1       0.933   9.636  19.682  0.00  0.00    +0.000 A 
ENDROOT
BRANCH   5   7
ATOM      7  N   UNL     1       2.108   7.547  19.816  0.00  0.00    +0.000 N 
ATOM      8  C   UNL     1       2.606   7.580  18.533  0.00  0.00    +0.000 C 
ATOM      9  O   UNL     1       2.412   8.469  17.707  0.00  0.00    +0.000 OA
ATOM     10  N   UNL     1       3.477   6.545  18.268  0.00  0.00    +0.000 N 
ATOM     11  C   UNL     1       4.289   6.415  17.057  0.00  0.00    +0.000 C 
ATOM     12  C   UNL     1       4.704   5.053  17.637  0.00  0.00    +0.000 C 
ATOM     13  C   UNL     1       3.362   5.079  18.429  0.00  0.00    +0.000 C 
ATOM     14  C   UNL     1       3.424   4.621  19.882  0.00  0.00    +0.000 C 
ATOM     15  C   UNL     1       3.387   3.094  19.951  0.00  0.00    +0.000 C 
ATOM     16  N   UNL     1       2.235   2.506  19.253  0.00  0.00    +0.000 NA
ATOM     17  C   UNL     1       0.968   2.768  19.941  0.00  0.00    +0.000 C 
ATOM     18  C   UNL     1       2.194   2.941  17.851  0.00  0.00    +0.000 C 
ATOM     19  C   UNL     1       2.175   4.467  17.673  0.00  0.00    +0.000 C 
ATOM     20  H   UNL     1       2.606   6.930  20.436  0.00  0.00    +0.000 HD
ENDBRANCH   5   7
BRANCH   1  22
ATOM     21  C   UNL     1      -1.347  11.778  18.370  0.00  0.00    +0.000 C 
ATOM     22  C   UNL     1      -0.257  11.898  19.438  0.00  0.00    +0.000 C 
BRANCH  22  23
ATOM     23  S   UNL     1       1.239  12.752  18.804  0.00  0.00    +0.000 S 
BRANCH  23  24
ATOM     24  C   UNL     1       1.751  13.758  20.112  0.00  0.00    +0.000 A 
ATOM     25  N   UNL     1       1.757  13.483  21.396  0.00  0.00    +0.000 NA
ATOM     26  N   UNL     1       2.323  14.548  22.060  0.00  0.00    +0.000 NA
ATOM     27  C   UNL     1       2.649  15.444  21.157  0.00  0.00    +0.000 A 
ATOM     28  N   UNL     1       2.282  15.003  19.921  0.00  0.00    +0.000 N 
ATOM     29  C   UNL     1       2.443  15.724  18.687  0.00  0.00    +0.000 C 
ENDBRANCH  23  24
ENDBRANCH  22  23
ENDBRANCH   1  22
TORSDOF 4
ENDMDL
MODEL 9
REMARK VINA RESULT:      -7.8      2.592      4.297
REMARK  Name = 
REMARK  7 active torsions:
REMARK  status: ('A' for Active; 'I' for Inactive)
REMARK    1  A    between atoms: C_1  and  C_2
REMARK    2  A    between atoms: C_2  and  S_3
REMARK    3  A    between atoms: C_2  and  C_10
REMARK    4  A    between atoms: S_3  and  C_4
REMARK    5  A    between atoms: N_8  and  C_9
REMARK    6  A    between atoms: C_14  and  N_15
REMARK    7  A    between atoms: N_24  and  C_25
REMARK                            x       y       z     vdW  Elec       q    Type
REMARK                         _______ _______ _______ _____ _____    ______ ____
ROOT
ATOM      1  C   UNL     1      -0.591  10.369  20.348  0.00  0.00    +0.000 A 
ATOM      2  C   UNL     1      -0.562  10.555  21.741  0.00  0.00    +0.000 A 
ATOM      3  C   UNL     1       0.348   9.860  22.537  0.00  0.00    +0.000 A 
ATOM      4  C   UNL     1       1.227   8.946  21.961  0.00  0.00    +0.000 A 
ATOM      5  C   UNL     1       1.178   8.691  20.594  0.00  0.00    +0.000 A 
ATOM      6  C   UNL     1       0.282   9.418  19.794  0.00  0.00    +0.000 A 
ENDROOT
BRANCH   5   7
ATOM      7  N   UNL     1       1.979   7.728  19.953  0.00  0.00    +0.000 N 
ATOM      8  C   UNL     1       2.504   7.792  18.683  0.00  0.00    +0.000 C 
ATOM      9  O   UNL     1       2.338   8.707  17.879  0.00  0.00    +0.000 OA
ATOM     10  N   UNL     1       3.368   6.754  18.405  0.00  0.00    +0.000 N 
ATOM     11  C   UNL     1       4.203   6.649  17.208  0.00  0.00    +0.000 C 
ATOM     12  C   UNL     1       4.589   5.265  17.756  0.00  0.00    +0.000 C 
ATOM     13  C   UNL     1       3.232   5.286  18.521  0.00  0.00    +0.000 C 
ATOM     14  C   UNL     1       3.258   4.785  19.961  0.00  0.00    +0.000 C 
ATOM     15  C   UNL     1       3.201   3.256  19.984  0.00  0.00    +0.000 C 
ATOM     16  N   UNL     1       2.057   2.704  19.246  0.00  0.00    +0.000 NA
ATOM     17  C   UNL     1       0.779   2.962  19.914  0.00  0.00    +0.000 C 
ATOM     18  C   UNL     1       2.050   3.180  17.856  0.00  0.00    +0.000 C 
ATOM     19  C   UNL     1       2.054   4.711  17.723  0.00  0.00    +0.000 C 
ATOM     20  H   UNL     1       2.456   7.087  20.565  0.00  0.00    +0.000 HD
ENDBRANCH   5   7
BRANCH   1  22
ATOM     21  C   UNL     1      -1.704  10.819  18.039  0.00  0.00    +0.000 C 
ATOM     22  C   UNL     1      -1.513  11.230  19.502  0.00  0.00    +0.000 C 
BRANCH  22  23
ATOM     23  S   UNL     1      -1.121  13.015  19.671  0.00  0.00    +0.000 S 
BRANCH  23  24
ATOM     24  C   UNL     1       0.586  13.109  19.425  0.00  0.00    +0.000 A 
ATOM     25  N   UNL     1       1.286  12.676  18.401  0.00  0.00    +0.000 NA
ATOM     26  N   UNL     1       2.599  13.036  18.596  0.00  0.00    +0.000 NA
ATOM     27  C   UNL     1       2.663  13.684  19.737  0.00  0.00    +0.000 A 
ATOM     28  N   UNL     1       1.426  13.729  20.307  0.00  0.00    +0.000 N 
ATOM     29  C   UNL     1       1.105  14.323  21.576  0.00  0.00    +0.000 C 
ENDBRANCH  23  24
ENDBRANCH  22  23
ENDBRANCH   1  22
TORSDOF 4
ENDMDL
