MODEL 1
REMARK VINA RESULT:      -8.6      0.000      0.000
REMARK  Name = 
REMARK  7 active torsions:
REMARK  status: ('A' for Active; 'I' for Inactive)
REMARK    1  A    between atoms: C_1  and  N_2
REMARK    2  A    between atoms: C_6  and  C_7
REMARK    3  A    between atoms: C_7  and  C_8
REMARK    4  A    between atoms: C_8  and  C_9
REMARK    5  A    between atoms: C_13  and  N_14
REMARK    6  A    between atoms: C_15  and  C_17
REMARK    7  A    between atoms: C_19  and  C_20
REMARK                            x       y       z     vdW  Elec       q    Type
REMARK                         _______ _______ _______ _____ _____    ______ ____
ROOT
ATOM      1  C   UNL     1       4.552   4.999  17.210  0.00  0.00    +0.000 A 
ATOM      2  C   UNL     1       3.731   3.855  17.155  0.00  0.00    +0.000 A 
ATOM      3  C   UNL     1       2.397   3.890  17.552  0.00  0.00    +0.000 A 
ATOM      4  C   UNL     1       1.842   5.076  18.024  0.00  0.00    +0.000 A 
ATOM      5  C   UNL     1       2.610   6.237  18.101  0.00  0.00    +0.000 A 
ATOM      6  C   UNL     1       3.944   6.190  17.676  0.00  0.00    +0.000 A 
ENDROOT
BRANCH   1   7
ATOM      7  C   UNL     1       6.103   4.944  16.777  0.00  0.00    +0.000 C 
ATOM      8  C   UNL     1       7.120   4.695  17.928  0.00  0.00    +0.000 C 
ATOM      9  O   UNL     1       7.807   5.935  17.680  0.00  0.00    +0.000 OA
ATOM     10  C   UNL     1       6.867   6.293  16.645  0.00  0.00    +0.000 C 
BRANCH   7  11
ATOM     11  C   UNL     1       6.304   3.958  15.606  0.00  0.00    +0.000 C 
BRANCH  11  17
ATOM     12  C   UNL     1       5.687   3.366  12.545  0.00  0.00    +0.000 C 
ATOM     13  N   UNL     1       6.658   4.279  13.085  0.00  0.00    +0.000 N 
ATOM     14  C   UNL     1       7.522   5.024  12.340  0.00  0.00    +0.000 A 
ATOM     15  N   UNL     1       8.264   5.758  13.132  0.00  0.00    +0.000 NA
ATOM     16  N   UNL     1       7.894   5.477  14.422  0.00  0.00    +0.000 NA
ATOM     17  C   UNL     1       6.931   4.576  14.399  0.00  0.00    +0.000 A 
ENDBRANCH  11  17
ENDBRANCH   7  11
ENDBRANCH   1   7
BRANCH   5  18
ATOM     18  N   UNL     1       2.103   7.470  18.564  0.00  0.00    +0.000 N 
ATOM     19  C   UNL     1       1.733   7.773  19.873  0.00  0.00    +0.000 C 
ATOM     20  O   UNL     1       1.932   7.024  20.827  0.00  0.00    +0.000 OA
ATOM     21  H   UNL     1       2.027   8.236  17.900  0.00  0.00    +0.000 HD
BRANCH  19  22
ATOM     22  C   UNL     1       1.090   9.076  20.016  0.00  0.00    +0.000 A 
ATOM     23  N   UNL     1       0.454   9.480  21.100  0.00  0.00    +0.000 NA
ATOM     24  C   UNL     1       0.035  10.813  20.938  0.00  0.00    +0.000 A 
ATOM     25  C   UNL     1       0.354  11.356  19.705  0.00  0.00    +0.000 A 
ATOM     26  S   UNL     1       1.180  10.217  18.737  0.00  0.00    +0.000 S 
BRANCH  24  27
ATOM     27  C   UNL     1      -0.669  11.565  22.033  0.00  0.00    +0.000 C 
ATOM     28  F   UNL     1      -0.718  10.886  23.205  0.00  0.00    +0.000 F 
ATOM     29  F   UNL     1      -0.054  12.752  22.289  0.00  0.00    +0.000 F 
ATOM     30  F   UNL     1      -1.950  11.863  21.691  0.00  0.00    +0.000 F 
ENDBRANCH  24  27
ENDBRANCH  19  22
ENDBRANCH   5  18
TORSDOF 6
ENDMDL
MODEL 2
REMARK VINA RESULT:      -8.6      1.256      1.500
REMARK  Name = 
REMARK  7 active torsions:
REMARK  status: ('A' for Active; 'I' for Inactive)
REMARK    1  A    between atoms: C_1  and  N_2
REMARK    2  A    between atoms: C_6  and  C_7
REMARK    3  A    between atoms: C_7  and  C_8
REMARK    4  A    between atoms: C_8  and  C_9
REMARK    5  A    between atoms: C_13  and  N_14
REMARK    6  A    between atoms: C_15  and  C_17
REMARK    7  A    between atoms: C_19  and  C_20
REMARK                            x       y       z     vdW  Elec       q    Type
REMARK                         _______ _______ _______ _____ _____    ______ ____
ROOT
ATOM      1  C   UNL     1       4.598   4.912  17.203  0.00  0.00    +0.000 A 
ATOM      2  C   UNL     1       3.742   3.807  17.025  0.00  0.00    +0.000 A 
ATOM      3  C   UNL     1       2.412   3.835  17.434  0.00  0.00    +0.000 A 
ATOM      4  C   UNL     1       1.895   4.976  18.043  0.00  0.00    +0.000 A 
ATOM      5  C   UNL     1       2.699   6.097  18.245  0.00  0.00    +0.000 A 
ATOM      6  C   UNL     1       4.029   6.059  17.806  0.00  0.00    +0.000 A 
ENDROOT
BRANCH   1   7
ATOM      7  C   UNL     1       6.143   4.861  16.753  0.00  0.00    +0.000 C 
ATOM      8  C   UNL     1       7.170   4.571  17.887  0.00  0.00    +0.000 C 
ATOM      9  O   UNL     1       7.862   5.814  17.669  0.00  0.00    +0.000 OA
ATOM     10  C   UNL     1       6.915   6.209  16.655  0.00  0.00    +0.000 C 
BRANCH   7  11
ATOM     11  C   UNL     1       6.327   3.909  15.552  0.00  0.00    +0.000 C 
BRANCH  11  17
ATOM     12  C   UNL     1       5.786   3.332  12.473  0.00  0.00    +0.000 C 
ATOM     13  N   UNL     1       6.722   4.264  13.041  0.00  0.00    +0.000 N 
ATOM     14  C   UNL     1       7.579   5.039  12.320  0.00  0.00    +0.000 A 
ATOM     15  N   UNL     1       8.286   5.784  13.133  0.00  0.00    +0.000 NA
ATOM     16  N   UNL     1       7.900   5.481  14.414  0.00  0.00    +0.000 NA
ATOM     17  C   UNL     1       6.961   4.555  14.363  0.00  0.00    +0.000 A 
ENDBRANCH  11  17
ENDBRANCH   7  11
ENDBRANCH   1   7
BRANCH   5  18
ATOM     18  N   UNL     1       2.231   7.283  18.850  0.00  0.00    +0.000 N 
ATOM     19  C   UNL     1       1.752   7.415  20.152  0.00  0.00    +0.000 C 
ATOM     20  O   UNL     1       1.803   6.517  20.990  0.00  0.00    +0.000 OA
ATOM     21  H   UNL     1       2.275   8.144  18.311  0.00  0.00    +0.000 HD
BRANCH  19  22
ATOM     22  C   UNL     1       1.187   8.730  20.442  0.00  0.00    +0.000 A 
ATOM     23  N   UNL     1       0.753   9.574  19.525  0.00  0.00    +0.000 NA
ATOM     24  C   UNL     1       0.189  10.704  20.147  0.00  0.00    +0.000 A 
ATOM     25  C   UNL     1       0.249  10.673  21.530  0.00  0.00    +0.000 A 
ATOM     26  S   UNL     1       1.004   9.240  22.071  0.00  0.00    +0.000 S 
BRANCH  24  27
ATOM     27  C   UNL     1      -0.442  11.816  19.355  0.00  0.00    +0.000 C 
ATOM     28  F   UNL     1      -1.458  12.430  20.008  0.00  0.00    +0.000 F 
ATOM     29  F   UNL     1       0.469  12.778  19.046  0.00  0.00    +0.000 F 
ATOM     30  F   UNL     1      -0.941  11.366  18.173  0.00  0.00    +0.000 F 
ENDBRANCH  24  27
ENDBRANCH  19  22
ENDBRANCH   5  18
TORSDOF 6
ENDMDL
MODEL 3
REMARK VINA RESULT:      -8.3      2.771      3.945
REMARK  Name = 
REMARK  7 active torsions:
REMARK  status: ('A' for Active; 'I' for Inactive)
REMARK    1  A    between atoms: C_1  and  N_2
REMARK    2  A    between atoms: C_6  and  C_7
REMARK    3  A    between atoms: C_7  and  C_8
REMARK    4  A    between atoms: C_8  and  C_9
REMARK    5  A    between atoms: C_13  and  N_14
REMARK    6  A    between atoms: C_15  and  C_17
REMARK    7  A    between atoms: C_19  and  C_20
REMARK                            x       y       z     vdW  Elec       q    Type
REMARK                         _______ _______ _______ _____ _____    ______ ____
ROOT
ATOM      1  C   UNL     1       3.069   5.719  18.509  0.00  0.00    +0.000 A 
ATOM      2  C   UNL     1       3.672   6.393  17.428  0.00  0.00    +0.000 A 
ATOM      3  C   UNL     1       3.494   7.758  17.223  0.00  0.00    +0.000 A 
ATOM      4  C   UNL     1       2.696   8.494  18.094  0.00  0.00    +0.000 A 
ATOM      5  C   UNL     1       2.074   7.878  19.179  0.00  0.00    +0.000 A 
ATOM      6  C   UNL     1       2.283   6.508  19.384  0.00  0.00    +0.000 A 
ENDROOT
BRANCH   1   7
ATOM      7  C   UNL     1       3.257   4.134  18.724  0.00  0.00    +0.000 C 
ATOM      8  C   UNL     1       2.052   3.245  18.298  0.00  0.00    +0.000 C 
ATOM      9  O   UNL     1       1.892   2.710  19.624  0.00  0.00    +0.000 OA
ATOM     10  C   UNL     1       2.947   3.552  20.133  0.00  0.00    +0.000 C 
BRANCH   7  11
ATOM     11  C   UNL     1       4.580   3.654  18.090  0.00  0.00    +0.000 C 
BRANCH  11  17
ATOM     12  C   UNL     1       7.031   4.672  16.341  0.00  0.00    +0.000 C 
ATOM     13  N   UNL     1       6.834   4.834  17.756  0.00  0.00    +0.000 N 
ATOM     14  C   UNL     1       7.721   5.434  18.599  0.00  0.00    +0.000 A 
ATOM     15  N   UNL     1       7.239   5.431  19.817  0.00  0.00    +0.000 NA
ATOM     16  N   UNL     1       6.021   4.801  19.778  0.00  0.00    +0.000 NA
ATOM     17  C   UNL     1       5.777   4.430  18.535  0.00  0.00    +0.000 A 
ENDBRANCH  11  17
ENDBRANCH   7  11
ENDBRANCH   1   7
BRANCH   5  18
ATOM     18  N   UNL     1       1.260   8.572  20.099  0.00  0.00    +0.000 N 
ATOM     19  C   UNL     1       0.370   9.603  19.803  0.00  0.00    +0.000 C 
ATOM     20  O   UNL     1       0.088   9.951  18.659  0.00  0.00    +0.000 OA
ATOM     21  H   UNL     1       1.283   8.280  21.073  0.00  0.00    +0.000 HD
BRANCH  19  22
ATOM     22  C   UNL     1      -0.211  10.236  20.984  0.00  0.00    +0.000 A 
ATOM     23  N   UNL     1      -0.982  11.307  20.954  0.00  0.00    +0.000 NA
ATOM     24  C   UNL     1      -1.443  11.598  22.252  0.00  0.00    +0.000 A 
ATOM     25  C   UNL     1      -0.969  10.734  23.224  0.00  0.00    +0.000 A 
ATOM     26  S   UNL     1       0.053   9.552  22.536  0.00  0.00    +0.000 S 
BRANCH  24  27
ATOM     27  C   UNL     1      -2.391  12.734  22.523  0.00  0.00    +0.000 C 
ATOM     28  F   UNL     1      -2.732  12.848  23.830  0.00  0.00    +0.000 F 
ATOM     29  F   UNL     1      -1.850  13.926  22.150  0.00  0.00    +0.000 F 
ATOM     30  F   UNL     1      -3.546  12.599  21.819  0.00  0.00    +0.000 F 
ENDBRANCH  24  27
ENDBRANCH  19  22
ENDBRANCH   5  18
TORSDOF 6
ENDMDL
MODEL 4
REMARK VINA RESULT:      -8.2      1.513      1.858
REMARK  Name = 
REMARK  7 active torsions:
REMARK  status: ('A' for Active; 'I' for Inactive)
REMARK    1  A    between atoms: C_1  and  N_2
REMARK    2  A    between atoms: C_6  and  C_7
REMARK    3  A    between atoms: C_7  and  C_8
REMARK    4  A    between atoms: C_8  and  C_9
REMARK    5  A    between atoms: C_13  and  N_14
REMARK    6  A    between atoms: C_15  and  C_17
REMARK    7  A    between atoms: C_19  and  C_20
REMARK                            x       y       z     vdW  Elec       q    Type
REMARK                         _______ _______ _______ _____ _____    ______ ____
ROOT
ATOM      1  C   UNL     1       4.551   5.017  17.257  0.00  0.00    +0.000 A 
ATOM      2  C   UNL     1       3.751   3.866  17.113  0.00  0.00    +0.000 A 
ATOM      3  C   UNL     1       2.423   3.838  17.531  0.00  0.00    +0.000 A 
ATOM      4  C   UNL     1       1.854   4.966  18.114  0.00  0.00    +0.000 A 
ATOM      5  C   UNL     1       2.600   6.132  18.282  0.00  0.00    +0.000 A 
ATOM      6  C   UNL     1       3.928   6.150  17.835  0.00  0.00    +0.000 A 
ENDROOT
BRANCH   1   7
ATOM      7  C   UNL     1       6.094   5.033  16.797  0.00  0.00    +0.000 C 
ATOM      8  C   UNL     1       7.143   4.880  17.938  0.00  0.00    +0.000 C 
ATOM      9  O   UNL     1       7.755   6.147  17.636  0.00  0.00    +0.000 OA
ATOM     10  C   UNL     1       6.780   6.416  16.607  0.00  0.00    +0.000 C 
BRANCH   7  11
ATOM     11  C   UNL     1       6.331   4.019  15.658  0.00  0.00    +0.000 C 
BRANCH  11  17
ATOM     12  C   UNL     1       5.715   3.362  12.609  0.00  0.00    +0.000 C 
ATOM     13  N   UNL     1       6.679   4.293  13.130  0.00  0.00    +0.000 N 
ATOM     14  C   UNL     1       7.535   5.032  12.368  0.00  0.00    +0.000 A 
ATOM     15  N   UNL     1       8.272   5.787  13.145  0.00  0.00    +0.000 NA
ATOM     16  N   UNL     1       7.906   5.528  14.441  0.00  0.00    +0.000 NA
ATOM     17  C   UNL     1       6.951   4.618  14.437  0.00  0.00    +0.000 A 
ENDBRANCH  11  17
ENDBRANCH   7  11
ENDBRANCH   1   7
BRANCH   5  18
ATOM     18  N   UNL     1       2.077   7.308  18.860  0.00  0.00    +0.000 N 
ATOM     19  C   UNL     1       2.030   8.569  18.270  0.00  0.00    +0.000 C 
ATOM     20  O   UNL     1       2.328   8.784  17.097  0.00  0.00    +0.000 OA
ATOM     21  H   UNL     1       1.655   7.241  19.782  0.00  0.00    +0.000 HD
BRANCH  19  22
ATOM     22  C   UNL     1       1.581   9.626  19.173  0.00  0.00    +0.000 A 
ATOM     23  N   UNL     1       1.522  10.905  18.855  0.00  0.00    +0.000 NA
ATOM     24  C   UNL     1       0.962  11.636  19.919  0.00  0.00    +0.000 A 
ATOM     25  C   UNL     1       0.642  10.864  21.024  0.00  0.00    +0.000 A 
ATOM     26  S   UNL     1       1.034   9.224  20.750  0.00  0.00    +0.000 S 
BRANCH  24  27
ATOM     27  C   UNL     1       0.715  13.116  19.826  0.00  0.00    +0.000 C 
ATOM     28  F   UNL     1      -0.200  13.450  18.883  0.00  0.00    +0.000 F 
ATOM     29  F   UNL     1       0.266  13.616  21.009  0.00  0.00    +0.000 F 
ATOM     30  F   UNL     1       1.857  13.794  19.532  0.00  0.00    +0.000 F 
ENDBRANCH  24  27
ENDBRANCH  19  22
ENDBRANCH   5  18
TORSDOF 6
ENDMDL
MODEL 5
REMARK VINA RESULT:      -8.2      5.089      9.490
REMARK  Name = 
REMARK  7 active torsions:
REMARK  status: ('A' for Active; 'I' for Inactive)
REMARK    1  A    between atoms: C_1  and  N_2
REMARK    2  A    between atoms: C_6  and  C_7
REMARK    3  A    between atoms: C_7  and  C_8
REMARK    4  A    between atoms: C_8  and  C_9
REMARK    5  A    between atoms: C_13  and  N_14
REMARK    6  A    between atoms: C_15  and  C_17
REMARK    7  A    between atoms: C_19  and  C_20
REMARK                            x       y       z     vdW  Elec       q    Type
REMARK                         _______ _______ _______ _____ _____    ______ ____
ROOT
ATOM      1  C   UNL     1      -0.349  10.059  20.263  0.00  0.00    +0.000 A 
ATOM      2  C   UNL     1      -0.401  10.265  21.656  0.00  0.00    +0.000 A 
ATOM      3  C   UNL     1       0.422   9.563  22.533  0.00  0.00    +0.000 A 
ATOM      4  C   UNL     1       1.324   8.624  22.039  0.00  0.00    +0.000 A 
ATOM      5  C   UNL     1       1.416   8.380  20.670  0.00  0.00    +0.000 A 
ATOM      6  C   UNL     1       0.597   9.112  19.800  0.00  0.00    +0.000 A 
ENDROOT
BRANCH   1   7
ATOM      7  C   UNL     1      -1.324  10.855  19.258  0.00  0.00    +0.000 C 
ATOM      8  C   UNL     1      -0.638  11.912  18.343  0.00  0.00    +0.000 C 
ATOM      9  O   UNL     1      -1.438  12.985  18.871  0.00  0.00    +0.000 OA
ATOM     10  C   UNL     1      -2.079  12.098  19.811  0.00  0.00    +0.000 C 
BRANCH   7  11
ATOM     11  C   UNL     1      -2.189   9.867  18.447  0.00  0.00    +0.000 C 
BRANCH  11  17
ATOM     12  C   UNL     1      -5.089  11.152  18.244  0.00  0.00    +0.000 C 
ATOM     13  N   UNL     1      -4.117  11.008  17.194  0.00  0.00    +0.000 N 
ATOM     14  C   UNL     1      -4.315  11.375  15.897  0.00  0.00    +0.000 A 
ATOM     15  N   UNL     1      -3.234  11.122  15.200  0.00  0.00    +0.000 NA
ATOM     16  N   UNL     1      -2.315  10.562  16.051  0.00  0.00    +0.000 NA
ATOM     17  C   UNL     1      -2.849  10.482  17.255  0.00  0.00    +0.000 A 
ENDBRANCH  11  17
ENDBRANCH   7  11
ENDBRANCH   1   7
BRANCH   5  18
ATOM     18  N   UNL     1       2.314   7.447  20.110  0.00  0.00    +0.000 N 
ATOM     19  C   UNL     1       2.229   6.059  20.202  0.00  0.00    +0.000 C 
ATOM     20  O   UNL     1       1.267   5.467  20.684  0.00  0.00    +0.000 OA
ATOM     21  H   UNL     1       3.085   7.802  19.549  0.00  0.00    +0.000 HD
BRANCH  19  22
ATOM     22  C   UNL     1       3.392   5.361  19.661  0.00  0.00    +0.000 A 
ATOM     23  N   UNL     1       4.550   5.935  19.393  0.00  0.00    +0.000 NA
ATOM     24  C   UNL     1       5.478   4.964  18.974  0.00  0.00    +0.000 A 
ATOM     25  C   UNL     1       4.961   3.681  18.916  0.00  0.00    +0.000 A 
ATOM     26  S   UNL     1       3.319   3.668  19.384  0.00  0.00    +0.000 S 
BRANCH  24  27
ATOM     27  C   UNL     1       6.905   5.313  18.653  0.00  0.00    +0.000 C 
ATOM     28  F   UNL     1       7.652   5.584  19.751  0.00  0.00    +0.000 F 
ATOM     29  F   UNL     1       7.524   4.295  17.995  0.00  0.00    +0.000 F 
ATOM     30  F   UNL     1       6.982   6.399  17.839  0.00  0.00    +0.000 F 
ENDBRANCH  24  27
ENDBRANCH  19  22
ENDBRANCH   5  18
TORSDOF 6
ENDMDL
MODEL 6
REMARK VINA RESULT:      -8.2      5.315      9.380
REMARK  Name = 
REMARK  7 active torsions:
REMARK  status: ('A' for Active; 'I' for Inactive)
REMARK    1  A    between atoms: C_1  and  N_2
REMARK    2  A    between atoms: C_6  and  C_7
REMARK    3  A    between atoms: C_7  and  C_8
REMARK    4  A    between atoms: C_8  and  C_9
REMARK    5  A    between atoms: C_13  and  N_14
REMARK    6  A    between atoms: C_15  and  C_17
REMARK    7  A    between atoms: C_19  and  C_20
REMARK                            x       y       z     vdW  Elec       q    Type
REMARK                         _______ _______ _______ _____ _____    ______ ____
ROOT
ATOM      1  C   UNL     1       1.751   6.877  20.199  0.00  0.00    +0.000 A 
ATOM      2  C   UNL     1       1.342   5.803  21.015  0.00  0.00    +0.000 A 
ATOM      3  C   UNL     1       1.726   4.492  20.749  0.00  0.00    +0.000 A 
ATOM      4  C   UNL     1       2.531   4.212  19.648  0.00  0.00    +0.000 A 
ATOM      5  C   UNL     1       2.963   5.237  18.807  0.00  0.00    +0.000 A 
ATOM      6  C   UNL     1       2.586   6.553  19.103  0.00  0.00    +0.000 A 
ENDROOT
BRANCH   1   7
ATOM      7  C   UNL     1       1.279   8.388  20.497  0.00  0.00    +0.000 C 
ATOM      8  C   UNL     1       1.751   8.990  21.853  0.00  0.00    +0.000 C 
ATOM      9  O   UNL     1       0.402   9.211  22.301  0.00  0.00    +0.000 OA
ATOM     10  C   UNL     1      -0.135   8.598  21.110  0.00  0.00    +0.000 C 
BRANCH   7  11
ATOM     11  C   UNL     1       1.624   9.308  19.307  0.00  0.00    +0.000 C 
BRANCH  11  17
ATOM     12  C   UNL     1       0.906  12.224  20.351  0.00  0.00    +0.000 C 
ATOM     13  N   UNL     1       0.198  11.441  19.374  0.00  0.00    +0.000 N 
ATOM     14  C   UNL     1      -0.953  11.828  18.756  0.00  0.00    +0.000 A 
ATOM     15  N   UNL     1      -1.334  10.897  17.916  0.00  0.00    +0.000 NA
ATOM     16  N   UNL     1      -0.426   9.871  17.996  0.00  0.00    +0.000 NA
ATOM     17  C   UNL     1       0.496  10.192  18.883  0.00  0.00    +0.000 A 
ENDBRANCH  11  17
ENDBRANCH   7  11
ENDBRANCH   1   7
BRANCH   5  18
ATOM     18  N   UNL     1       3.784   5.017  17.680  0.00  0.00    +0.000 N 
ATOM     19  C   UNL     1       5.028   4.389  17.674  0.00  0.00    +0.000 C 
ATOM     20  O   UNL     1       5.511   3.823  18.652  0.00  0.00    +0.000 OA
ATOM     21  H   UNL     1       3.435   5.305  16.770  0.00  0.00    +0.000 HD
BRANCH  19  22
ATOM     22  C   UNL     1       5.713   4.455  16.386  0.00  0.00    +0.000 A 
ATOM     23  N   UNL     1       5.313   3.831  15.294  0.00  0.00    +0.000 NA
ATOM     24  C   UNL     1       6.144   4.180  14.213  0.00  0.00    +0.000 A 
ATOM     25  C   UNL     1       7.170   5.046  14.551  0.00  0.00    +0.000 A 
ATOM     26  S   UNL     1       7.111   5.437  16.212  0.00  0.00    +0.000 S 
BRANCH  24  27
ATOM     27  C   UNL     1       5.898   3.666  12.822  0.00  0.00    +0.000 C 
ATOM     28  F   UNL     1       6.120   2.336  12.693  0.00  0.00    +0.000 F 
ATOM     29  F   UNL     1       4.613   3.892  12.434  0.00  0.00    +0.000 F 
ATOM     30  F   UNL     1       6.689   4.293  11.911  0.00  0.00    +0.000 F 
ENDBRANCH  24  27
ENDBRANCH  19  22
ENDBRANCH   5  18
TORSDOF 6
ENDMDL
MODEL 7
REMARK VINA RESULT:      -8.1      2.153      2.610
REMARK  Name = 
REMARK  7 active torsions:
REMARK  status: ('A' for Active; 'I' for Inactive)
REMARK    1  A    between atoms: C_1  and  N_2
REMARK    2  A    between atoms: C_6  and  C_7
REMARK    3  A    between atoms: C_7  and  C_8
REMARK    4  A    between atoms: C_8  and  C_9
REMARK    5  A    between atoms: C_13  and  N_14
REMARK    6  A    between atoms: C_15  and  C_17
REMARK    7  A    between atoms: C_19  and  C_20
REMARK                            x       y       z     vdW  Elec       q    Type
REMARK                         _______ _______ _______ _____ _____    ______ ____
ROOT
ATOM      1  C   UNL     1       5.318   5.591  18.550  0.00  0.00    +0.000 A 
ATOM      2  C   UNL     1       4.795   4.348  18.958  0.00  0.00    +0.000 A 
ATOM      3  C   UNL     1       3.472   4.205  19.364  0.00  0.00    +0.000 A 
ATOM      4  C   UNL     1       2.626   5.312  19.380  0.00  0.00    +0.000 A 
ATOM      5  C   UNL     1       3.091   6.566  18.988  0.00  0.00    +0.000 A 
ATOM      6  C   UNL     1       4.420   6.686  18.561  0.00  0.00    +0.000 A 
ENDROOT
BRANCH   1   7
ATOM      7  C   UNL     1       6.858   5.754  18.109  0.00  0.00    +0.000 C 
ATOM      8  C   UNL     1       7.863   6.067  19.257  0.00  0.00    +0.000 C 
ATOM      9  O   UNL     1       8.275   7.304  18.649  0.00  0.00    +0.000 OA
ATOM     10  C   UNL     1       7.319   7.143  17.580  0.00  0.00    +0.000 C 
BRANCH   7  11
ATOM     11  C   UNL     1       7.310   4.544  17.263  0.00  0.00    +0.000 C 
BRANCH  11  17
ATOM     12  C   UNL     1       4.761   3.393  15.752  0.00  0.00    +0.000 C 
ATOM     13  N   UNL     1       5.861   4.128  15.186  0.00  0.00    +0.000 N 
ATOM     14  C   UNL     1       6.002   4.415  13.862  0.00  0.00    +0.000 A 
ATOM     15  N   UNL     1       7.102   5.104  13.678  0.00  0.00    +0.000 NA
ATOM     16  N   UNL     1       7.703   5.257  14.901  0.00  0.00    +0.000 NA
ATOM     17  C   UNL     1       6.961   4.660  15.814  0.00  0.00    +0.000 A 
ENDBRANCH  11  17
ENDBRANCH   7  11
ENDBRANCH   1   7
BRANCH   5  18
ATOM     18  N   UNL     1       2.282   7.722  18.977  0.00  0.00    +0.000 N 
ATOM     19  C   UNL     1       1.679   8.321  20.081  0.00  0.00    +0.000 C 
ATOM     20  O   UNL     1       1.893   7.979  21.242  0.00  0.00    +0.000 OA
ATOM     21  H   UNL     1       2.143   8.200  18.090  0.00  0.00    +0.000 HD
BRANCH  19  22
ATOM     22  C   UNL     1       0.768   9.408  19.737  0.00  0.00    +0.000 A 
ATOM     23  N   UNL     1       0.001   9.428  18.663  0.00  0.00    +0.000 NA
ATOM     24  C   UNL     1      -0.818  10.573  18.683  0.00  0.00    +0.000 A 
ATOM     25  C   UNL     1      -0.608  11.394  19.778  0.00  0.00    +0.000 A 
ATOM     26  S   UNL     1       0.605  10.752  20.793  0.00  0.00    +0.000 S 
BRANCH  24  27
ATOM     27  C   UNL     1      -1.840  10.838  17.613  0.00  0.00    +0.000 C 
ATOM     28  F   UNL     1      -1.781   9.959  16.583  0.00  0.00    +0.000 F 
ATOM     29  F   UNL     1      -3.104  10.777  18.114  0.00  0.00    +0.000 F 
ATOM     30  F   UNL     1      -1.697  12.082  17.084  0.00  0.00    +0.000 F 
ENDBRANCH  24  27
ENDBRANCH  19  22
ENDBRANCH   5  18
TORSDOF 6
ENDMDL
MODEL 8
REMARK VINA RESULT:      -8.0      4.755      9.889
REMARK  Name = 
REMARK  7 active torsions:
REMARK  status: ('A' for Active; 'I' for Inactive)
REMARK    1  A    between atoms: C_1  and  N_2
REMARK    2  A    between atoms: C_6  and  C_7
REMARK    3  A    between atoms: C_7  and  C_8
REMARK    4  A    between atoms: C_8  and  C_9
REMARK    5  A    between atoms: C_13  and  N_14
REMARK    6  A    between atoms: C_15  and  C_17
REMARK    7  A    between atoms: C_19  and  C_20
REMARK                            x       y       z     vdW  Elec       q    Type
REMARK                         _______ _______ _______ _____ _____    ______ ____
ROOT
ATOM      1  C   UNL     1       0.161  10.579  20.288  0.00  0.00    +0.000 A 
ATOM      2  C   UNL     1      -0.025  10.349  21.666  0.00  0.00    +0.000 A 
ATOM      3  C   UNL     1       0.510   9.233  22.302  0.00  0.00    +0.000 A 
ATOM      4  C   UNL     1       1.247   8.303  21.573  0.00  0.00    +0.000 A 
ATOM      5  C   UNL     1       1.460   8.481  20.207  0.00  0.00    +0.000 A 
ATOM      6  C   UNL     1       0.935   9.622  19.588  0.00  0.00    +0.000 A 
ENDROOT
BRANCH   1   7
ATOM      7  C   UNL     1      -0.485  11.859  19.553  0.00  0.00    +0.000 C 
ATOM      8  C   UNL     1      -1.705  12.507  20.270  0.00  0.00    +0.000 C 
ATOM      9  O   UNL     1      -2.570  12.286  19.142  0.00  0.00    +0.000 OA
ATOM     10  C   UNL     1      -1.524  11.599  18.424  0.00  0.00    +0.000 C 
BRANCH   7  11
ATOM     11  C   UNL     1       0.606  12.899  19.218  0.00  0.00    +0.000 C 
BRANCH  11  17
ATOM     12  C   UNL     1      -0.192  15.965  19.484  0.00  0.00    +0.000 C 
ATOM     13  N   UNL     1       0.567  15.170  20.412  0.00  0.00    +0.000 N 
ATOM     14  C   UNL     1       1.114  15.639  21.568  0.00  0.00    +0.000 A 
ATOM     15  N   UNL     1       1.730  14.663  22.189  0.00  0.00    +0.000 NA
ATOM     16  N   UNL     1       1.599  13.536  21.419  0.00  0.00    +0.000 NA
ATOM     17  C   UNL     1       0.905  13.840  20.339  0.00  0.00    +0.000 A 
ENDBRANCH  11  17
ENDBRANCH   7  11
ENDBRANCH   1   7
BRANCH   5  18
ATOM     18  N   UNL     1       2.204   7.578  19.417  0.00  0.00    +0.000 N 
ATOM     19  C   UNL     1       2.461   6.240  19.711  0.00  0.00    +0.000 C 
ATOM     20  O   UNL     1       1.950   5.639  20.653  0.00  0.00    +0.000 OA
ATOM     21  H   UNL     1       2.563   7.907  18.525  0.00  0.00    +0.000 HD
BRANCH  19  22
ATOM     22  C   UNL     1       3.395   5.604  18.786  0.00  0.00    +0.000 A 
ATOM     23  N   UNL     1       3.763   6.115  17.626  0.00  0.00    +0.000 NA
ATOM     24  C   UNL     1       4.739   5.295  17.031  0.00  0.00    +0.000 A 
ATOM     25  C   UNL     1       5.050   4.166  17.770  0.00  0.00    +0.000 A 
ATOM     26  S   UNL     1       4.134   4.114  19.210  0.00  0.00    +0.000 S 
BRANCH  24  27
ATOM     27  C   UNL     1       5.391   5.653  15.724  0.00  0.00    +0.000 C 
ATOM     28  F   UNL     1       4.989   6.850  15.234  0.00  0.00    +0.000 F 
ATOM     29  F   UNL     1       6.745   5.710  15.849  0.00  0.00    +0.000 F 
ATOM     30  F   UNL     1       5.132   4.722  14.767  0.00  0.00    +0.000 F 
ENDBRANCH  24  27
ENDBRANCH  19  22
ENDBRANCH   5  18
TORSDOF 6
ENDMDL
MODEL 9
REMARK VINA RESULT:      -8.0      5.062      9.450
REMARK  Name = 
REMARK  7 active torsions:
REMARK  status: ('A' for Active; 'I' for Inactive)
REMARK    1  A    between atoms: C_1  and  N_2
REMARK    2  A    between atoms: C_6  and  C_7
REMARK    3  A    between atoms: C_7  and  C_8
REMARK    4  A    between atoms: C_8  and  C_9
REMARK    5  A    between atoms: C_13  and  N_14
REMARK    6  A    between atoms: C_15  and  C_17
REMARK    7  A    between atoms: C_19  and  C_20
REMARK                            x       y       z     vdW  Elec       q    Type
REMARK                         _______ _______ _______ _____ _____    ______ ____
ROOT
ATOM      1  C   UNL     1      -0.253  10.008  20.081  0.00  0.00    +0.000 A 
ATOM      2  C   UNL     1      -0.128  10.034  21.484  0.00  0.00    +0.000 A 
ATOM      3  C   UNL     1       0.799   9.241  22.154  0.00  0.00    +0.000 A 
ATOM      4  C   UNL     1       1.631   8.387  21.436  0.00  0.00    +0.000 A 
ATOM      5  C   UNL     1       1.549   8.319  20.046  0.00  0.00    +0.000 A 
ATOM      6  C   UNL     1       0.627   9.142  19.386  0.00  0.00    +0.000 A 
ENDROOT
BRANCH   1   7
ATOM      7  C   UNL     1      -1.347  10.908  19.315  0.00  0.00    +0.000 C 
ATOM      8  C   UNL     1      -0.783  11.925  18.280  0.00  0.00    +0.000 C 
ATOM      9  O   UNL     1      -1.353  13.049  18.975  0.00  0.00    +0.000 OA
ATOM     10  C   UNL     1      -1.852  12.197  20.026  0.00  0.00    +0.000 C 
BRANCH   7  11
ATOM     11  C   UNL     1      -2.450  10.018  18.705  0.00  0.00    +0.000 C 
BRANCH  11  17
ATOM     12  C   UNL     1      -4.762  11.871  17.554  0.00  0.00    +0.000 C 
ATOM     13  N   UNL     1      -3.785  11.123  16.811  0.00  0.00    +0.000 N 
ATOM     14  C   UNL     1      -3.725  11.059  15.451  0.00  0.00    +0.000 A 
ATOM     15  N   UNL     1      -2.715  10.305  15.092  0.00  0.00    +0.000 NA
ATOM     16  N   UNL     1      -2.110   9.851  16.236  0.00  0.00    +0.000 NA
ATOM     17  C   UNL     1      -2.759  10.335  17.278  0.00  0.00    +0.000 A 
ENDBRANCH  11  17
ENDBRANCH   7  11
ENDBRANCH   1   7
BRANCH   5  18
ATOM     18  N   UNL     1       2.369   7.479  19.263  0.00  0.00    +0.000 N 
ATOM     19  C   UNL     1       2.644   6.134  19.504  0.00  0.00    +0.000 C 
ATOM     20  O   UNL     1       2.086   5.470  20.375  0.00  0.00    +0.000 OA
ATOM     21  H   UNL     1       2.779   7.864  18.416  0.00  0.00    +0.000 HD
BRANCH  19  22
ATOM     22  C   UNL     1       3.656   5.571  18.614  0.00  0.00    +0.000 A 
ATOM     23  N   UNL     1       4.910   5.978  18.559  0.00  0.00    +0.000 NA
ATOM     24  C   UNL     1       5.636   5.166  17.667  0.00  0.00    +0.000 A 
ATOM     25  C   UNL     1       4.875   4.183  17.056  0.00  0.00    +0.000 A 
ATOM     26  S   UNL     1       3.253   4.257  17.586  0.00  0.00    +0.000 S 
BRANCH  24  27
ATOM     27  C   UNL     1       7.110   5.354  17.439  0.00  0.00    +0.000 C 
ATOM     28  F   UNL     1       7.424   5.625  16.149  0.00  0.00    +0.000 F 
ATOM     29  F   UNL     1       7.597   6.379  18.189  0.00  0.00    +0.000 F 
ATOM     30  F   UNL     1       7.815   4.248  17.798  0.00  0.00    +0.000 F 
ENDBRANCH  24  27
ENDBRANCH  19  22
ENDBRANCH   5  18
TORSDOF 6
ENDMDL
