MODEL 1
REMARK VINA RESULT:     -10.0      0.000      0.000
REMARK  Name = 
REMARK  9 active torsions:
REMARK  status: ('A' for Active; 'I' for Inactive)
REMARK    1  A    between atoms: C_1  and  C_2
REMARK    2  A    between atoms: C_2  and  C_3
REMARK    3  A    between atoms: C_2  and  N_34
REMARK    4  A    between atoms: C_7  and  C_8
REMARK    5  A    between atoms: N_14  and  C_15
REMARK    6  A    between atoms: C_19  and  C_20
REMARK    7  A    between atoms: C_20  and  C_21
REMARK    8  A    between atoms: C_21  and  C_22
REMARK    9  A    between atoms: N_26  and  C_27
REMARK                            x       y       z     vdW  Elec       q    Type
REMARK                         _______ _______ _______ _____ _____    ______ ____
ROOT
ATOM      1  C   UNL     1      -0.482  11.247  19.292  0.00  0.00    +0.000 A 
ATOM      2  C   UNL     1       0.436  10.502  18.547  0.00  0.00    +0.000 A 
ATOM      3  C   UNL     1       1.055   9.439  19.173  0.00  0.00    +0.000 A 
ATOM      4  C   UNL     1       0.808   9.084  20.497  0.00  0.00    +0.000 A 
ATOM      5  C   UNL     1      -0.041   9.843  21.290  0.00  0.00    +0.000 A 
ATOM      6  C   UNL     1      -0.669  10.939  20.668  0.00  0.00    +0.000 A 
ATOM      7  C   UNL     1       1.529   7.815  20.810  0.00  0.00    +0.000 C 
ATOM      8  N   UNL     1       2.241   7.519  19.574  0.00  0.00    +0.000 N 
ATOM      9  C   UNL     1       1.987   8.472  18.589  0.00  0.00    +0.000 C 
ATOM     10  O   UNL     1       2.371   8.563  17.441  0.00  0.00    +0.000 OA
ENDROOT
BRANCH   8  11
ATOM     11  C   UNL     1       3.049   6.368  19.430  0.00  0.00    +0.000 A 
ATOM     12  C   UNL     1       2.607   5.109  19.837  0.00  0.00    +0.000 A 
ATOM     13  C   UNL     1       3.417   3.987  19.678  0.00  0.00    +0.000 A 
ATOM     14  C   UNL     1       4.703   4.125  19.161  0.00  0.00    +0.000 A 
ATOM     15  C   UNL     1       5.219   5.380  18.790  0.00  0.00    +0.000 A 
ATOM     16  C   UNL     1       4.340   6.476  18.890  0.00  0.00    +0.000 A 
BRANCH  15  17
ATOM     17  C   UNL     1       6.742   5.574  18.344  0.00  0.00    +0.000 C 
ATOM     18  C   UNL     1       7.214   6.975  17.850  0.00  0.00    +0.000 C 
ATOM     19  O   UNL     1       8.393   6.897  18.701  0.00  0.00    +0.000 OA
ATOM     20  C   UNL     1       7.721   5.903  19.511  0.00  0.00    +0.000 C 
BRANCH  17  21
ATOM     21  C   UNL     1       7.235   4.416  17.458  0.00  0.00    +0.000 C 
BRANCH  21  22
ATOM     22  C   UNL     1       6.904   4.593  16.011  0.00  0.00    +0.000 A 
ATOM     23  N   UNL     1       7.660   5.189  15.110  0.00  0.00    +0.000 NA
ATOM     24  N   UNL     1       7.026   5.117  13.892  0.00  0.00    +0.000 NA
ATOM     25  C   UNL     1       5.897   4.478  14.072  0.00  0.00    +0.000 A 
ATOM     26  N   UNL     1       5.770   4.141  15.385  0.00  0.00    +0.000 N 
ATOM     27  C   UNL     1       4.654   3.439  15.959  0.00  0.00    +0.000 C 
ENDBRANCH  21  22
ENDBRANCH  17  21
ENDBRANCH  15  17
ENDBRANCH   8  11
BRANCH   5  28
ATOM     28  C   UNL     1      -0.324   9.521  22.733  0.00  0.00    +0.000 C 
ATOM     29  F   UNL     1       0.799   9.402  23.492  0.00  0.00    +0.000 F 
ATOM     30  F   UNL     1      -1.083  10.475  23.338  0.00  0.00    +0.000 F 
ATOM     31  F   UNL     1      -0.997   8.348  22.884  0.00  0.00    +0.000 F 
ENDBRANCH   5  28
BRANCH   1  33
ATOM     32  C   UNL     1      -1.995  13.185  19.681  0.00  0.00    +0.000 C 
ATOM     33  C   UNL     1      -1.300  12.340  18.607  0.00  0.00    +0.000 C 
BRANCH  33  34
ATOM     34  N   UNL     1      -2.262  11.737  17.673  0.00  0.00    +0.000 NA
ATOM     35  C   UNL     1      -2.388  10.264  17.806  0.00  0.00    +0.000 C 
ATOM     36  C   UNL     1      -3.915  10.445  17.593  0.00  0.00    +0.000 C 
ATOM     37  F   UNL     1      -4.351  10.426  16.307  0.00  0.00    +0.000 F 
ATOM     38  C   UNL     1      -3.659  11.842  18.200  0.00  0.00    +0.000 C 
ENDBRANCH  33  34
ENDBRANCH   1  33
TORSDOF 7
ENDMDL
MODEL 2
REMARK VINA RESULT:      -9.9      3.363      9.011
REMARK  Name = 
REMARK  9 active torsions:
REMARK  status: ('A' for Active; 'I' for Inactive)
REMARK    1  A    between atoms: C_1  and  C_2
REMARK    2  A    between atoms: C_2  and  C_3
REMARK    3  A    between atoms: C_2  and  N_34
REMARK    4  A    between atoms: C_7  and  C_8
REMARK    5  A    between atoms: N_14  and  C_15
REMARK    6  A    between atoms: C_19  and  C_20
REMARK    7  A    between atoms: C_20  and  C_21
REMARK    8  A    between atoms: C_21  and  C_22
REMARK    9  A    between atoms: N_26  and  C_27
REMARK                            x       y       z     vdW  Elec       q    Type
REMARK                         _______ _______ _______ _____ _____    ______ ____
ROOT
ATOM      1  C   UNL     1       4.361   4.951  18.267  0.00  0.00    +0.000 A 
ATOM      2  C   UNL     1       3.892   6.262  18.154  0.00  0.00    +0.000 A 
ATOM      3  C   UNL     1       2.891   6.659  19.017  0.00  0.00    +0.000 A 
ATOM      4  C   UNL     1       2.335   5.821  19.980  0.00  0.00    +0.000 A 
ATOM      5  C   UNL     1       2.722   4.492  20.073  0.00  0.00    +0.000 A 
ATOM      6  C   UNL     1       3.734   4.068  19.189  0.00  0.00    +0.000 A 
ATOM      7  C   UNL     1       1.387   6.602  20.827  0.00  0.00    +0.000 C 
ATOM      8  N   UNL     1       1.416   7.930  20.228  0.00  0.00    +0.000 N 
ATOM      9  C   UNL     1       2.291   7.990  19.146  0.00  0.00    +0.000 C 
ATOM     10  O   UNL     1       2.601   8.907  18.413  0.00  0.00    +0.000 OA
ENDROOT
BRANCH   8  11
ATOM     11  C   UNL     1       0.658   9.004  20.748  0.00  0.00    +0.000 A 
ATOM     12  C   UNL     1       0.411   9.132  22.115  0.00  0.00    +0.000 A 
ATOM     13  C   UNL     1      -0.332  10.203  22.605  0.00  0.00    +0.000 A 
ATOM     14  C   UNL     1      -0.883  11.129  21.722  0.00  0.00    +0.000 A 
ATOM     15  C   UNL     1      -0.713  11.014  20.330  0.00  0.00    +0.000 A 
ATOM     16  C   UNL     1       0.111   9.963  19.882  0.00  0.00    +0.000 A 
BRANCH  15  17
ATOM     17  C   UNL     1      -1.469  11.976  19.301  0.00  0.00    +0.000 C 
ATOM     18  C   UNL     1      -1.777  11.455  17.864  0.00  0.00    +0.000 C 
ATOM     19  O   UNL     1      -3.144  11.942  17.962  0.00  0.00    +0.000 OA
ATOM     20  C   UNL     1      -3.024  11.942  19.404  0.00  0.00    +0.000 C 
BRANCH  17  21
ATOM     21  C   UNL     1      -0.898  13.406  19.322  0.00  0.00    +0.000 C 
BRANCH  21  22
ATOM     22  C   UNL     1       0.595  13.450  19.266  0.00  0.00    +0.000 A 
ATOM     23  N   UNL     1       1.342  13.121  18.230  0.00  0.00    +0.000 NA
ATOM     24  N   UNL     1       2.660  13.331  18.559  0.00  0.00    +0.000 NA
ATOM     25  C   UNL     1       2.694  13.785  19.788  0.00  0.00    +0.000 A 
ATOM     26  N   UNL     1       1.425  13.865  20.277  0.00  0.00    +0.000 N 
ATOM     27  C   UNL     1       1.069  14.312  21.596  0.00  0.00    +0.000 C 
ENDBRANCH  21  22
ENDBRANCH  17  21
ENDBRANCH  15  17
ENDBRANCH   8  11
BRANCH   5  28
ATOM     28  C   UNL     1       2.138   3.533  21.076  0.00  0.00    +0.000 C 
ATOM     29  F   UNL     1       0.788   3.394  20.969  0.00  0.00    +0.000 F 
ATOM     30  F   UNL     1       2.652   2.279  20.957  0.00  0.00    +0.000 F 
ATOM     31  F   UNL     1       2.367   3.918  22.361  0.00  0.00    +0.000 F 
ENDBRANCH   5  28
BRANCH   1  33
ATOM     32  C   UNL     1       6.677   5.551  17.578  0.00  0.00    +0.000 C 
ATOM     33  C   UNL     1       5.565   4.506  17.438  0.00  0.00    +0.000 C 
BRANCH  33  34
ATOM     34  N   UNL     1       5.165   4.311  16.037  0.00  0.00    +0.000 NA
ATOM     35  C   UNL     1       5.521   5.443  15.145  0.00  0.00    +0.000 C 
ATOM     36  C   UNL     1       5.900   4.387  14.072  0.00  0.00    +0.000 C 
ATOM     37  F   UNL     1       4.901   3.977  13.250  0.00  0.00    +0.000 F 
ATOM     38  C   UNL     1       6.178   3.491  15.300  0.00  0.00    +0.000 C 
ENDBRANCH  33  34
ENDBRANCH   1  33
TORSDOF 7
ENDMDL
MODEL 3
REMARK VINA RESULT:      -9.6      1.554      2.422
REMARK  Name = 
REMARK  9 active torsions:
REMARK  status: ('A' for Active; 'I' for Inactive)
REMARK    1  A    between atoms: C_1  and  C_2
REMARK    2  A    between atoms: C_2  and  C_3
REMARK    3  A    between atoms: C_2  and  N_34
REMARK    4  A    between atoms: C_7  and  C_8
REMARK    5  A    between atoms: N_14  and  C_15
REMARK    6  A    between atoms: C_19  and  C_20
REMARK    7  A    between atoms: C_20  and  C_21
REMARK    8  A    between atoms: C_21  and  C_22
REMARK    9  A    between atoms: N_26  and  C_27
REMARK                            x       y       z     vdW  Elec       q    Type
REMARK                         _______ _______ _______ _____ _____    ______ ____
ROOT
ATOM      1  C   UNL     1      -0.095  11.113  18.977  0.00  0.00    +0.000 A 
ATOM      2  C   UNL     1       0.744  10.305  18.206  0.00  0.00    +0.000 A 
ATOM      3  C   UNL     1       1.324   9.215  18.821  0.00  0.00    +0.000 A 
ATOM      4  C   UNL     1       1.113   8.892  20.159  0.00  0.00    +0.000 A 
ATOM      5  C   UNL     1       0.345   9.711  20.975  0.00  0.00    +0.000 A 
ATOM      6  C   UNL     1      -0.242  10.835  20.364  0.00  0.00    +0.000 A 
ATOM      7  C   UNL     1       1.769   7.586  20.461  0.00  0.00    +0.000 C 
ATOM      8  N   UNL     1       2.409   7.232  19.201  0.00  0.00    +0.000 N 
ATOM      9  C   UNL     1       2.171   8.186  18.213  0.00  0.00    +0.000 C 
ATOM     10  O   UNL     1       2.511   8.239  17.050  0.00  0.00    +0.000 OA
ENDROOT
BRANCH   8  11
ATOM     11  C   UNL     1       3.140   6.032  19.042  0.00  0.00    +0.000 A 
ATOM     12  C   UNL     1       3.134   5.037  20.019  0.00  0.00    +0.000 A 
ATOM     13  C   UNL     1       3.855   3.860  19.837  0.00  0.00    +0.000 A 
ATOM     14  C   UNL     1       4.635   3.691  18.696  0.00  0.00    +0.000 A 
ATOM     15  C   UNL     1       4.722   4.687  17.707  0.00  0.00    +0.000 A 
ATOM     16  C   UNL     1       3.915   5.827  17.890  0.00  0.00    +0.000 A 
BRANCH  15  17
ATOM     17  C   UNL     1       5.732   4.574  16.472  0.00  0.00    +0.000 C 
ATOM     18  C   UNL     1       5.497   3.466  15.401  0.00  0.00    +0.000 C 
ATOM     19  O   UNL     1       5.687   4.435  14.332  0.00  0.00    +0.000 OA
ATOM     20  C   UNL     1       5.387   5.499  15.266  0.00  0.00    +0.000 C 
BRANCH  17  21
ATOM     21  C   UNL     1       7.201   4.691  16.917  0.00  0.00    +0.000 C 
BRANCH  21  22
ATOM     22  C   UNL     1       7.577   6.067  17.366  0.00  0.00    +0.000 A 
ATOM     23  N   UNL     1       7.655   7.138  16.600  0.00  0.00    +0.000 NA
ATOM     24  N   UNL     1       7.995   8.212  17.387  0.00  0.00    +0.000 NA
ATOM     25  C   UNL     1       8.117   7.779  18.618  0.00  0.00    +0.000 A 
ATOM     26  N   UNL     1       7.877   6.439  18.652  0.00  0.00    +0.000 N 
ATOM     27  C   UNL     1       7.928   5.615  19.829  0.00  0.00    +0.000 C 
ENDBRANCH  21  22
ENDBRANCH  17  21
ENDBRANCH  15  17
ENDBRANCH   8  11
BRANCH   5  28
ATOM     28  C   UNL     1       0.104   9.425  22.433  0.00  0.00    +0.000 C 
ATOM     29  F   UNL     1       1.244   9.160  23.129  0.00  0.00    +0.000 F 
ATOM     30  F   UNL     1      -0.490  10.467  23.076  0.00  0.00    +0.000 F 
ATOM     31  F   UNL     1      -0.704   8.348  22.628  0.00  0.00    +0.000 F 
ENDBRANCH   5  28
BRANCH   1  33
ATOM     32  C   UNL     1      -0.846  13.474  19.227  0.00  0.00    +0.000 C 
ATOM     33  C   UNL     1      -0.875  12.246  18.310  0.00  0.00    +0.000 C 
BRANCH  33  34
ATOM     34  N   UNL     1      -2.248  11.807  18.020  0.00  0.00    +0.000 NA
ATOM     35  C   UNL     1      -2.493  11.499  16.588  0.00  0.00    +0.000 C 
ATOM     36  C   UNL     1      -3.342  10.290  17.065  0.00  0.00    +0.000 C 
ATOM     37  F   UNL     1      -4.657  10.532  17.299  0.00  0.00    +0.000 F 
ATOM     38  C   UNL     1      -2.413  10.346  18.299  0.00  0.00    +0.000 C 
ENDBRANCH  33  34
ENDBRANCH   1  33
TORSDOF 7
ENDMDL
MODEL 4
REMARK VINA RESULT:      -9.5      2.960      9.192
REMARK  Name = 
REMARK  9 active torsions:
REMARK  status: ('A' for Active; 'I' for Inactive)
REMARK    1  A    between atoms: C_1  and  C_2
REMARK    2  A    between atoms: C_2  and  C_3
REMARK    3  A    between atoms: C_2  and  N_34
REMARK    4  A    between atoms: C_7  and  C_8
REMARK    5  A    between atoms: N_14  and  C_15
REMARK    6  A    between atoms: C_19  and  C_20
REMARK    7  A    between atoms: C_20  and  C_21
REMARK    8  A    between atoms: C_21  and  C_22
REMARK    9  A    between atoms: N_26  and  C_27
REMARK                            x       y       z     vdW  Elec       q    Type
REMARK                         _______ _______ _______ _____ _____    ______ ____
ROOT
ATOM      1  C   UNL     1       3.989   5.260  18.044  0.00  0.00    +0.000 A 
ATOM      2  C   UNL     1       3.488   6.564  18.020  0.00  0.00    +0.000 A 
ATOM      3  C   UNL     1       2.567   6.912  18.987  0.00  0.00    +0.000 A 
ATOM      4  C   UNL     1       2.122   6.032  19.971  0.00  0.00    +0.000 A 
ATOM      5  C   UNL     1       2.542   4.709  19.982  0.00  0.00    +0.000 A 
ATOM      6  C   UNL     1       3.471   4.335  18.992  0.00  0.00    +0.000 A 
ATOM      7  C   UNL     1       1.247   6.766  20.931  0.00  0.00    +0.000 C 
ATOM      8  N   UNL     1       1.194   8.112  20.377  0.00  0.00    +0.000 N 
ATOM      9  C   UNL     1       1.959   8.225  19.218  0.00  0.00    +0.000 C 
ATOM     10  O   UNL     1       2.180   9.171  18.490  0.00  0.00    +0.000 OA
ENDROOT
BRANCH   8  11
ATOM     11  C   UNL     1       0.470   9.153  21.002  0.00  0.00    +0.000 A 
ATOM     12  C   UNL     1       0.127   9.097  22.353  0.00  0.00    +0.000 A 
ATOM     13  C   UNL     1      -0.579  10.138  22.950  0.00  0.00    +0.000 A 
ATOM     14  C   UNL     1      -0.998  11.222  22.184  0.00  0.00    +0.000 A 
ATOM     15  C   UNL     1      -0.730  11.301  20.806  0.00  0.00    +0.000 A 
ATOM     16  C   UNL     1       0.056  10.268  20.258  0.00  0.00    +0.000 A 
BRANCH  15  17
ATOM     17  C   UNL     1      -1.339  12.459  19.886  0.00  0.00    +0.000 C 
ATOM     18  C   UNL     1      -1.139  13.946  20.309  0.00  0.00    +0.000 C 
ATOM     19  O   UNL     1      -0.733  14.295  18.956  0.00  0.00    +0.000 OA
ATOM     20  C   UNL     1      -0.417  12.904  18.710  0.00  0.00    +0.000 C 
BRANCH  17  21
ATOM     21  C   UNL     1      -2.776  12.141  19.434  0.00  0.00    +0.000 C 
BRANCH  21  22
ATOM     22  C   UNL     1      -2.846  11.516  18.078  0.00  0.00    +0.000 A 
ATOM     23  N   UNL     1      -1.880  10.843  17.483  0.00  0.00    +0.000 NA
ATOM     24  N   UNL     1      -2.344  10.400  16.267  0.00  0.00    +0.000 NA
ATOM     25  C   UNL     1      -3.583  10.808  16.143  0.00  0.00    +0.000 A 
ATOM     26  N   UNL     1      -3.938  11.522  17.246  0.00  0.00    +0.000 N 
ATOM     27  C   UNL     1      -5.220  12.136  17.462  0.00  0.00    +0.000 C 
ENDBRANCH  21  22
ENDBRANCH  17  21
ENDBRANCH  15  17
ENDBRANCH   8  11
BRANCH   5  28
ATOM     28  C   UNL     1       2.075   3.707  21.004  0.00  0.00    +0.000 C 
ATOM     29  F   UNL     1       2.434   4.026  22.278  0.00  0.00    +0.000 F 
ATOM     30  F   UNL     1       0.720   3.576  21.021  0.00  0.00    +0.000 F 
ATOM     31  F   UNL     1       2.574   2.462  20.781  0.00  0.00    +0.000 F 
ENDBRANCH   5  28
BRANCH   1  33
ATOM     32  C   UNL     1       4.748   3.541  16.411  0.00  0.00    +0.000 C 
ATOM     33  C   UNL     1       5.115   4.867  17.088  0.00  0.00    +0.000 C 
BRANCH  33  34
ATOM     34  N   UNL     1       6.387   4.778  17.820  0.00  0.00    +0.000 NA
ATOM     35  C   UNL     1       7.369   5.828  17.450  0.00  0.00    +0.000 C 
ATOM     36  C   UNL     1       7.734   5.920  18.957  0.00  0.00    +0.000 C 
ATOM     37  F   UNL     1       8.706   5.079  19.394  0.00  0.00    +0.000 F 
ATOM     38  C   UNL     1       6.280   5.436  19.160  0.00  0.00    +0.000 C 
ENDBRANCH  33  34
ENDBRANCH   1  33
TORSDOF 7
ENDMDL
MODEL 5
REMARK VINA RESULT:      -9.5      3.261      9.966
REMARK  Name = 
REMARK  9 active torsions:
REMARK  status: ('A' for Active; 'I' for Inactive)
REMARK    1  A    between atoms: C_1  and  C_2
REMARK    2  A    between atoms: C_2  and  C_3
REMARK    3  A    between atoms: C_2  and  N_34
REMARK    4  A    between atoms: C_7  and  C_8
REMARK    5  A    between atoms: N_14  and  C_15
REMARK    6  A    between atoms: C_19  and  C_20
REMARK    7  A    between atoms: C_20  and  C_21
REMARK    8  A    between atoms: C_21  and  C_22
REMARK    9  A    between atoms: N_26  and  C_27
REMARK                            x       y       z     vdW  Elec       q    Type
REMARK                         _______ _______ _______ _____ _____    ______ ____
ROOT
ATOM      1  C   UNL     1       4.515   5.560  17.861  0.00  0.00    +0.000 A 
ATOM      2  C   UNL     1       3.981   6.825  17.603  0.00  0.00    +0.000 A 
ATOM      3  C   UNL     1       2.938   7.252  18.399  0.00  0.00    +0.000 A 
ATOM      4  C   UNL     1       2.401   6.486  19.431  0.00  0.00    +0.000 A 
ATOM      5  C   UNL     1       2.856   5.197  19.669  0.00  0.00    +0.000 A 
ATOM      6  C   UNL     1       3.912   4.742  18.855  0.00  0.00    +0.000 A 
ATOM      7  C   UNL     1       1.392   7.297  20.174  0.00  0.00    +0.000 C 
ATOM      8  N   UNL     1       1.367   8.556  19.442  0.00  0.00    +0.000 N 
ATOM      9  C   UNL     1       2.266   8.554  18.377  0.00  0.00    +0.000 C 
ATOM     10  O   UNL     1       2.546   9.407  17.561  0.00  0.00    +0.000 OA
ENDROOT
BRANCH   8  11
ATOM     11  C   UNL     1       0.539   9.634  19.831  0.00  0.00    +0.000 A 
ATOM     12  C   UNL     1       0.710  10.283  21.055  0.00  0.00    +0.000 A 
ATOM     13  C   UNL     1      -0.111  11.348  21.414  0.00  0.00    +0.000 A 
ATOM     14  C   UNL     1      -1.150  11.739  20.573  0.00  0.00    +0.000 A 
ATOM     15  C   UNL     1      -1.403  11.082  19.356  0.00  0.00    +0.000 A 
ATOM     16  C   UNL     1      -0.500  10.064  18.992  0.00  0.00    +0.000 A 
BRANCH  15  17
ATOM     17  C   UNL     1      -2.683  11.417  18.459  0.00  0.00    +0.000 C 
ATOM     18  C   UNL     1      -2.545  11.402  16.906  0.00  0.00    +0.000 C 
ATOM     19  O   UNL     1      -3.763  10.614  16.788  0.00  0.00    +0.000 OA
ATOM     20  C   UNL     1      -3.605  10.195  18.164  0.00  0.00    +0.000 C 
BRANCH  17  21
ATOM     21  C   UNL     1      -3.458  12.636  18.992  0.00  0.00    +0.000 C 
BRANCH  21  22
ATOM     22  C   UNL     1      -4.787  12.285  19.578  0.00  0.00    +0.000 A 
ATOM     23  N   UNL     1      -5.005  11.869  20.811  0.00  0.00    +0.000 NA
ATOM     24  N   UNL     1      -6.358  11.686  20.976  0.00  0.00    +0.000 NA
ATOM     25  C   UNL     1      -6.940  11.996  19.844  0.00  0.00    +0.000 A 
ATOM     26  N   UNL     1      -5.996  12.364  18.934  0.00  0.00    +0.000 N 
ATOM     27  C   UNL     1      -6.259  12.761  17.577  0.00  0.00    +0.000 C 
ENDBRANCH  21  22
ENDBRANCH  17  21
ENDBRANCH  15  17
ENDBRANCH   8  11
BRANCH   5  28
ATOM     28  C   UNL     1       2.296   4.315  20.753  0.00  0.00    +0.000 C 
ATOM     29  F   UNL     1       0.946   4.160  20.682  0.00  0.00    +0.000 F 
ATOM     30  F   UNL     1       2.817   3.059  20.721  0.00  0.00    +0.000 F 
ATOM     31  F   UNL     1       2.546   4.798  22.000  0.00  0.00    +0.000 F 
ENDBRANCH   5  28
BRANCH   1  33
ATOM     32  C   UNL     1       6.786   6.241  17.099  0.00  0.00    +0.000 C 
ATOM     33  C   UNL     1       5.763   5.099  17.107  0.00  0.00    +0.000 C 
BRANCH  33  34
ATOM     34  N   UNL     1       5.399   4.674  15.747  0.00  0.00    +0.000 NA
ATOM     35  C   UNL     1       6.036   5.479  14.674  0.00  0.00    +0.000 C 
ATOM     36  C   UNL     1       6.230   4.153  13.891  0.00  0.00    +0.000 C 
ATOM     37  F   UNL     1       5.207   3.774  13.083  0.00  0.00    +0.000 F 
ATOM     38  C   UNL     1       6.247   3.524  15.302  0.00  0.00    +0.000 C 
ENDBRANCH  33  34
ENDBRANCH   1  33
TORSDOF 7
ENDMDL
MODEL 6
REMARK VINA RESULT:      -9.4      2.442      3.551
REMARK  Name = 
REMARK  9 active torsions:
REMARK  status: ('A' for Active; 'I' for Inactive)
REMARK    1  A    between atoms: C_1  and  C_2
REMARK    2  A    between atoms: C_2  and  C_3
REMARK    3  A    between atoms: C_2  and  N_34
REMARK    4  A    between atoms: C_7  and  C_8
REMARK    5  A    between atoms: N_14  and  C_15
REMARK    6  A    between atoms: C_19  and  C_20
REMARK    7  A    between atoms: C_20  and  C_21
REMARK    8  A    between atoms: C_21  and  C_22
REMARK    9  A    between atoms: N_26  and  C_27
REMARK                            x       y       z     vdW  Elec       q    Type
REMARK                         _______ _______ _______ _____ _____    ______ ____
ROOT
ATOM      1  C   UNL     1       0.377  11.719  19.636  0.00  0.00    +0.000 A 
ATOM      2  C   UNL     1       1.122  10.906  18.778  0.00  0.00    +0.000 A 
ATOM      3  C   UNL     1       1.443   9.638  19.218  0.00  0.00    +0.000 A 
ATOM      4  C   UNL     1       1.063   9.143  20.464  0.00  0.00    +0.000 A 
ATOM      5  C   UNL     1       0.386   9.946  21.371  0.00  0.00    +0.000 A 
ATOM      6  C   UNL     1       0.064  11.248  20.940  0.00  0.00    +0.000 A 
ATOM      7  C   UNL     1       1.447   7.704  20.561  0.00  0.00    +0.000 C 
ATOM      8  N   UNL     1       2.120   7.450  19.294  0.00  0.00    +0.000 N 
ATOM      9  C   UNL     1       2.142   8.582  18.482  0.00  0.00    +0.000 C 
ATOM     10  O   UNL     1       2.585   8.763  17.367  0.00  0.00    +0.000 OA
ENDROOT
BRANCH   8  11
ATOM     11  C   UNL     1       2.636   6.176  18.962  0.00  0.00    +0.000 A 
ATOM     12  C   UNL     1       2.273   5.031  19.671  0.00  0.00    +0.000 A 
ATOM     13  C   UNL     1       2.787   3.786  19.321  0.00  0.00    +0.000 A 
ATOM     14  C   UNL     1       3.716   3.683  18.288  0.00  0.00    +0.000 A 
ATOM     15  C   UNL     1       4.160   4.813  17.578  0.00  0.00    +0.000 A 
ATOM     16  C   UNL     1       3.555   6.041  17.910  0.00  0.00    +0.000 A 
BRANCH  15  17
ATOM     17  C   UNL     1       5.338   4.730  16.501  0.00  0.00    +0.000 C 
ATOM     18  C   UNL     1       5.195   3.752  15.295  0.00  0.00    +0.000 C 
ATOM     19  O   UNL     1       5.615   4.798  14.374  0.00  0.00    +0.000 OA
ATOM     20  C   UNL     1       5.249   5.791  15.362  0.00  0.00    +0.000 C 
BRANCH  17  21
ATOM     21  C   UNL     1       6.726   4.682  17.166  0.00  0.00    +0.000 C 
BRANCH  21  22
ATOM     22  C   UNL     1       7.289   6.034  17.464  0.00  0.00    +0.000 A 
ATOM     23  N   UNL     1       7.318   7.061  16.638  0.00  0.00    +0.000 NA
ATOM     24  N   UNL     1       7.882   8.131  17.293  0.00  0.00    +0.000 NA
ATOM     25  C   UNL     1       8.184   7.738  18.506  0.00  0.00    +0.000 A 
ATOM     26  N   UNL     1       7.843   6.428  18.656  0.00  0.00    +0.000 N 
ATOM     27  C   UNL     1       8.035   5.651  19.851  0.00  0.00    +0.000 C 
ENDBRANCH  21  22
ENDBRANCH  17  21
ENDBRANCH  15  17
ENDBRANCH   8  11
BRANCH   5  28
ATOM     28  C   UNL     1      -0.027   9.473  22.739  0.00  0.00    +0.000 C 
ATOM     29  F   UNL     1      -0.802   8.354  22.714  0.00  0.00    +0.000 F 
ATOM     30  F   UNL     1       1.040   9.168  23.527  0.00  0.00    +0.000 F 
ATOM     31  F   UNL     1      -0.748  10.405  23.419  0.00  0.00    +0.000 F 
ENDBRANCH   5  28
BRANCH   1  33
ATOM     32  C   UNL     1      -1.132  12.845  18.007  0.00  0.00    +0.000 C 
ATOM     33  C   UNL     1      -0.128  13.075  19.142  0.00  0.00    +0.000 C 
BRANCH  33  34
ATOM     34  N   UNL     1       1.006  13.908  18.715  0.00  0.00    +0.000 NA
ATOM     35  C   UNL     1       0.710  15.363  18.692  0.00  0.00    +0.000 C 
ATOM     36  C   UNL     1       2.134  15.590  19.267  0.00  0.00    +0.000 C 
ATOM     37  F   UNL     1       3.137  15.719  18.362  0.00  0.00    +0.000 F 
ATOM     38  C   UNL     1       1.933  14.177  19.858  0.00  0.00    +0.000 C 
ENDBRANCH  33  34
ENDBRANCH   1  33
TORSDOF 7
ENDMDL
MODEL 7
REMARK VINA RESULT:      -9.4      3.220      9.243
REMARK  Name = 
REMARK  9 active torsions:
REMARK  status: ('A' for Active; 'I' for Inactive)
REMARK    1  A    between atoms: C_1  and  C_2
REMARK    2  A    between atoms: C_2  and  C_3
REMARK    3  A    between atoms: C_2  and  N_34
REMARK    4  A    between atoms: C_7  and  C_8
REMARK    5  A    between atoms: N_14  and  C_15
REMARK    6  A    between atoms: C_19  and  C_20
REMARK    7  A    between atoms: C_20  and  C_21
REMARK    8  A    between atoms: C_21  and  C_22
REMARK    9  A    between atoms: N_26  and  C_27
REMARK                            x       y       z     vdW  Elec       q    Type
REMARK                         _______ _______ _______ _____ _____    ______ ____
ROOT
ATOM      1  C   UNL     1       3.748   5.751  17.908  0.00  0.00    +0.000 A 
ATOM      2  C   UNL     1       3.237   7.049  17.990  0.00  0.00    +0.000 A 
ATOM      3  C   UNL     1       2.327   7.315  18.992  0.00  0.00    +0.000 A 
ATOM      4  C   UNL     1       1.899   6.358  19.909  0.00  0.00    +0.000 A 
ATOM      5  C   UNL     1       2.327   5.042  19.814  0.00  0.00    +0.000 A 
ATOM      6  C   UNL     1       3.247   4.752  18.788  0.00  0.00    +0.000 A 
ATOM      7  C   UNL     1       1.030   7.009  20.933  0.00  0.00    +0.000 C 
ATOM      8  N   UNL     1       0.962   8.394  20.485  0.00  0.00    +0.000 N 
ATOM      9  C   UNL     1       1.713   8.602  19.329  0.00  0.00    +0.000 C 
ATOM     10  O   UNL     1       1.918   9.602  18.674  0.00  0.00    +0.000 OA
ENDROOT
BRANCH   8  11
ATOM     11  C   UNL     1       0.238   9.378  21.196  0.00  0.00    +0.000 A 
ATOM     12  C   UNL     1       0.131   9.345  22.587  0.00  0.00    +0.000 A 
ATOM     13  C   UNL     1      -0.580  10.330  23.268  0.00  0.00    +0.000 A 
ATOM     14  C   UNL     1      -1.238  11.330  22.556  0.00  0.00    +0.000 A 
ATOM     15  C   UNL     1      -1.210  11.377  21.150  0.00  0.00    +0.000 A 
ATOM     16  C   UNL     1      -0.414  10.410  20.505  0.00  0.00    +0.000 A 
BRANCH  15  17
ATOM     17  C   UNL     1      -2.087  12.423  20.318  0.00  0.00    +0.000 C 
ATOM     18  C   UNL     1      -2.844  11.933  19.046  0.00  0.00    +0.000 C 
ATOM     19  O   UNL     1      -4.056  12.607  19.487  0.00  0.00    +0.000 OA
ATOM     20  C   UNL     1      -3.544  12.607  20.841  0.00  0.00    +0.000 C 
BRANCH  17  21
ATOM     21  C   UNL     1      -1.351  13.759  20.113  0.00  0.00    +0.000 C 
BRANCH  21  22
ATOM     22  C   UNL     1       0.041  13.596  19.592  0.00  0.00    +0.000 A 
ATOM     23  N   UNL     1       0.373  13.183  18.384  0.00  0.00    +0.000 NA
ATOM     24  N   UNL     1       1.743  13.203  18.278  0.00  0.00    +0.000 NA
ATOM     25  C   UNL     1       2.222  13.628  19.421  0.00  0.00    +0.000 A 
ATOM     26  N   UNL     1       1.195  13.875  20.279  0.00  0.00    +0.000 N 
ATOM     27  C   UNL     1       1.335  14.346  21.631  0.00  0.00    +0.000 C 
ENDBRANCH  21  22
ENDBRANCH  17  21
ENDBRANCH  15  17
ENDBRANCH   8  11
BRANCH   5  28
ATOM     28  C   UNL     1       1.878   3.961  20.761  0.00  0.00    +0.000 C 
ATOM     29  F   UNL     1       2.259   4.178  22.050  0.00  0.00    +0.000 F 
ATOM     30  F   UNL     1       0.525   3.826  20.791  0.00  0.00    +0.000 F 
ATOM     31  F   UNL     1       2.375   2.738  20.431  0.00  0.00    +0.000 F 
ENDBRANCH   5  28
BRANCH   1  33
ATOM     32  C   UNL     1       4.895   3.929  16.659  0.00  0.00    +0.000 C 
ATOM     33  C   UNL     1       4.865   5.440  16.912  0.00  0.00    +0.000 C 
BRANCH  33  34
ATOM     34  N   UNL     1       6.149   5.939  17.426  0.00  0.00    +0.000 NA
ATOM     35  C   UNL     1       6.316   5.774  18.892  0.00  0.00    +0.000 C 
ATOM     36  C   UNL     1       7.793   5.388  18.610  0.00  0.00    +0.000 C 
ATOM     37  F   UNL     1       8.685   6.409  18.562  0.00  0.00    +0.000 F 
ATOM     38  C   UNL     1       7.229   4.918  17.249  0.00  0.00    +0.000 C 
ENDBRANCH  33  34
ENDBRANCH   1  33
TORSDOF 7
ENDMDL
MODEL 8
REMARK VINA RESULT:      -9.4      3.589      9.451
REMARK  Name = 
REMARK  9 active torsions:
REMARK  status: ('A' for Active; 'I' for Inactive)
REMARK    1  A    between atoms: C_1  and  C_2
REMARK    2  A    between atoms: C_2  and  C_3
REMARK    3  A    between atoms: C_2  and  N_34
REMARK    4  A    between atoms: C_7  and  C_8
REMARK    5  A    between atoms: N_14  and  C_15
REMARK    6  A    between atoms: C_19  and  C_20
REMARK    7  A    between atoms: C_20  and  C_21
REMARK    8  A    between atoms: C_21  and  C_22
REMARK    9  A    between atoms: N_26  and  C_27
REMARK                            x       y       z     vdW  Elec       q    Type
REMARK                         _______ _______ _______ _____ _____    ______ ____
ROOT
ATOM      1  C   UNL     1       4.376   5.103  18.073  0.00  0.00    +0.000 A 
ATOM      2  C   UNL     1       3.882   6.410  18.042  0.00  0.00    +0.000 A 
ATOM      3  C   UNL     1       2.905   6.745  18.957  0.00  0.00    +0.000 A 
ATOM      4  C   UNL     1       2.397   5.849  19.895  0.00  0.00    +0.000 A 
ATOM      5  C   UNL     1       2.809   4.524  19.908  0.00  0.00    +0.000 A 
ATOM      6  C   UNL     1       3.797   4.164  18.970  0.00  0.00    +0.000 A 
ATOM      7  C   UNL     1       1.467   6.570  20.813  0.00  0.00    +0.000 C 
ATOM      8  N   UNL     1       1.453   7.926  20.281  0.00  0.00    +0.000 N 
ATOM      9  C   UNL     1       2.289   8.057  19.174  0.00  0.00    +0.000 C 
ATOM     10  O   UNL     1       2.558   9.014  18.478  0.00  0.00    +0.000 OA
ENDROOT
BRANCH   8  11
ATOM     11  C   UNL     1       0.696   8.959  20.879  0.00  0.00    +0.000 A 
ATOM     12  C   UNL     1       0.072   8.787  22.116  0.00  0.00    +0.000 A 
ATOM     13  C   UNL     1      -0.662   9.822  22.690  0.00  0.00    +0.000 A 
ATOM     14  C   UNL     1      -0.825  11.023  22.004  0.00  0.00    +0.000 A 
ATOM     15  C   UNL     1      -0.266  11.228  20.729  0.00  0.00    +0.000 A 
ATOM     16  C   UNL     1       0.535  10.187  20.220  0.00  0.00    +0.000 A 
BRANCH  15  17
ATOM     17  C   UNL     1      -0.576  12.537  19.866  0.00  0.00    +0.000 C 
ATOM     18  C   UNL     1       0.449  12.991  18.783  0.00  0.00    +0.000 C 
ATOM     19  O   UNL     1      -0.625  13.170  17.817  0.00  0.00    +0.000 OA
ATOM     20  C   UNL     1      -1.459  12.288  18.606  0.00  0.00    +0.000 C 
BRANCH  17  21
ATOM     21  C   UNL     1      -1.093  13.695  20.740  0.00  0.00    +0.000 C 
BRANCH  21  22
ATOM     22  C   UNL     1      -0.002  14.555  21.292  0.00  0.00    +0.000 A 
ATOM     23  N   UNL     1       0.806  14.239  22.286  0.00  0.00    +0.000 NA
ATOM     24  N   UNL     1       1.692  15.274  22.472  0.00  0.00    +0.000 NA
ATOM     25  C   UNL     1       1.409  16.200  21.590  0.00  0.00    +0.000 A 
ATOM     26  N   UNL     1       0.347  15.801  20.837  0.00  0.00    +0.000 N 
ATOM     27  C   UNL     1      -0.253  16.563  19.775  0.00  0.00    +0.000 C 
ENDBRANCH  21  22
ENDBRANCH  17  21
ENDBRANCH  15  17
ENDBRANCH   8  11
BRANCH   5  28
ATOM     28  C   UNL     1       2.276   3.507  20.880  0.00  0.00    +0.000 C 
ATOM     29  F   UNL     1       2.481   3.843  22.183  0.00  0.00    +0.000 F 
ATOM     30  F   UNL     1       0.935   3.319  20.751  0.00  0.00    +0.000 F 
ATOM     31  F   UNL     1       2.848   2.282  20.722  0.00  0.00    +0.000 F 
ENDBRANCH   5  28
BRANCH   1  33
ATOM     32  C   UNL     1       6.609   5.834  17.251  0.00  0.00    +0.000 C 
ATOM     33  C   UNL     1       5.557   4.721  17.181  0.00  0.00    +0.000 C 
BRANCH  33  34
ATOM     34  N   UNL     1       5.094   4.486  15.806  0.00  0.00    +0.000 NA
ATOM     35  C   UNL     1       5.667   5.423  14.808  0.00  0.00    +0.000 C 
ATOM     36  C   UNL     1       5.784   4.213  13.842  0.00  0.00    +0.000 C 
ATOM     37  F   UNL     1       4.702   3.954  13.066  0.00  0.00    +0.000 F 
ATOM     38  C   UNL     1       5.888   3.399  15.152  0.00  0.00    +0.000 C 
ENDBRANCH  33  34
ENDBRANCH   1  33
TORSDOF 7
ENDMDL
MODEL 9
REMARK VINA RESULT:      -9.3      3.626      9.028
REMARK  Name = 
REMARK  9 active torsions:
REMARK  status: ('A' for Active; 'I' for Inactive)
REMARK    1  A    between atoms: C_1  and  C_2
REMARK    2  A    between atoms: C_2  and  C_3
REMARK    3  A    between atoms: C_2  and  N_34
REMARK    4  A    between atoms: C_7  and  C_8
REMARK    5  A    between atoms: N_14  and  C_15
REMARK    6  A    between atoms: C_19  and  C_20
REMARK    7  A    between atoms: C_20  and  C_21
REMARK    8  A    between atoms: C_21  and  C_22
REMARK    9  A    between atoms: N_26  and  C_27
REMARK                            x       y       z     vdW  Elec       q    Type
REMARK                         _______ _______ _______ _____ _____    ______ ____
ROOT
ATOM      1  C   UNL     1       3.593   5.868  17.727  0.00  0.00    +0.000 A 
ATOM      2  C   UNL     1       3.080   7.162  17.838  0.00  0.00    +0.000 A 
ATOM      3  C   UNL     1       2.287   7.443  18.932  0.00  0.00    +0.000 A 
ATOM      4  C   UNL     1       1.981   6.504  19.915  0.00  0.00    +0.000 A 
ATOM      5  C   UNL     1       2.412   5.190  19.800  0.00  0.00    +0.000 A 
ATOM      6  C   UNL     1       3.210   4.885  18.681  0.00  0.00    +0.000 A 
ATOM      7  C   UNL     1       1.228   7.171  21.017  0.00  0.00    +0.000 C 
ATOM      8  N   UNL     1       1.091   8.544  20.548  0.00  0.00    +0.000 N 
ATOM      9  C   UNL     1       1.700   8.731  19.310  0.00  0.00    +0.000 C 
ATOM     10  O   UNL     1       1.816   9.717  18.612  0.00  0.00    +0.000 OA
ENDROOT
BRANCH   8  11
ATOM     11  C   UNL     1       0.442   9.538  21.316  0.00  0.00    +0.000 A 
ATOM     12  C   UNL     1      -0.319   9.213  22.440  0.00  0.00    +0.000 A 
ATOM     13  C   UNL     1      -0.942  10.210  23.187  0.00  0.00    +0.000 A 
ATOM     14  C   UNL     1      -0.855  11.539  22.782  0.00  0.00    +0.000 A 
ATOM     15  C   UNL     1      -0.150  11.914  21.624  0.00  0.00    +0.000 A 
ATOM     16  C   UNL     1       0.533  10.887  20.944  0.00  0.00    +0.000 A 
BRANCH  15  17
ATOM     17  C   UNL     1      -0.174  13.411  21.062  0.00  0.00    +0.000 C 
ATOM     18  C   UNL     1      -0.815  13.687  19.668  0.00  0.00    +0.000 C 
ATOM     19  O   UNL     1      -1.555  14.816  20.213  0.00  0.00    +0.000 OA
ATOM     20  C   UNL     1      -1.389  14.263  21.540  0.00  0.00    +0.000 C 
BRANCH  17  21
ATOM     21  C   UNL     1       1.175  14.125  21.267  0.00  0.00    +0.000 C 
BRANCH  21  22
ATOM     22  C   UNL     1       1.969  14.265  20.008  0.00  0.00    +0.000 A 
ATOM     23  N   UNL     1       2.649  13.307  19.409  0.00  0.00    +0.000 NA
ATOM     24  N   UNL     1       3.212  13.821  18.265  0.00  0.00    +0.000 NA
ATOM     25  C   UNL     1       2.864  15.082  18.186  0.00  0.00    +0.000 A 
ATOM     26  N   UNL     1       2.096  15.409  19.261  0.00  0.00    +0.000 N 
ATOM     27  C   UNL     1       1.539  16.710  19.521  0.00  0.00    +0.000 C 
ENDBRANCH  21  22
ENDBRANCH  17  21
ENDBRANCH  15  17
ENDBRANCH   8  11
BRANCH   5  28
ATOM     28  C   UNL     1       2.089   4.128  20.817  0.00  0.00    +0.000 C 
ATOM     29  F   UNL     1       2.466   4.458  22.083  0.00  0.00    +0.000 F 
ATOM     30  F   UNL     1       0.757   3.860  20.884  0.00  0.00    +0.000 F 
ATOM     31  F   UNL     1       2.702   2.944  20.548  0.00  0.00    +0.000 F 
ENDBRANCH   5  28
BRANCH   1  33
ATOM     32  C   UNL     1       5.012   4.075  16.740  0.00  0.00    +0.000 C 
ATOM     33  C   UNL     1       4.592   5.544  16.616  0.00  0.00    +0.000 C 
BRANCH  33  34
ATOM     34  N   UNL     1       5.743   6.456  16.694  0.00  0.00    +0.000 NA
ATOM     35  C   UNL     1       6.229   6.694  18.077  0.00  0.00    +0.000 C 
ATOM     36  C   UNL     1       7.672   6.631  17.505  0.00  0.00    +0.000 C 
ATOM     37  F   UNL     1       8.194   7.801  17.056  0.00  0.00    +0.000 F 
ATOM     38  C   UNL     1       7.023   5.724  16.436  0.00  0.00    +0.000 C 
ENDBRANCH  33  34
ENDBRANCH   1  33
TORSDOF 7
ENDMDL
