MODEL 1
REMARK VINA RESULT:      -9.2      0.000      0.000
REMARK  Name = 
REMARK  9 active torsions:
REMARK  status: ('A' for Active; 'I' for Inactive)
REMARK    1  A    between atoms: C_1  and  C_2
REMARK    2  A    between atoms: C_2  and  C_3
REMARK    3  A    between atoms: C_2  and  C_10
REMARK    4  A    between atoms: C_3  and  C_4
REMARK    5  A    between atoms: N_8  and  C_9
REMARK    6  A    between atoms: C_14  and  N_15
REMARK    7  A    between atoms: C_20  and  C_21
REMARK    8  A    between atoms: C_21  and  O_23
REMARK    9  A    between atoms: C_25  and  C_26
REMARK                            x       y       z     vdW  Elec       q    Type
REMARK                         _______ _______ _______ _____ _____    ______ ____
ROOT
ATOM      1  N   UNL     1       2.145   7.659  19.355  0.00  0.00    +0.000 N 
ATOM      2  C   UNL     1       1.469   7.984  20.600  0.00  0.00    +0.000 C 
ATOM      3  C   UNL     1       0.872   9.313  20.357  0.00  0.00    +0.000 A 
ATOM      4  C   UNL     1       1.175   9.739  19.064  0.00  0.00    +0.000 A 
ATOM      5  C   UNL     1       0.733  10.960  18.589  0.00  0.00    +0.000 A 
ATOM      6  C   UNL     1      -0.012  11.766  19.468  0.00  0.00    +0.000 A 
ATOM      7  C   UNL     1      -0.324  11.316  20.777  0.00  0.00    +0.000 A 
ATOM      8  C   UNL     1       0.111  10.072  21.241  0.00  0.00    +0.000 A 
ATOM      9  C   UNL     1       1.985   8.677  18.409  0.00  0.00    +0.000 C 
ATOM     10  O   UNL     1       2.393   8.776  17.269  0.00  0.00    +0.000 OA
ENDROOT
BRANCH   1  15
ATOM     11  C   UNL     1       4.383   5.016  17.933  0.00  0.00    +0.000 A 
ATOM     12  C   UNL     1       4.254   4.009  18.888  0.00  0.00    +0.000 A 
ATOM     13  C   UNL     1       3.378   4.174  19.972  0.00  0.00    +0.000 A 
ATOM     14  C   UNL     1       2.633   5.354  20.137  0.00  0.00    +0.000 A 
ATOM     15  C   UNL     1       2.787   6.400  19.234  0.00  0.00    +0.000 A 
ATOM     16  C   UNL     1       3.654   6.192  18.141  0.00  0.00    +0.000 A 
BRANCH  11  18
ATOM     17  C   UNL     1       4.860   3.560  15.851  0.00  0.00    +0.000 C 
ATOM     18  C   UNL     1       5.202   4.833  16.656  0.00  0.00    +0.000 C 
BRANCH  18  19
ATOM     19  C   UNL     1       6.727   4.921  16.939  0.00  0.00    +0.000 C 
BRANCH  19  20
ATOM     20  C   UNL     1       7.160   6.268  17.426  0.00  0.00    +0.000 A 
ATOM     21  N   UNL     1       7.074   7.409  16.767  0.00  0.00    +0.000 NA
ATOM     22  N   UNL     1       7.823   8.349  17.432  0.00  0.00    +0.000 NA
ATOM     23  C   UNL     1       8.296   7.781  18.516  0.00  0.00    +0.000 A 
ATOM     24  N   UNL     1       7.825   6.508  18.601  0.00  0.00    +0.000 N 
ATOM     25  C   UNL     1       7.980   5.620  19.720  0.00  0.00    +0.000 C 
ENDBRANCH  19  20
ENDBRANCH  18  19
ENDBRANCH  11  18
ENDBRANCH   1  15
BRANCH   8  26
ATOM     26  C   UNL     1      -0.232   9.582  22.631  0.00  0.00    +0.000 C 
ATOM     27  F   UNL     1      -0.961   8.434  22.644  0.00  0.00    +0.000 F 
ATOM     28  F   UNL     1       0.875   9.333  23.376  0.00  0.00    +0.000 F 
ATOM     29  F   UNL     1      -0.969  10.490  23.327  0.00  0.00    +0.000 F 
ENDBRANCH   8  26
BRANCH   6  30
ATOM     30  C   UNL     1      -0.552  13.093  19.076  0.00  0.00    +0.000 C 
ATOM     31  O   UNL     1      -0.211  14.125  19.629  0.00  0.00    +0.000 OA
BRANCH  30  32
ATOM     32  O   UNL     1      -1.399  13.064  18.031  0.00  0.00    +0.000 OA
ATOM     33  H   UNL     1      -0.997  12.862  17.162  0.00  0.00    +0.000 HD
ENDBRANCH  30  32
ENDBRANCH   6  30
TORSDOF 7
ENDMDL
MODEL 2
REMARK VINA RESULT:      -9.2      0.645      1.324
REMARK  Name = 
REMARK  9 active torsions:
REMARK  status: ('A' for Active; 'I' for Inactive)
REMARK    1  A    between atoms: C_1  and  C_2
REMARK    2  A    between atoms: C_2  and  C_3
REMARK    3  A    between atoms: C_2  and  C_10
REMARK    4  A    between atoms: C_3  and  C_4
REMARK    5  A    between atoms: N_8  and  C_9
REMARK    6  A    between atoms: C_14  and  N_15
REMARK    7  A    between atoms: C_20  and  C_21
REMARK    8  A    between atoms: C_21  and  O_23
REMARK    9  A    between atoms: C_25  and  C_26
REMARK                            x       y       z     vdW  Elec       q    Type
REMARK                         _______ _______ _______ _____ _____    ______ ____
ROOT
ATOM      1  N   UNL     1       2.092   7.745  19.246  0.00  0.00    +0.000 N 
ATOM      2  C   UNL     1       1.449   8.047  20.514  0.00  0.00    +0.000 C 
ATOM      3  C   UNL     1       0.823   9.368  20.303  0.00  0.00    +0.000 A 
ATOM      4  C   UNL     1       1.080   9.812  19.006  0.00  0.00    +0.000 A 
ATOM      5  C   UNL     1       0.604  11.030  18.556  0.00  0.00    +0.000 A 
ATOM      6  C   UNL     1      -0.128  11.814  19.466  0.00  0.00    +0.000 A 
ATOM      7  C   UNL     1      -0.392  11.347  20.779  0.00  0.00    +0.000 A 
ATOM      8  C   UNL     1       0.077  10.106  21.217  0.00  0.00    +0.000 A 
ATOM      9  C   UNL     1       1.887   8.769  18.316  0.00  0.00    +0.000 C 
ATOM     10  O   UNL     1       2.258   8.886  17.164  0.00  0.00    +0.000 OA
ENDROOT
BRANCH   1  15
ATOM     11  C   UNL     1       4.247   5.117  17.676  0.00  0.00    +0.000 A 
ATOM     12  C   UNL     1       4.236   4.132  18.663  0.00  0.00    +0.000 A 
ATOM     13  C   UNL     1       3.465   4.306  19.823  0.00  0.00    +0.000 A 
ATOM     14  C   UNL     1       2.710   5.473  20.031  0.00  0.00    +0.000 A 
ATOM     15  C   UNL     1       2.751   6.498  19.093  0.00  0.00    +0.000 A 
ATOM     16  C   UNL     1       3.513   6.282  17.927  0.00  0.00    +0.000 A 
BRANCH  11  18
ATOM     17  C   UNL     1       5.286   3.452  15.995  0.00  0.00    +0.000 C 
ATOM     18  C   UNL     1       4.943   4.920  16.331  0.00  0.00    +0.000 C 
BRANCH  18  19
ATOM     19  C   UNL     1       6.196   5.829  16.197  0.00  0.00    +0.000 C 
BRANCH  19  20
ATOM     20  C   UNL     1       7.123   5.731  17.368  0.00  0.00    +0.000 A 
ATOM     21  N   UNL     1       7.504   4.625  17.981  0.00  0.00    +0.000 NA
ATOM     22  N   UNL     1       8.118   4.973  19.159  0.00  0.00    +0.000 NA
ATOM     23  C   UNL     1       8.158   6.283  19.209  0.00  0.00    +0.000 A 
ATOM     24  N   UNL     1       7.634   6.795  18.064  0.00  0.00    +0.000 N 
ATOM     25  C   UNL     1       7.650   8.177  17.668  0.00  0.00    +0.000 C 
ENDBRANCH  19  20
ENDBRANCH  18  19
ENDBRANCH  11  18
ENDBRANCH   1  15
BRANCH   8  26
ATOM     26  C   UNL     1      -0.215   9.597  22.612  0.00  0.00    +0.000 C 
ATOM     27  F   UNL     1      -0.934  10.464  23.373  0.00  0.00    +0.000 F 
ATOM     28  F   UNL     1      -0.916   8.435  22.600  0.00  0.00    +0.000 F 
ATOM     29  F   UNL     1       0.925   9.352  23.315  0.00  0.00    +0.000 F 
ENDBRANCH   8  26
BRANCH   6  30
ATOM     30  C   UNL     1      -0.700  13.136  19.104  0.00  0.00    +0.000 C 
ATOM     31  O   UNL     1      -0.984  13.976  19.941  0.00  0.00    +0.000 OA
BRANCH  30  32
ATOM     32  O   UNL     1      -0.827  13.345  17.780  0.00  0.00    +0.000 OA
ATOM     33  H   UNL     1      -1.179  12.594  17.262  0.00  0.00    +0.000 HD
ENDBRANCH  30  32
ENDBRANCH   6  30
TORSDOF 7
ENDMDL
MODEL 3
REMARK VINA RESULT:      -9.1      4.076      8.827
REMARK  Name = 
REMARK  9 active torsions:
REMARK  status: ('A' for Active; 'I' for Inactive)
REMARK    1  A    between atoms: C_1  and  C_2
REMARK    2  A    between atoms: C_2  and  C_3
REMARK    3  A    between atoms: C_2  and  C_10
REMARK    4  A    between atoms: C_3  and  C_4
REMARK    5  A    between atoms: N_8  and  C_9
REMARK    6  A    between atoms: C_14  and  N_15
REMARK    7  A    between atoms: C_20  and  C_21
REMARK    8  A    between atoms: C_21  and  O_23
REMARK    9  A    between atoms: C_25  and  C_26
REMARK                            x       y       z     vdW  Elec       q    Type
REMARK                         _______ _______ _______ _____ _____    ______ ____
ROOT
ATOM      1  N   UNL     1       2.578   7.216  18.574  0.00  0.00    +0.000 N 
ATOM      2  C   UNL     1       2.541   5.768  18.695  0.00  0.00    +0.000 C 
ATOM      3  C   UNL     1       3.558   5.293  17.735  0.00  0.00    +0.000 A 
ATOM      4  C   UNL     1       4.150   6.382  17.095  0.00  0.00    +0.000 A 
ATOM      5  C   UNL     1       5.135   6.206  16.142  0.00  0.00    +0.000 A 
ATOM      6  C   UNL     1       5.501   4.884  15.826  0.00  0.00    +0.000 A 
ATOM      7  C   UNL     1       4.900   3.786  16.492  0.00  0.00    +0.000 A 
ATOM      8  C   UNL     1       3.919   3.976  17.467  0.00  0.00    +0.000 A 
ATOM      9  C   UNL     1       3.532   7.623  17.636  0.00  0.00    +0.000 C 
ATOM     10  O   UNL     1       3.856   8.732  17.259  0.00  0.00    +0.000 OA
ENDROOT
BRANCH   1  15
ATOM     11  C   UNL     1       0.189   9.922  19.566  0.00  0.00    +0.000 A 
ATOM     12  C   UNL     1      -0.059   9.590  20.898  0.00  0.00    +0.000 A 
ATOM     13  C   UNL     1       0.612   8.510  21.491  0.00  0.00    +0.000 A 
ATOM     14  C   UNL     1       1.523   7.725  20.763  0.00  0.00    +0.000 A 
ATOM     15  C   UNL     1       1.743   7.994  19.416  0.00  0.00    +0.000 A 
ATOM     16  C   UNL     1       1.075   9.103  18.857  0.00  0.00    +0.000 A 
BRANCH  11  18
ATOM     17  C   UNL     1       0.155  12.505  19.473  0.00  0.00    +0.000 C 
ATOM     18  C   UNL     1      -0.393  11.174  18.913  0.00  0.00    +0.000 C 
BRANCH  18  19
ATOM     19  C   UNL     1      -1.946  11.159  18.934  0.00  0.00    +0.000 C 
BRANCH  19  20
ATOM     20  C   UNL     1      -2.550  10.766  17.622  0.00  0.00    +0.000 A 
ATOM     21  N   UNL     1      -1.975  10.051  16.673  0.00  0.00    +0.000 NA
ATOM     22  N   UNL     1      -2.738  10.150  15.535  0.00  0.00    +0.000 NA
ATOM     23  C   UNL     1      -3.795  10.868  15.832  0.00  0.00    +0.000 A 
ATOM     24  N   UNL     1      -3.765  11.192  17.152  0.00  0.00    +0.000 N 
ATOM     25  C   UNL     1      -4.821  11.827  17.893  0.00  0.00    +0.000 C 
ENDBRANCH  19  20
ENDBRANCH  18  19
ENDBRANCH  11  18
ENDBRANCH   1  15
BRANCH   8  26
ATOM     26  C   UNL     1       3.285   2.808  18.192  0.00  0.00    +0.000 C 
ATOM     27  F   UNL     1       3.737   1.594  17.776  0.00  0.00    +0.000 F 
ATOM     28  F   UNL     1       3.503   2.852  19.530  0.00  0.00    +0.000 F 
ATOM     29  F   UNL     1       1.935   2.772  18.022  0.00  0.00    +0.000 F 
ENDBRANCH   8  26
BRANCH   6  30
ATOM     30  C   UNL     1       6.553   4.562  14.827  0.00  0.00    +0.000 C 
ATOM     31  O   UNL     1       7.570   5.225  14.714  0.00  0.00    +0.000 OA
BRANCH  30  32
ATOM     32  O   UNL     1       6.313   3.452  14.104  0.00  0.00    +0.000 OA
ATOM     33  H   UNL     1       5.472   3.442  13.606  0.00  0.00    +0.000 HD
ENDBRANCH  30  32
ENDBRANCH   6  30
TORSDOF 7
ENDMDL
MODEL 4
REMARK VINA RESULT:      -9.0      1.301      2.247
REMARK  Name = 
REMARK  9 active torsions:
REMARK  status: ('A' for Active; 'I' for Inactive)
REMARK    1  A    between atoms: C_1  and  C_2
REMARK    2  A    between atoms: C_2  and  C_3
REMARK    3  A    between atoms: C_2  and  C_10
REMARK    4  A    between atoms: C_3  and  C_4
REMARK    5  A    between atoms: N_8  and  C_9
REMARK    6  A    between atoms: C_14  and  N_15
REMARK    7  A    between atoms: C_20  and  C_21
REMARK    8  A    between atoms: C_21  and  O_23
REMARK    9  A    between atoms: C_25  and  C_26
REMARK                            x       y       z     vdW  Elec       q    Type
REMARK                         _______ _______ _______ _____ _____    ______ ____
ROOT
ATOM      1  N   UNL     1       2.327   7.574  19.396  0.00  0.00    +0.000 N 
ATOM      2  C   UNL     1       1.608   7.926  20.609  0.00  0.00    +0.000 C 
ATOM      3  C   UNL     1       0.872   9.156  20.257  0.00  0.00    +0.000 A 
ATOM      4  C   UNL     1       1.139   9.505  18.933  0.00  0.00    +0.000 A 
ATOM      5  C   UNL     1       0.571  10.626  18.357  0.00  0.00    +0.000 A 
ATOM      6  C   UNL     1      -0.266  11.416  19.166  0.00  0.00    +0.000 A 
ATOM      7  C   UNL     1      -0.540  11.045  20.507  0.00  0.00    +0.000 A 
ATOM      8  C   UNL     1       0.023   9.899  21.074  0.00  0.00    +0.000 A 
ATOM      9  C   UNL     1       2.066   8.487  18.369  0.00  0.00    +0.000 C 
ATOM     10  O   UNL     1       2.472   8.535  17.224  0.00  0.00    +0.000 OA
ENDROOT
BRANCH   1  15
ATOM     11  C   UNL     1       5.351   5.400  19.027  0.00  0.00    +0.000 A 
ATOM     12  C   UNL     1       4.844   4.161  19.415  0.00  0.00    +0.000 A 
ATOM     13  C   UNL     1       3.485   4.026  19.738  0.00  0.00    +0.000 A 
ATOM     14  C   UNL     1       2.613   5.128  19.704  0.00  0.00    +0.000 A 
ATOM     15  C   UNL     1       3.104   6.388  19.381  0.00  0.00    +0.000 A 
ATOM     16  C   UNL     1       4.468   6.484  19.035  0.00  0.00    +0.000 A 
BRANCH  11  18
ATOM     17  C   UNL     1       7.051   6.921  17.811  0.00  0.00    +0.000 C 
ATOM     18  C   UNL     1       6.782   5.576  18.519  0.00  0.00    +0.000 C 
BRANCH  18  19
ATOM     19  C   UNL     1       7.223   4.381  17.631  0.00  0.00    +0.000 C 
BRANCH  19  20
ATOM     20  C   UNL     1       6.879   4.562  16.185  0.00  0.00    +0.000 A 
ATOM     21  N   UNL     1       7.644   5.103  15.256  0.00  0.00    +0.000 NA
ATOM     22  N   UNL     1       6.873   5.338  14.144  0.00  0.00    +0.000 NA
ATOM     23  C   UNL     1       5.671   4.877  14.395  0.00  0.00    +0.000 A 
ATOM     24  N   UNL     1       5.657   4.295  15.624  0.00  0.00    +0.000 N 
ATOM     25  C   UNL     1       4.578   3.533  16.189  0.00  0.00    +0.000 C 
ENDBRANCH  19  20
ENDBRANCH  18  19
ENDBRANCH  11  18
ENDBRANCH   1  15
BRANCH   8  26
ATOM     26  C   UNL     1      -0.276   9.490  22.500  0.00  0.00    +0.000 C 
ATOM     27  F   UNL     1      -1.061  10.376  23.170  0.00  0.00    +0.000 F 
ATOM     28  F   UNL     1      -0.914   8.294  22.570  0.00  0.00    +0.000 F 
ATOM     29  F   UNL     1       0.856   9.369  23.245  0.00  0.00    +0.000 F 
ENDBRANCH   8  26
BRANCH   6  30
ATOM     30  C   UNL     1      -0.944  12.639  18.664  0.00  0.00    +0.000 C 
ATOM     31  O   UNL     1      -1.059  13.646  19.343  0.00  0.00    +0.000 OA
BRANCH  30  32
ATOM     32  O   UNL     1      -1.366  12.559  17.389  0.00  0.00    +0.000 OA
ATOM     33  H   UNL     1      -0.772  12.951  16.718  0.00  0.00    +0.000 HD
ENDBRANCH  30  32
ENDBRANCH   6  30
TORSDOF 7
ENDMDL
MODEL 5
REMARK VINA RESULT:      -9.0      2.633      3.331
REMARK  Name = 
REMARK  9 active torsions:
REMARK  status: ('A' for Active; 'I' for Inactive)
REMARK    1  A    between atoms: C_1  and  C_2
REMARK    2  A    between atoms: C_2  and  C_3
REMARK    3  A    between atoms: C_2  and  C_10
REMARK    4  A    between atoms: C_3  and  C_4
REMARK    5  A    between atoms: N_8  and  C_9
REMARK    6  A    between atoms: C_14  and  N_15
REMARK    7  A    between atoms: C_20  and  C_21
REMARK    8  A    between atoms: C_21  and  O_23
REMARK    9  A    between atoms: C_25  and  C_26
REMARK                            x       y       z     vdW  Elec       q    Type
REMARK                         _______ _______ _______ _____ _____    ______ ____
ROOT
ATOM      1  N   UNL     1       2.234   6.086  19.048  0.00  0.00    +0.000 N 
ATOM      2  C   UNL     1       1.982   7.379  18.434  0.00  0.00    +0.000 C 
ATOM      3  C   UNL     1       1.459   8.213  19.535  0.00  0.00    +0.000 A 
ATOM      4  C   UNL     1       1.406   7.465  20.712  0.00  0.00    +0.000 A 
ATOM      5  C   UNL     1       0.947   8.016  21.893  0.00  0.00    +0.000 A 
ATOM      6  C   UNL     1       0.512   9.354  21.857  0.00  0.00    +0.000 A 
ATOM      7  C   UNL     1       0.582  10.108  20.658  0.00  0.00    +0.000 A 
ATOM      8  C   UNL     1       1.066   9.547  19.474  0.00  0.00    +0.000 A 
ATOM      9  C   UNL     1       1.912   6.099  20.409  0.00  0.00    +0.000 C 
ATOM     10  O   UNL     1       1.982   5.226  21.252  0.00  0.00    +0.000 OA
ENDROOT
BRANCH   1  15
ATOM     11  C   UNL     1       4.652   4.398  16.742  0.00  0.00    +0.000 A 
ATOM     12  C   UNL     1       4.150   3.097  16.728  0.00  0.00    +0.000 A 
ATOM     13  C   UNL     1       2.974   2.788  17.428  0.00  0.00    +0.000 A 
ATOM     14  C   UNL     1       2.290   3.763  18.175  0.00  0.00    +0.000 A 
ATOM     15  C   UNL     1       2.802   5.053  18.259  0.00  0.00    +0.000 A 
ATOM     16  C   UNL     1       3.969   5.338  17.521  0.00  0.00    +0.000 A 
BRANCH  11  18
ATOM     17  C   UNL     1       6.047   3.977  14.607  0.00  0.00    +0.000 C 
ATOM     18  C   UNL     1       5.838   4.827  15.880  0.00  0.00    +0.000 C 
BRANCH  18  19
ATOM     19  C   UNL     1       7.147   4.915  16.711  0.00  0.00    +0.000 C 
BRANCH  19  20
ATOM     20  C   UNL     1       7.382   6.271  17.299  0.00  0.00    +0.000 A 
ATOM     21  N   UNL     1       7.236   7.431  16.685  0.00  0.00    +0.000 NA
ATOM     22  N   UNL     1       7.811   8.407  17.462  0.00  0.00    +0.000 NA
ATOM     23  C   UNL     1       8.238   7.833  18.562  0.00  0.00    +0.000 A 
ATOM     24  N   UNL     1       7.902   6.515  18.543  0.00  0.00    +0.000 N 
ATOM     25  C   UNL     1       8.047   5.588  19.632  0.00  0.00    +0.000 C 
ENDBRANCH  19  20
ENDBRANCH  18  19
ENDBRANCH  11  18
ENDBRANCH   1  15
BRANCH   8  26
ATOM     26  C   UNL     1       1.156  10.351  18.195  0.00  0.00    +0.000 C 
ATOM     27  F   UNL     1       0.237   9.995  17.258  0.00  0.00    +0.000 F 
ATOM     28  F   UNL     1       0.981  11.679  18.409  0.00  0.00    +0.000 F 
ATOM     29  F   UNL     1       2.367  10.214  17.589  0.00  0.00    +0.000 F 
ENDBRANCH   8  26
BRANCH   6  30
ATOM     30  C   UNL     1       0.007  10.064  23.060  0.00  0.00    +0.000 C 
ATOM     31  O   UNL     1      -0.449  11.195  23.007  0.00  0.00    +0.000 OA
BRANCH  30  32
ATOM     32  O   UNL     1       0.044   9.339  24.193  0.00  0.00    +0.000 OA
ATOM     33  H   UNL     1      -0.807   8.948  24.477  0.00  0.00    +0.000 HD
ENDBRANCH  30  32
ENDBRANCH   6  30
TORSDOF 7
ENDMDL
MODEL 6
REMARK VINA RESULT:      -8.9      1.371      2.228
REMARK  Name = 
REMARK  9 active torsions:
REMARK  status: ('A' for Active; 'I' for Inactive)
REMARK    1  A    between atoms: C_1  and  C_2
REMARK    2  A    between atoms: C_2  and  C_3
REMARK    3  A    between atoms: C_2  and  C_10
REMARK    4  A    between atoms: C_3  and  C_4
REMARK    5  A    between atoms: N_8  and  C_9
REMARK    6  A    between atoms: C_14  and  N_15
REMARK    7  A    between atoms: C_20  and  C_21
REMARK    8  A    between atoms: C_21  and  O_23
REMARK    9  A    between atoms: C_25  and  C_26
REMARK                            x       y       z     vdW  Elec       q    Type
REMARK                         _______ _______ _______ _____ _____    ______ ____
ROOT
ATOM      1  N   UNL     1       2.045   7.547  19.567  0.00  0.00    +0.000 N 
ATOM      2  C   UNL     1       1.372   7.984  20.779  0.00  0.00    +0.000 C 
ATOM      3  C   UNL     1       0.822   9.311  20.436  0.00  0.00    +0.000 A 
ATOM      4  C   UNL     1       1.148   9.632  19.118  0.00  0.00    +0.000 A 
ATOM      5  C   UNL     1       0.751  10.830  18.552  0.00  0.00    +0.000 A 
ATOM      6  C   UNL     1       0.027  11.721  19.364  0.00  0.00    +0.000 A 
ATOM      7  C   UNL     1      -0.309  11.378  20.699  0.00  0.00    +0.000 A 
ATOM      8  C   UNL     1       0.081  10.158  21.256  0.00  0.00    +0.000 A 
ATOM      9  C   UNL     1       1.926   8.499  18.549  0.00  0.00    +0.000 C 
ATOM     10  O   UNL     1       2.345   8.502  17.408  0.00  0.00    +0.000 OA
ENDROOT
BRANCH   1  15
ATOM     11  C   UNL     1       4.507   4.873  18.673  0.00  0.00    +0.000 A 
ATOM     12  C   UNL     1       4.055   3.814  19.461  0.00  0.00    +0.000 A 
ATOM     13  C   UNL     1       2.898   3.961  20.241  0.00  0.00    +0.000 A 
ATOM     14  C   UNL     1       2.183   5.171  20.270  0.00  0.00    +0.000 A 
ATOM     15  C   UNL     1       2.645   6.263  19.543  0.00  0.00    +0.000 A 
ATOM     16  C   UNL     1       3.795   6.075  18.748  0.00  0.00    +0.000 A 
BRANCH  11  18
ATOM     17  C   UNL     1       7.063   4.968  18.306  0.00  0.00    +0.000 C 
ATOM     18  C   UNL     1       5.668   4.725  17.691  0.00  0.00    +0.000 C 
BRANCH  18  19
ATOM     19  C   UNL     1       5.458   5.597  16.424  0.00  0.00    +0.000 C 
BRANCH  19  20
ATOM     20  C   UNL     1       6.444   5.304  15.336  0.00  0.00    +0.000 A 
ATOM     21  N   UNL     1       7.671   5.781  15.236  0.00  0.00    +0.000 NA
ATOM     22  N   UNL     1       8.141   5.505  13.975  0.00  0.00    +0.000 NA
ATOM     23  C   UNL     1       7.218   4.808  13.356  0.00  0.00    +0.000 A 
ATOM     24  N   UNL     1       6.181   4.577  14.205  0.00  0.00    +0.000 N 
ATOM     25  C   UNL     1       5.058   3.714  13.956  0.00  0.00    +0.000 C 
ENDBRANCH  19  20
ENDBRANCH  18  19
ENDBRANCH  11  18
ENDBRANCH   1  15
BRANCH   8  26
ATOM     26  C   UNL     1      -0.287   9.780  22.674  0.00  0.00    +0.000 C 
ATOM     27  F   UNL     1      -0.989   8.620  22.769  0.00  0.00    +0.000 F 
ATOM     28  F   UNL     1       0.805   9.627  23.465  0.00  0.00    +0.000 F 
ATOM     29  F   UNL     1      -1.064  10.726  23.269  0.00  0.00    +0.000 F 
ENDBRANCH   8  26
BRANCH   6  30
ATOM     30  C   UNL     1      -0.465  13.034  18.872  0.00  0.00    +0.000 C 
ATOM     31  O   UNL     1      -0.464  14.034  19.570  0.00  0.00    +0.000 OA
BRANCH  30  32
ATOM     32  O   UNL     1      -0.856  13.036  17.585  0.00  0.00    +0.000 OA
ATOM     33  H   UNL     1      -0.883  12.162  17.147  0.00  0.00    +0.000 HD
ENDBRANCH  30  32
ENDBRANCH   6  30
TORSDOF 7
ENDMDL
MODEL 7
REMARK VINA RESULT:      -8.8      3.771      8.705
REMARK  Name = 
REMARK  9 active torsions:
REMARK  status: ('A' for Active; 'I' for Inactive)
REMARK    1  A    between atoms: C_1  and  C_2
REMARK    2  A    between atoms: C_2  and  C_3
REMARK    3  A    between atoms: C_2  and  C_10
REMARK    4  A    between atoms: C_3  and  C_4
REMARK    5  A    between atoms: N_8  and  C_9
REMARK    6  A    between atoms: C_14  and  N_15
REMARK    7  A    between atoms: C_20  and  C_21
REMARK    8  A    between atoms: C_21  and  O_23
REMARK    9  A    between atoms: C_25  and  C_26
REMARK                            x       y       z     vdW  Elec       q    Type
REMARK                         _______ _______ _______ _____ _____    ______ ____
ROOT
ATOM      1  N   UNL     1       2.060   7.659  19.245  0.00  0.00    +0.000 N 
ATOM      2  C   UNL     1       2.082   6.280  19.705  0.00  0.00    +0.000 C 
ATOM      3  C   UNL     1       3.020   5.601  18.789  0.00  0.00    +0.000 A 
ATOM      4  C   UNL     1       3.514   6.513  17.856  0.00  0.00    +0.000 A 
ATOM      5  C   UNL     1       4.413   6.125  16.879  0.00  0.00    +0.000 A 
ATOM      6  C   UNL     1       4.790   4.770  16.848  0.00  0.00    +0.000 A 
ATOM      7  C   UNL     1       4.290   3.855  17.809  0.00  0.00    +0.000 A 
ATOM      8  C   UNL     1       3.397   4.261  18.804  0.00  0.00    +0.000 A 
ATOM      9  C   UNL     1       2.909   7.841  18.148  0.00  0.00    +0.000 C 
ATOM     10  O   UNL     1       3.161   8.832  17.492  0.00  0.00    +0.000 OA
ENDROOT
BRANCH   1  15
ATOM     11  C   UNL     1      -0.232  10.564  19.803  0.00  0.00    +0.000 A 
ATOM     12  C   UNL     1      -0.415  10.504  21.184  0.00  0.00    +0.000 A 
ATOM     13  C   UNL     1       0.270   9.543  21.944  0.00  0.00    +0.000 A 
ATOM     14  C   UNL     1       1.129   8.610  21.340  0.00  0.00    +0.000 A 
ATOM     15  C   UNL     1       1.282   8.606  19.957  0.00  0.00    +0.000 A 
ATOM     16  C   UNL     1       0.602   9.601  19.226  0.00  0.00    +0.000 A 
BRANCH  11  18
ATOM     17  C   UNL     1      -0.479  13.108  19.417  0.00  0.00    +0.000 C 
ATOM     18  C   UNL     1      -0.830  11.680  18.947  0.00  0.00    +0.000 C 
BRANCH  18  19
ATOM     19  C   UNL     1      -2.364  11.510  18.778  0.00  0.00    +0.000 C 
BRANCH  19  20
ATOM     20  C   UNL     1      -2.752  10.936  17.452  0.00  0.00    +0.000 A 
ATOM     21  N   UNL     1      -2.007  10.170  16.677  0.00  0.00    +0.000 NA
ATOM     22  N   UNL     1      -2.606  10.089  15.444  0.00  0.00    +0.000 NA
ATOM     23  C   UNL     1      -3.736  10.753  15.511  0.00  0.00    +0.000 A 
ATOM     24  N   UNL     1      -3.912  11.216  16.778  0.00  0.00    +0.000 N 
ATOM     25  C   UNL     1      -5.098  11.844  17.292  0.00  0.00    +0.000 C 
ENDBRANCH  19  20
ENDBRANCH  18  19
ENDBRANCH  11  18
ENDBRANCH   1  15
BRANCH   8  26
ATOM     26  C   UNL     1       2.872   3.292  19.841  0.00  0.00    +0.000 C 
ATOM     27  F   UNL     1       3.003   3.733  21.120  0.00  0.00    +0.000 F 
ATOM     28  F   UNL     1       1.553   3.020  19.669  0.00  0.00    +0.000 F 
ATOM     29  F   UNL     1       3.521   2.097  19.799  0.00  0.00    +0.000 F 
ENDBRANCH   8  26
BRANCH   6  30
ATOM     30  C   UNL     1       5.754   4.230  15.855  0.00  0.00    +0.000 C 
ATOM     31  O   UNL     1       5.472   4.098  14.676  0.00  0.00    +0.000 OA
BRANCH  30  32
ATOM     32  O   UNL     1       6.973   3.955  16.356  0.00  0.00    +0.000 OA
ATOM     33  H   UNL     1       7.204   4.411  17.189  0.00  0.00    +0.000 HD
ENDBRANCH  30  32
ENDBRANCH   6  30
TORSDOF 7
ENDMDL
MODEL 8
REMARK VINA RESULT:      -8.7      2.692      3.539
REMARK  Name = 
REMARK  9 active torsions:
REMARK  status: ('A' for Active; 'I' for Inactive)
REMARK    1  A    between atoms: C_1  and  C_2
REMARK    2  A    between atoms: C_2  and  C_3
REMARK    3  A    between atoms: C_2  and  C_10
REMARK    4  A    between atoms: C_3  and  C_4
REMARK    5  A    between atoms: N_8  and  C_9
REMARK    6  A    between atoms: C_14  and  N_15
REMARK    7  A    between atoms: C_20  and  C_21
REMARK    8  A    between atoms: C_21  and  O_23
REMARK    9  A    between atoms: C_25  and  C_26
REMARK                            x       y       z     vdW  Elec       q    Type
REMARK                         _______ _______ _______ _____ _____    ______ ____
ROOT
ATOM      1  N   UNL     1       2.333   6.145  19.078  0.00  0.00    +0.000 N 
ATOM      2  C   UNL     1       2.114   7.463  18.507  0.00  0.00    +0.000 C 
ATOM      3  C   UNL     1       1.494   8.239  19.600  0.00  0.00    +0.000 A 
ATOM      4  C   UNL     1       1.357   7.436  20.732  0.00  0.00    +0.000 A 
ATOM      5  C   UNL     1       0.798   7.927  21.897  0.00  0.00    +0.000 A 
ATOM      6  C   UNL     1       0.350   9.261  21.888  0.00  0.00    +0.000 A 
ATOM      7  C   UNL     1       0.506  10.071  20.735  0.00  0.00    +0.000 A 
ATOM      8  C   UNL     1       1.090   9.571  19.569  0.00  0.00    +0.000 A 
ATOM      9  C   UNL     1       1.903   6.091  20.408  0.00  0.00    +0.000 C 
ATOM     10  O   UNL     1       1.916   5.180  21.213  0.00  0.00    +0.000 OA
ENDROOT
BRANCH   1  15
ATOM     11  C   UNL     1       4.764   4.676  16.640  0.00  0.00    +0.000 A 
ATOM     12  C   UNL     1       4.459   3.319  16.737  0.00  0.00    +0.000 A 
ATOM     13  C   UNL     1       3.405   2.891  17.559  0.00  0.00    +0.000 A 
ATOM     14  C   UNL     1       2.653   3.804  18.319  0.00  0.00    +0.000 A 
ATOM     15  C   UNL     1       2.976   5.156  18.291  0.00  0.00    +0.000 A 
ATOM     16  C   UNL     1       4.021   5.557  17.433  0.00  0.00    +0.000 A 
BRANCH  11  18
ATOM     17  C   UNL     1       5.501   4.879  14.171  0.00  0.00    +0.000 C 
ATOM     18  C   UNL     1       5.796   5.214  15.650  0.00  0.00    +0.000 C 
BRANCH  18  19
ATOM     19  C   UNL     1       7.238   4.790  16.040  0.00  0.00    +0.000 C 
BRANCH  19  20
ATOM     20  C   UNL     1       7.619   5.203  17.427  0.00  0.00    +0.000 A 
ATOM     21  N   UNL     1       7.914   4.403  18.435  0.00  0.00    +0.000 NA
ATOM     22  N   UNL     1       7.931   5.148  19.589  0.00  0.00    +0.000 NA
ATOM     23  C   UNL     1       7.711   6.397  19.253  0.00  0.00    +0.000 A 
ATOM     24  N   UNL     1       7.607   6.490  17.900  0.00  0.00    +0.000 N 
ATOM     25  C   UNL     1       7.531   7.706  17.138  0.00  0.00    +0.000 C 
ENDBRANCH  19  20
ENDBRANCH  18  19
ENDBRANCH  11  18
ENDBRANCH   1  15
BRANCH   8  26
ATOM     26  C   UNL     1       1.272  10.435  18.340  0.00  0.00    +0.000 C 
ATOM     27  F   UNL     1       2.559  10.509  17.907  0.00  0.00    +0.000 F 
ATOM     28  F   UNL     1       0.544   9.990  17.285  0.00  0.00    +0.000 F 
ATOM     29  F   UNL     1       0.887  11.722  18.559  0.00  0.00    +0.000 F 
ENDBRANCH   8  26
BRANCH   6  30
ATOM     30  C   UNL     1      -0.259   9.909  23.078  0.00  0.00    +0.000 C 
ATOM     31  O   UNL     1      -1.204  10.675  22.991  0.00  0.00    +0.000 OA
BRANCH  30  32
ATOM     32  O   UNL     1       0.281   9.538  24.253  0.00  0.00    +0.000 OA
ATOM     33  H   UNL     1       0.962   8.837  24.206  0.00  0.00    +0.000 HD
ENDBRANCH  30  32
ENDBRANCH   6  30
TORSDOF 7
ENDMDL
MODEL 9
REMARK VINA RESULT:      -8.7      4.009      8.129
REMARK  Name = 
REMARK  9 active torsions:
REMARK  status: ('A' for Active; 'I' for Inactive)
REMARK    1  A    between atoms: C_1  and  C_2
REMARK    2  A    between atoms: C_2  and  C_3
REMARK    3  A    between atoms: C_2  and  C_10
REMARK    4  A    between atoms: C_3  and  C_4
REMARK    5  A    between atoms: N_8  and  C_9
REMARK    6  A    between atoms: C_14  and  N_15
REMARK    7  A    between atoms: C_20  and  C_21
REMARK    8  A    between atoms: C_21  and  O_23
REMARK    9  A    between atoms: C_25  and  C_26
REMARK                            x       y       z     vdW  Elec       q    Type
REMARK                         _______ _______ _______ _____ _____    ______ ____
ROOT
ATOM      1  N   UNL     1       2.633   7.079  18.698  0.00  0.00    +0.000 N 
ATOM      2  C   UNL     1       2.598   5.627  18.766  0.00  0.00    +0.000 C 
ATOM      3  C   UNL     1       3.594   5.189  17.769  0.00  0.00    +0.000 A 
ATOM      4  C   UNL     1       4.173   6.300  17.157  0.00  0.00    +0.000 A 
ATOM      5  C   UNL     1       5.139   6.160  16.177  0.00  0.00    +0.000 A 
ATOM      6  C   UNL     1       5.497   4.851  15.805  0.00  0.00    +0.000 A 
ATOM      7  C   UNL     1       4.910   3.728  16.443  0.00  0.00    +0.000 A 
ATOM      8  C   UNL     1       3.949   3.882  17.445  0.00  0.00    +0.000 A 
ATOM      9  C   UNL     1       3.567   7.520  17.756  0.00  0.00    +0.000 C 
ATOM     10  O   UNL     1       3.884   8.643  17.414  0.00  0.00    +0.000 OA
ENDROOT
BRANCH   1  15
ATOM     11  C   UNL     1       0.464   9.879  19.908  0.00  0.00    +0.000 A 
ATOM     12  C   UNL     1       0.073   9.399  21.157  0.00  0.00    +0.000 A 
ATOM     13  C   UNL     1       0.576   8.178  21.632  0.00  0.00    +0.000 A 
ATOM     14  C   UNL     1       1.457   7.402  20.861  0.00  0.00    +0.000 A 
ATOM     15  C   UNL     1       1.816   7.825  19.585  0.00  0.00    +0.000 A 
ATOM     16  C   UNL     1       1.316   9.069  19.149  0.00  0.00    +0.000 A 
BRANCH  11  18
ATOM     17  C   UNL     1      -1.043  11.272  18.336  0.00  0.00    +0.000 C 
ATOM     18  C   UNL     1       0.071  11.268  19.405  0.00  0.00    +0.000 C 
BRANCH  18  19
ATOM     19  C   UNL     1       1.309  12.071  18.922  0.00  0.00    +0.000 C 
BRANCH  19  20
ATOM     20  C   UNL     1       1.879  12.967  19.977  0.00  0.00    +0.000 A 
ATOM     21  N   UNL     1       1.552  12.986  21.255  0.00  0.00    +0.000 NA
ATOM     22  N   UNL     1       2.082  14.119  21.821  0.00  0.00    +0.000 NA
ATOM     23  C   UNL     1       2.777  14.734  20.893  0.00  0.00    +0.000 A 
ATOM     24  N   UNL     1       2.756  13.996  19.751  0.00  0.00    +0.000 N 
ATOM     25  C   UNL     1       3.530  14.248  18.566  0.00  0.00    +0.000 C 
ENDBRANCH  19  20
ENDBRANCH  18  19
ENDBRANCH  11  18
ENDBRANCH   1  15
BRANCH   8  26
ATOM     26  C   UNL     1       3.331   2.688  18.139  0.00  0.00    +0.000 C 
ATOM     27  F   UNL     1       1.976   2.636  18.038  0.00  0.00    +0.000 F 
ATOM     28  F   UNL     1       3.791   1.510  17.645  0.00  0.00    +0.000 F 
ATOM     29  F   UNL     1       3.598   2.677  19.474  0.00  0.00    +0.000 F 
ENDBRANCH   8  26
BRANCH   6  30
ATOM     30  C   UNL     1       6.528   4.566  14.774  0.00  0.00    +0.000 C 
ATOM     31  O   UNL     1       7.518   5.262  14.631  0.00  0.00    +0.000 OA
BRANCH  30  32
ATOM     32  O   UNL     1       6.302   3.451  14.054  0.00  0.00    +0.000 OA
ATOM     33  H   UNL     1       5.926   3.589  13.162  0.00  0.00    +0.000 HD
ENDBRANCH  30  32
ENDBRANCH   6  30
TORSDOF 7
ENDMDL
