MODEL 1
REMARK VINA RESULT:      -8.6      0.000      0.000
REMARK  Name = 
REMARK  9 active torsions:
REMARK  status: ('A' for Active; 'I' for Inactive)
REMARK    1  A    between atoms: C_1  and  C_2
REMARK    2  A    between atoms: C_2  and  S_3
REMARK    3  A    between atoms: C_2  and  C_10
REMARK    4  A    between atoms: S_3  and  C_4
REMARK    5  A    between atoms: N_8  and  C_9
REMARK    6  A    between atoms: C_14  and  N_15
REMARK    7  A    between atoms: C_16  and  C_18
REMARK    8  A    between atoms: C_20  and  C_21
REMARK    9  A    between atoms: C_26  and  O_27
REMARK                            x       y       z     vdW  Elec       q    Type
REMARK                         _______ _______ _______ _____ _____    ______ ____
ROOT
ATOM      1  N   UNL     1       2.270   7.223  20.482  0.00  0.00    +0.000 N 
ATOM      2  C   UNL     1       1.843   5.913  20.472  0.00  0.00    +0.000 C 
ATOM      3  O   UNL     1       0.724   5.501  20.764  0.00  0.00    +0.000 OA
ATOM      4  H   UNL     1       3.251   7.360  20.252  0.00  0.00    +0.000 HD
ENDROOT
BRANCH   1   9
ATOM      5  C   UNL     1       0.261  10.307  19.891  0.00  0.00    +0.000 A 
ATOM      6  C   UNL     1      -0.176  10.586  21.195  0.00  0.00    +0.000 A 
ATOM      7  C   UNL     1       0.246   9.807  22.270  0.00  0.00    +0.000 A 
ATOM      8  C   UNL     1       1.085   8.719  22.051  0.00  0.00    +0.000 A 
ATOM      9  C   UNL     1       1.481   8.363  20.758  0.00  0.00    +0.000 A 
ATOM     10  C   UNL     1       1.070   9.170  19.685  0.00  0.00    +0.000 A 
BRANCH   5  12
ATOM     11  C   UNL     1       0.874  12.461  18.649  0.00  0.00    +0.000 C 
ATOM     12  C   UNL     1      -0.105  11.285  18.783  0.00  0.00    +0.000 C 
BRANCH  12  13
ATOM     13  S   UNL     1      -1.742  12.047  19.069  0.00  0.00    +0.000 S 
BRANCH  13  14
ATOM     14  C   UNL     1      -2.705  11.543  17.734  0.00  0.00    +0.000 A 
ATOM     15  N   UNL     1      -2.315  11.127  16.548  0.00  0.00    +0.000 NA
ATOM     16  N   UNL     1      -3.444  10.953  15.769  0.00  0.00    +0.000 NA
ATOM     17  C   UNL     1      -4.485  11.283  16.498  0.00  0.00    +0.000 A 
ATOM     18  N   UNL     1      -4.070  11.629  17.748  0.00  0.00    +0.000 N 
ATOM     19  C   UNL     1      -4.914  12.010  18.853  0.00  0.00    +0.000 C 
ENDBRANCH  13  14
ENDBRANCH  12  13
ENDBRANCH   5  12
ENDBRANCH   1   9
BRANCH   2  20
ATOM     20  C   UNL     1       2.876   4.905  20.091  0.00  0.00    +0.000 A 
ATOM     21  C   UNL     1       4.068   5.365  19.544  0.00  0.00    +0.000 A 
ATOM     22  C   UNL     1       4.965   4.430  19.067  0.00  0.00    +0.000 A 
ATOM     23  C   UNL     1       4.711   3.073  19.262  0.00  0.00    +0.000 A 
ATOM     24  C   UNL     1       3.512   2.707  19.860  0.00  0.00    +0.000 A 
ATOM     25  N   UNL     1       2.568   3.592  20.254  0.00  0.00    +0.000 NA
BRANCH  22  26
ATOM     26  C   UNL     1       6.196   4.813  18.324  0.00  0.00    +0.000 C 
ATOM     27  O   UNL     1       7.216   5.014  18.982  0.00  0.00    +0.000 OA
ATOM     28  N   UNL     1       6.194   4.838  16.936  0.00  0.00    +0.000 N 
ATOM     29  C   UNL     1       7.463   4.927  16.227  0.00  0.00    +0.000 C 
ATOM     30  C   UNL     1       7.148   4.651  14.761  0.00  0.00    +0.000 C 
ATOM     31  C   UNL     1       5.804   3.934  14.795  0.00  0.00    +0.000 C 
ATOM     32  C   UNL     1       5.111   4.552  16.003  0.00  0.00    +0.000 C 
BRANCH  31  33
ATOM     33  O   UNL     1       5.081   4.112  13.589  0.00  0.00    +0.000 OA
ATOM     34  H   UNL     1       4.823   5.048  13.515  0.00  0.00    +0.000 HD
ENDBRANCH  31  33
ENDBRANCH  22  26
ENDBRANCH   2  20
TORSDOF 7
ENDMDL
MODEL 2
REMARK VINA RESULT:      -8.1      1.747      2.036
REMARK  Name = 
REMARK  9 active torsions:
REMARK  status: ('A' for Active; 'I' for Inactive)
REMARK    1  A    between atoms: C_1  and  C_2
REMARK    2  A    between atoms: C_2  and  S_3
REMARK    3  A    between atoms: C_2  and  C_10
REMARK    4  A    between atoms: S_3  and  C_4
REMARK    5  A    between atoms: N_8  and  C_9
REMARK    6  A    between atoms: C_14  and  N_15
REMARK    7  A    between atoms: C_16  and  C_18
REMARK    8  A    between atoms: C_20  and  C_21
REMARK    9  A    between atoms: C_26  and  O_27
REMARK                            x       y       z     vdW  Elec       q    Type
REMARK                         _______ _______ _______ _____ _____    ______ ____
ROOT
ATOM      1  N   UNL     1       2.222   7.438  19.496  0.00  0.00    +0.000 N 
ATOM      2  C   UNL     1       2.774   7.492  18.235  0.00  0.00    +0.000 C 
ATOM      3  O   UNL     1       2.660   8.403  17.418  0.00  0.00    +0.000 OA
ATOM      4  H   UNL     1       2.394   6.576  20.006  0.00  0.00    +0.000 HD
ENDROOT
BRANCH   1   9
ATOM      5  C   UNL     1       0.189  10.534  19.914  0.00  0.00    +0.000 A 
ATOM      6  C   UNL     1      -0.108  10.467  21.284  0.00  0.00    +0.000 A 
ATOM      7  C   UNL     1       0.417   9.450  22.078  0.00  0.00    +0.000 A 
ATOM      8  C   UNL     1       1.219   8.468  21.506  0.00  0.00    +0.000 A 
ATOM      9  C   UNL     1       1.475   8.457  20.132  0.00  0.00    +0.000 A 
ATOM     10  C   UNL     1       0.962   9.501  19.345  0.00  0.00    +0.000 A 
BRANCH   5  12
ATOM     11  C   UNL     1       0.437  13.053  19.525  0.00  0.00    +0.000 C 
ATOM     12  C   UNL     1      -0.282  11.753  19.133  0.00  0.00    +0.000 C 
BRANCH  12  13
ATOM     13  S   UNL     1      -2.061  12.082  19.404  0.00  0.00    +0.000 S 
BRANCH  13  14
ATOM     14  C   UNL     1      -2.831  11.574  17.951  0.00  0.00    +0.000 A 
ATOM     15  N   UNL     1      -2.282  11.196  16.816  0.00  0.00    +0.000 NA
ATOM     16  N   UNL     1      -3.300  10.999  15.900  0.00  0.00    +0.000 NA
ATOM     17  C   UNL     1      -4.433  11.278  16.499  0.00  0.00    +0.000 A 
ATOM     18  N   UNL     1      -4.190  11.612  17.797  0.00  0.00    +0.000 N 
ATOM     19  C   UNL     1      -5.178  11.941  18.793  0.00  0.00    +0.000 C 
ENDBRANCH  13  14
ENDBRANCH  12  13
ENDBRANCH   5  12
ENDBRANCH   1   9
BRANCH   2  20
ATOM     20  C   UNL     1       3.564   6.293  17.828  0.00  0.00    +0.000 A 
ATOM     21  C   UNL     1       4.697   6.492  17.046  0.00  0.00    +0.000 A 
ATOM     22  C   UNL     1       5.350   5.377  16.557  0.00  0.00    +0.000 A 
ATOM     23  C   UNL     1       4.938   4.108  16.962  0.00  0.00    +0.000 A 
ATOM     24  C   UNL     1       3.821   4.008  17.782  0.00  0.00    +0.000 A 
ATOM     25  N   UNL     1       3.101   5.073  18.203  0.00  0.00    +0.000 NA
BRANCH  22  26
ATOM     26  C   UNL     1       6.475   5.474  15.588  0.00  0.00    +0.000 C 
ATOM     27  O   UNL     1       7.541   5.928  16.000  0.00  0.00    +0.000 OA
ATOM     28  N   UNL     1       6.332   4.972  14.301  0.00  0.00    +0.000 N 
ATOM     29  C   UNL     1       7.515   4.810  13.469  0.00  0.00    +0.000 C 
ATOM     30  C   UNL     1       7.073   3.994  12.260  0.00  0.00    +0.000 C 
ATOM     31  C   UNL     1       5.785   3.317  12.715  0.00  0.00    +0.000 C 
ATOM     32  C   UNL     1       5.180   4.334  13.676  0.00  0.00    +0.000 C 
BRANCH  31  33
ATOM     33  O   UNL     1       4.935   3.013  11.622  0.00  0.00    +0.000 OA
ATOM     34  H   UNL     1       5.240   2.186  11.210  0.00  0.00    +0.000 HD
ENDBRANCH  31  33
ENDBRANCH  22  26
ENDBRANCH   2  20
TORSDOF 7
ENDMDL
MODEL 3
REMARK VINA RESULT:      -8.1      5.687      7.676
REMARK  Name = 
REMARK  9 active torsions:
REMARK  status: ('A' for Active; 'I' for Inactive)
REMARK    1  A    between atoms: C_1  and  C_2
REMARK    2  A    between atoms: C_2  and  S_3
REMARK    3  A    between atoms: C_2  and  C_10
REMARK    4  A    between atoms: S_3  and  C_4
REMARK    5  A    between atoms: N_8  and  C_9
REMARK    6  A    between atoms: C_14  and  N_15
REMARK    7  A    between atoms: C_16  and  C_18
REMARK    8  A    between atoms: C_20  and  C_21
REMARK    9  A    between atoms: C_26  and  O_27
REMARK                            x       y       z     vdW  Elec       q    Type
REMARK                         _______ _______ _______ _____ _____    ______ ____
ROOT
ATOM      1  N   UNL     1       7.826   9.202  17.599  0.00  0.00    +0.000 N 
ATOM      2  C   UNL     1       7.837   7.884  18.001  0.00  0.00    +0.000 C 
ATOM      3  O   UNL     1       8.537   7.388  18.881  0.00  0.00    +0.000 OA
ATOM      4  H   UNL     1       7.207   9.410  16.819  0.00  0.00    +0.000 HD
ENDROOT
BRANCH   1   9
ATOM      5  C   UNL     1       8.878  12.684  18.413  0.00  0.00    +0.000 A 
ATOM      6  C   UNL     1       9.901  12.435  19.341  0.00  0.00    +0.000 A 
ATOM      7  C   UNL     1      10.289  11.133  19.642  0.00  0.00    +0.000 A 
ATOM      8  C   UNL     1       9.638  10.059  19.043  0.00  0.00    +0.000 A 
ATOM      9  C   UNL     1       8.564  10.263  18.171  0.00  0.00    +0.000 A 
ATOM     10  C   UNL     1       8.198  11.581  17.855  0.00  0.00    +0.000 A 
BRANCH   5  12
ATOM     11  C   UNL     1       9.879  14.935  17.713  0.00  0.00    +0.000 C 
ATOM     12  C   UNL     1       8.606  14.126  18.007  0.00  0.00    +0.000 C 
BRANCH  12  13
ATOM     13  S   UNL     1       7.740  15.047  19.328  0.00  0.00    +0.000 S 
BRANCH  13  14
ATOM     14  C   UNL     1       6.149  15.299  18.722  0.00  0.00    +0.000 A 
ATOM     15  N   UNL     1       5.446  14.538  17.910  0.00  0.00    +0.000 NA
ATOM     16  N   UNL     1       4.276  15.210  17.607  0.00  0.00    +0.000 NA
ATOM     17  C   UNL     1       4.309  16.364  18.230  0.00  0.00    +0.000 A 
ATOM     18  N   UNL     1       5.450  16.450  18.967  0.00  0.00    +0.000 N 
ATOM     19  C   UNL     1       5.833  17.542  19.826  0.00  0.00    +0.000 C 
ENDBRANCH  13  14
ENDBRANCH  12  13
ENDBRANCH   5  12
ENDBRANCH   1   9
BRANCH   2  20
ATOM     20  C   UNL     1       6.917   6.977  17.255  0.00  0.00    +0.000 A 
ATOM     21  C   UNL     1       5.633   6.794  17.756  0.00  0.00    +0.000 A 
ATOM     22  C   UNL     1       4.828   5.852  17.145  0.00  0.00    +0.000 A 
ATOM     23  C   UNL     1       5.272   5.217  15.985  0.00  0.00    +0.000 A 
ATOM     24  C   UNL     1       6.555   5.497  15.532  0.00  0.00    +0.000 A 
ATOM     25  N   UNL     1       7.406   6.342  16.159  0.00  0.00    +0.000 NA
BRANCH  22  26
ATOM     26  C   UNL     1       3.499   5.465  17.691  0.00  0.00    +0.000 C 
ATOM     27  O   UNL     1       2.599   6.301  17.636  0.00  0.00    +0.000 OA
ATOM     28  N   UNL     1       3.282   4.172  18.147  0.00  0.00    +0.000 N 
ATOM     29  C   UNL     1       1.919   3.729  18.401  0.00  0.00    +0.000 C 
ATOM     30  C   UNL     1       1.994   2.221  18.608  0.00  0.00    +0.000 C 
ATOM     31  C   UNL     1       3.319   1.822  17.969  0.00  0.00    +0.000 C 
ATOM     32  C   UNL     1       4.201   3.042  18.208  0.00  0.00    +0.000 C 
BRANCH  31  33
ATOM     33  O   UNL     1       3.844   0.637  18.543  0.00  0.00    +0.000 OA
ATOM     34  H   UNL     1       4.293   0.125  17.847  0.00  0.00    +0.000 HD
ENDBRANCH  31  33
ENDBRANCH  22  26
ENDBRANCH   2  20
TORSDOF 7
ENDMDL
MODEL 4
REMARK VINA RESULT:      -8.0      2.590      3.187
REMARK  Name = 
REMARK  9 active torsions:
REMARK  status: ('A' for Active; 'I' for Inactive)
REMARK    1  A    between atoms: C_1  and  C_2
REMARK    2  A    between atoms: C_2  and  S_3
REMARK    3  A    between atoms: C_2  and  C_10
REMARK    4  A    between atoms: S_3  and  C_4
REMARK    5  A    between atoms: N_8  and  C_9
REMARK    6  A    between atoms: C_14  and  N_15
REMARK    7  A    between atoms: C_16  and  C_18
REMARK    8  A    between atoms: C_20  and  C_21
REMARK    9  A    between atoms: C_26  and  O_27
REMARK                            x       y       z     vdW  Elec       q    Type
REMARK                         _______ _______ _______ _____ _____    ______ ____
ROOT
ATOM      1  N   UNL     1       2.180   7.107  20.516  0.00  0.00    +0.000 N 
ATOM      2  C   UNL     1       1.784   5.789  20.433  0.00  0.00    +0.000 C 
ATOM      3  O   UNL     1       0.651   5.348  20.610  0.00  0.00    +0.000 OA
ATOM      4  H   UNL     1       3.175   7.268  20.382  0.00  0.00    +0.000 HD
ENDROOT
BRANCH   1   9
ATOM      5  C   UNL     1       0.430  10.343  19.917  0.00  0.00    +0.000 A 
ATOM      6  C   UNL     1      -0.367  10.424  21.069  0.00  0.00    +0.000 A 
ATOM      7  C   UNL     1      -0.276   9.459  22.068  0.00  0.00    +0.000 A 
ATOM      8  C   UNL     1       0.590   8.381  21.914  0.00  0.00    +0.000 A 
ATOM      9  C   UNL     1       1.344   8.224  20.748  0.00  0.00    +0.000 A 
ATOM     10  C   UNL     1       1.264   9.216  19.758  0.00  0.00    +0.000 A 
BRANCH   5  12
ATOM     11  C   UNL     1       1.795  12.046  18.578  0.00  0.00    +0.000 C 
ATOM     12  C   UNL     1       0.402  11.507  18.936  0.00  0.00    +0.000 C 
BRANCH  12  13
ATOM     13  S   UNL     1      -0.512  12.939  19.615  0.00  0.00    +0.000 S 
BRANCH  13  14
ATOM     14  C   UNL     1       0.660  13.830  20.507  0.00  0.00    +0.000 A 
ATOM     15  N   UNL     1       1.273  13.498  21.624  0.00  0.00    +0.000 NA
ATOM     16  N   UNL     1       2.032  14.581  22.027  0.00  0.00    +0.000 NA
ATOM     17  C   UNL     1       1.846  15.543  21.154  0.00  0.00    +0.000 A 
ATOM     18  N   UNL     1       1.018  15.105  20.165  0.00  0.00    +0.000 N 
ATOM     19  C   UNL     1       0.609  15.850  19.002  0.00  0.00    +0.000 C 
ENDBRANCH  13  14
ENDBRANCH  12  13
ENDBRANCH   5  12
ENDBRANCH   1   9
BRANCH   2  20
ATOM     20  C   UNL     1       2.868   4.812  20.124  0.00  0.00    +0.000 A 
ATOM     21  C   UNL     1       4.042   5.295  19.558  0.00  0.00    +0.000 A 
ATOM     22  C   UNL     1       4.989   4.377  19.147  0.00  0.00    +0.000 A 
ATOM     23  C   UNL     1       4.799   3.024  19.426  0.00  0.00    +0.000 A 
ATOM     24  C   UNL     1       3.614   2.638  20.036  0.00  0.00    +0.000 A 
ATOM     25  N   UNL     1       2.623   3.498  20.367  0.00  0.00    +0.000 NA
BRANCH  22  26
ATOM     26  C   UNL     1       6.208   4.774  18.390  0.00  0.00    +0.000 C 
ATOM     27  O   UNL     1       7.237   4.966  19.035  0.00  0.00    +0.000 OA
ATOM     28  N   UNL     1       6.183   4.819  17.003  0.00  0.00    +0.000 N 
ATOM     29  C   UNL     1       7.440   4.921  16.275  0.00  0.00    +0.000 C 
ATOM     30  C   UNL     1       7.103   4.666  14.811  0.00  0.00    +0.000 C 
ATOM     31  C   UNL     1       5.761   3.946  14.855  0.00  0.00    +0.000 C 
ATOM     32  C   UNL     1       5.086   4.545  16.084  0.00  0.00    +0.000 C 
BRANCH  31  33
ATOM     33  O   UNL     1       5.018   4.141  13.664  0.00  0.00    +0.000 OA
ATOM     34  H   UNL     1       5.290   3.471  13.013  0.00  0.00    +0.000 HD
ENDBRANCH  31  33
ENDBRANCH  22  26
ENDBRANCH   2  20
TORSDOF 7
ENDMDL
MODEL 5
REMARK VINA RESULT:      -8.0      0.780      1.213
REMARK  Name = 
REMARK  9 active torsions:
REMARK  status: ('A' for Active; 'I' for Inactive)
REMARK    1  A    between atoms: C_1  and  C_2
REMARK    2  A    between atoms: C_2  and  S_3
REMARK    3  A    between atoms: C_2  and  C_10
REMARK    4  A    between atoms: S_3  and  C_4
REMARK    5  A    between atoms: N_8  and  C_9
REMARK    6  A    between atoms: C_14  and  N_15
REMARK    7  A    between atoms: C_16  and  C_18
REMARK    8  A    between atoms: C_20  and  C_21
REMARK    9  A    between atoms: C_26  and  O_27
REMARK                            x       y       z     vdW  Elec       q    Type
REMARK                         _______ _______ _______ _____ _____    ______ ____
ROOT
ATOM      1  N   UNL     1       2.222   7.195  20.509  0.00  0.00    +0.000 N 
ATOM      2  C   UNL     1       1.805   5.882  20.464  0.00  0.00    +0.000 C 
ATOM      3  O   UNL     1       0.671   5.462  20.679  0.00  0.00    +0.000 OA
ATOM      4  H   UNL     1       3.215   7.338  20.345  0.00  0.00    +0.000 HD
ENDROOT
BRANCH   1   9
ATOM      5  C   UNL     1       0.056  10.142  19.791  0.00  0.00    +0.000 A 
ATOM      6  C   UNL     1      -0.299  10.526  21.093  0.00  0.00    +0.000 A 
ATOM      7  C   UNL     1       0.226   9.865  22.200  0.00  0.00    +0.000 A 
ATOM      8  C   UNL     1       1.090   8.789  22.019  0.00  0.00    +0.000 A 
ATOM      9  C   UNL     1       1.409   8.329  20.739  0.00  0.00    +0.000 A 
ATOM     10  C   UNL     1       0.894   9.019  19.630  0.00  0.00    +0.000 A 
BRANCH   5  12
ATOM     11  C   UNL     1      -1.190  12.258  19.066  0.00  0.00    +0.000 C 
ATOM     12  C   UNL     1      -0.424  11.001  18.629  0.00  0.00    +0.000 C 
BRANCH  12  13
ATOM     13  S   UNL     1      -1.576  10.083  17.544  0.00  0.00    +0.000 S 
BRANCH  13  14
ATOM     14  C   UNL     1      -3.051  10.967  17.617  0.00  0.00    +0.000 A 
ATOM     15  N   UNL     1      -3.687  11.423  18.676  0.00  0.00    +0.000 NA
ATOM     16  N   UNL     1      -4.888  11.959  18.249  0.00  0.00    +0.000 NA
ATOM     17  C   UNL     1      -4.955  11.799  16.948  0.00  0.00    +0.000 A 
ATOM     18  N   UNL     1      -3.810  11.210  16.505  0.00  0.00    +0.000 N 
ATOM     19  C   UNL     1      -3.480  10.907  15.135  0.00  0.00    +0.000 C 
ENDBRANCH  13  14
ENDBRANCH  12  13
ENDBRANCH   5  12
ENDBRANCH   1   9
BRANCH   2  20
ATOM     20  C   UNL     1       2.866   4.882  20.147  0.00  0.00    +0.000 A 
ATOM     21  C   UNL     1       4.052   5.343  19.587  0.00  0.00    +0.000 A 
ATOM     22  C   UNL     1       4.978   4.407  19.169  0.00  0.00    +0.000 A 
ATOM     23  C   UNL     1       4.756   3.056  19.434  0.00  0.00    +0.000 A 
ATOM     24  C   UNL     1       3.560   2.692  20.039  0.00  0.00    +0.000 A 
ATOM     25  N   UNL     1       2.589   3.572  20.376  0.00  0.00    +0.000 NA
BRANCH  22  26
ATOM     26  C   UNL     1       6.207   4.782  18.419  0.00  0.00    +0.000 C 
ATOM     27  O   UNL     1       7.233   4.969  19.070  0.00  0.00    +0.000 OA
ATOM     28  N   UNL     1       6.194   4.814  17.031  0.00  0.00    +0.000 N 
ATOM     29  C   UNL     1       7.458   4.894  16.312  0.00  0.00    +0.000 C 
ATOM     30  C   UNL     1       7.130   4.628  14.848  0.00  0.00    +0.000 C 
ATOM     31  C   UNL     1       5.779   3.924  14.888  0.00  0.00    +0.000 C 
ATOM     32  C   UNL     1       5.101   4.543  16.105  0.00  0.00    +0.000 C 
BRANCH  31  33
ATOM     33  O   UNL     1       5.048   4.115  13.689  0.00  0.00    +0.000 OA
ATOM     34  H   UNL     1       5.271   3.399  13.069  0.00  0.00    +0.000 HD
ENDBRANCH  31  33
ENDBRANCH  22  26
ENDBRANCH   2  20
TORSDOF 7
ENDMDL
MODEL 6
REMARK VINA RESULT:      -8.0      1.601      1.875
REMARK  Name = 
REMARK  9 active torsions:
REMARK  status: ('A' for Active; 'I' for Inactive)
REMARK    1  A    between atoms: C_1  and  C_2
REMARK    2  A    between atoms: C_2  and  S_3
REMARK    3  A    between atoms: C_2  and  C_10
REMARK    4  A    between atoms: S_3  and  C_4
REMARK    5  A    between atoms: N_8  and  C_9
REMARK    6  A    between atoms: C_14  and  N_15
REMARK    7  A    between atoms: C_16  and  C_18
REMARK    8  A    between atoms: C_20  and  C_21
REMARK    9  A    between atoms: C_26  and  O_27
REMARK                            x       y       z     vdW  Elec       q    Type
REMARK                         _______ _______ _______ _____ _____    ______ ____
ROOT
ATOM      1  N   UNL     1       0.467   7.775  21.306  0.00  0.00    +0.000 N 
ATOM      2  C   UNL     1       1.510   7.530  20.439  0.00  0.00    +0.000 C 
ATOM      3  O   UNL     1       2.100   8.354  19.745  0.00  0.00    +0.000 OA
ATOM      4  H   UNL     1       0.079   6.951  21.758  0.00  0.00    +0.000 HD
ENDROOT
BRANCH   1   9
ATOM      5  C   UNL     1      -0.997  11.170  20.828  0.00  0.00    +0.000 A 
ATOM      6  C   UNL     1      -1.275  11.522  22.158  0.00  0.00    +0.000 A 
ATOM      7  C   UNL     1      -0.918  10.680  23.208  0.00  0.00    +0.000 A 
ATOM      8  C   UNL     1      -0.307   9.459  22.940  0.00  0.00    +0.000 A 
ATOM      9  C   UNL     1      -0.082   9.038  21.627  0.00  0.00    +0.000 A 
ATOM     10  C   UNL     1      -0.423   9.906  20.577  0.00  0.00    +0.000 A 
BRANCH   5  12
ATOM     11  C   UNL     1      -0.959  13.642  20.162  0.00  0.00    +0.000 C 
ATOM     12  C   UNL     1      -1.266  12.198  19.738  0.00  0.00    +0.000 C 
BRANCH  12  13
ATOM     13  S   UNL     1      -3.025  12.204  19.235  0.00  0.00    +0.000 S 
BRANCH  13  14
ATOM     14  C   UNL     1      -3.050  11.420  17.703  0.00  0.00    +0.000 A 
ATOM     15  N   UNL     1      -2.065  10.818  17.069  0.00  0.00    +0.000 NA
ATOM     16  N   UNL     1      -2.530  10.450  15.820  0.00  0.00    +0.000 NA
ATOM     17  C   UNL     1      -3.776  10.852  15.725  0.00  0.00    +0.000 A 
ATOM     18  N   UNL     1      -4.154  11.437  16.895  0.00  0.00    +0.000 N 
ATOM     19  C   UNL     1      -5.458  11.967  17.203  0.00  0.00    +0.000 C 
ENDBRANCH  13  14
ENDBRANCH  12  13
ENDBRANCH   5  12
ENDBRANCH   1   9
BRANCH   2  20
ATOM     20  C   UNL     1       1.928   6.102  20.326  0.00  0.00    +0.000 A 
ATOM     21  C   UNL     1       3.223   5.834  19.896  0.00  0.00    +0.000 A 
ATOM     22  C   UNL     1       3.567   4.517  19.660  0.00  0.00    +0.000 A 
ATOM     23  C   UNL     1       2.663   3.504  19.979  0.00  0.00    +0.000 A 
ATOM     24  C   UNL     1       1.406   3.866  20.445  0.00  0.00    +0.000 A 
ATOM     25  N   UNL     1       1.002   5.148  20.599  0.00  0.00    +0.000 NA
BRANCH  22  26
ATOM     26  C   UNL     1       4.869   4.130  19.053  0.00  0.00    +0.000 C 
ATOM     27  O   UNL     1       5.432   3.135  19.506  0.00  0.00    +0.000 OA
ATOM     28  N   UNL     1       5.359   4.821  17.953  0.00  0.00    +0.000 N 
ATOM     29  C   UNL     1       6.469   4.258  17.199  0.00  0.00    +0.000 C 
ATOM     30  C   UNL     1       6.579   5.086  15.924  0.00  0.00    +0.000 C 
ATOM     31  C   UNL     1       5.215   5.755  15.794  0.00  0.00    +0.000 C 
ATOM     32  C   UNL     1       4.790   5.960  17.243  0.00  0.00    +0.000 C 
BRANCH  31  33
ATOM     33  O   UNL     1       5.290   6.966  15.061  0.00  0.00    +0.000 OA
ATOM     34  H   UNL     1       4.457   7.087  14.573  0.00  0.00    +0.000 HD
ENDBRANCH  31  33
ENDBRANCH  22  26
ENDBRANCH   2  20
TORSDOF 7
ENDMDL
MODEL 7
REMARK VINA RESULT:      -8.0      4.399     10.726
REMARK  Name = 
REMARK  9 active torsions:
REMARK  status: ('A' for Active; 'I' for Inactive)
REMARK    1  A    between atoms: C_1  and  C_2
REMARK    2  A    between atoms: C_2  and  S_3
REMARK    3  A    between atoms: C_2  and  C_10
REMARK    4  A    between atoms: S_3  and  C_4
REMARK    5  A    between atoms: N_8  and  C_9
REMARK    6  A    between atoms: C_14  and  N_15
REMARK    7  A    between atoms: C_16  and  C_18
REMARK    8  A    between atoms: C_20  and  C_21
REMARK    9  A    between atoms: C_26  and  O_27
REMARK                            x       y       z     vdW  Elec       q    Type
REMARK                         _______ _______ _______ _____ _____    ______ ____
ROOT
ATOM      1  N   UNL     1       0.175  10.583  20.699  0.00  0.00    +0.000 N 
ATOM      2  C   UNL     1       0.653  11.774  21.203  0.00  0.00    +0.000 C 
ATOM      3  O   UNL     1       1.786  12.228  21.071  0.00  0.00    +0.000 OA
ATOM      4  H   UNL     1      -0.782  10.359  20.956  0.00  0.00    +0.000 HD
ENDROOT
BRANCH   1   9
ATOM      5  C   UNL     1       2.048   7.540  19.640  0.00  0.00    +0.000 A 
ATOM      6  C   UNL     1       2.183   7.784  18.265  0.00  0.00    +0.000 A 
ATOM      7  C   UNL     1       1.725   8.972  17.704  0.00  0.00    +0.000 A 
ATOM      8  C   UNL     1       1.096   9.920  18.504  0.00  0.00    +0.000 A 
ATOM      9  C   UNL     1       0.875   9.682  19.864  0.00  0.00    +0.000 A 
ATOM     10  C   UNL     1       1.364   8.491  20.424  0.00  0.00    +0.000 A 
BRANCH   5  12
ATOM     11  C   UNL     1       3.900   5.789  19.397  0.00  0.00    +0.000 C 
ATOM     12  C   UNL     1       2.708   6.296  20.221  0.00  0.00    +0.000 C 
BRANCH  12  13
ATOM     13  S   UNL     1       1.541   4.890  20.305  0.00  0.00    +0.000 S 
BRANCH  13  14
ATOM     14  C   UNL     1       1.973   3.877  18.982  0.00  0.00    +0.000 A 
ATOM     15  N   UNL     1       1.551   3.924  17.736  0.00  0.00    +0.000 NA
ATOM     16  N   UNL     1       2.081   2.834  17.069  0.00  0.00    +0.000 NA
ATOM     17  C   UNL     1       2.795   2.150  17.931  0.00  0.00    +0.000 A 
ATOM     18  N   UNL     1       2.783   2.785  19.136  0.00  0.00    +0.000 N 
ATOM     19  C   UNL     1       3.484   2.374  20.326  0.00  0.00    +0.000 C 
ENDBRANCH  13  14
ENDBRANCH  12  13
ENDBRANCH   5  12
ENDBRANCH   1   9
BRANCH   2  20
ATOM     20  C   UNL     1      -0.319  12.562  22.016  0.00  0.00    +0.000 A 
ATOM     21  C   UNL     1      -1.608  12.062  22.159  0.00  0.00    +0.000 A 
ATOM     22  C   UNL     1      -2.543  12.855  22.795  0.00  0.00    +0.000 A 
ATOM     23  C   UNL     1      -2.142  14.057  23.379  0.00  0.00    +0.000 A 
ATOM     24  C   UNL     1      -0.821  14.455  23.223  0.00  0.00    +0.000 A 
ATOM     25  N   UNL     1       0.100  13.750  22.526  0.00  0.00    +0.000 NA
BRANCH  22  26
ATOM     26  C   UNL     1      -3.984  12.488  22.866  0.00  0.00    +0.000 C 
ATOM     27  O   UNL     1      -4.392  11.995  23.916  0.00  0.00    +0.000 OA
ATOM     28  N   UNL     1      -4.833  12.792  21.811  0.00  0.00    +0.000 N 
ATOM     29  C   UNL     1      -6.272  12.695  22.009  0.00  0.00    +0.000 C 
ATOM     30  C   UNL     1      -6.913  13.351  20.792  0.00  0.00    +0.000 C 
ATOM     31  C   UNL     1      -5.807  14.223  20.211  0.00  0.00    +0.000 C 
ATOM     32  C   UNL     1      -4.540  13.441  20.539  0.00  0.00    +0.000 C 
BRANCH  31  33
ATOM     33  O   UNL     1      -5.981  14.438  18.820  0.00  0.00    +0.000 OA
ATOM     34  H   UNL     1      -5.304  13.930  18.339  0.00  0.00    +0.000 HD
ENDBRANCH  31  33
ENDBRANCH  22  26
ENDBRANCH   2  20
TORSDOF 7
ENDMDL
MODEL 8
REMARK VINA RESULT:      -7.9      2.853      4.016
REMARK  Name = 
REMARK  9 active torsions:
REMARK  status: ('A' for Active; 'I' for Inactive)
REMARK    1  A    between atoms: C_1  and  C_2
REMARK    2  A    between atoms: C_2  and  S_3
REMARK    3  A    between atoms: C_2  and  C_10
REMARK    4  A    between atoms: S_3  and  C_4
REMARK    5  A    between atoms: N_8  and  C_9
REMARK    6  A    between atoms: C_14  and  N_15
REMARK    7  A    between atoms: C_16  and  C_18
REMARK    8  A    between atoms: C_20  and  C_21
REMARK    9  A    between atoms: C_26  and  O_27
REMARK                            x       y       z     vdW  Elec       q    Type
REMARK                         _______ _______ _______ _____ _____    ______ ____
ROOT
ATOM      1  N   UNL     1       0.761   7.809  21.202  0.00  0.00    +0.000 N 
ATOM      2  C   UNL     1       1.632   7.567  20.162  0.00  0.00    +0.000 C 
ATOM      3  O   UNL     1       2.006   8.371  19.313  0.00  0.00    +0.000 OA
ATOM      4  H   UNL     1       0.537   6.999  21.775  0.00  0.00    +0.000 HD
ENDROOT
BRANCH   1   9
ATOM      5  C   UNL     1      -0.568  11.269  20.806  0.00  0.00    +0.000 A 
ATOM      6  C   UNL     1      -1.048  11.512  22.101  0.00  0.00    +0.000 A 
ATOM      7  C   UNL     1      -0.872  10.574  23.115  0.00  0.00    +0.000 A 
ATOM      8  C   UNL     1      -0.242   9.365  22.839  0.00  0.00    +0.000 A 
ATOM      9  C   UNL     1       0.183   9.054  21.544  0.00  0.00    +0.000 A 
ATOM     10  C   UNL     1       0.023  10.017  20.535  0.00  0.00    +0.000 A 
BRANCH   5  12
ATOM     11  C   UNL     1      -1.562  12.077  18.589  0.00  0.00    +0.000 C 
ATOM     12  C   UNL     1      -0.649  12.394  19.782  0.00  0.00    +0.000 C 
BRANCH  12  13
ATOM     13  S   UNL     1       0.988  12.764  19.057  0.00  0.00    +0.000 S 
BRANCH  13  14
ATOM     14  C   UNL     1       1.788  13.729  20.236  0.00  0.00    +0.000 A 
ATOM     15  N   UNL     1       2.264  13.369  21.410  0.00  0.00    +0.000 NA
ATOM     16  N   UNL     1       2.706  14.510  22.054  0.00  0.00    +0.000 NA
ATOM     17  C   UNL     1       2.471  15.530  21.262  0.00  0.00    +0.000 A 
ATOM     18  N   UNL     1       1.926  15.083  20.097  0.00  0.00    +0.000 N 
ATOM     19  C   UNL     1       1.568  15.888  18.957  0.00  0.00    +0.000 C 
ENDBRANCH  13  14
ENDBRANCH  12  13
ENDBRANCH   5  12
ENDBRANCH   1   9
BRANCH   2  20
ATOM     20  C   UNL     1       2.135   6.166  20.059  0.00  0.00    +0.000 A 
ATOM     21  C   UNL     1       2.800   5.795  18.896  0.00  0.00    +0.000 A 
ATOM     22  C   UNL     1       3.145   4.466  18.743  0.00  0.00    +0.000 A 
ATOM     23  C   UNL     1       2.937   3.577  19.797  0.00  0.00    +0.000 A 
ATOM     24  C   UNL     1       2.305   4.049  20.940  0.00  0.00    +0.000 A 
ATOM     25  N   UNL     1       1.868   5.321  21.088  0.00  0.00    +0.000 NA
BRANCH  22  26
ATOM     26  C   UNL     1       3.718   3.932  17.477  0.00  0.00    +0.000 C 
ATOM     27  O   UNL     1       3.037   3.129  16.842  0.00  0.00    +0.000 OA
ATOM     28  N   UNL     1       4.930   4.413  17.003  0.00  0.00    +0.000 N 
ATOM     29  C   UNL     1       5.331   4.103  15.638  0.00  0.00    +0.000 C 
ATOM     30  C   UNL     1       6.534   4.988  15.338  0.00  0.00    +0.000 C 
ATOM     31  C   UNL     1       6.444   6.105  16.371  0.00  0.00    +0.000 C 
ATOM     32  C   UNL     1       5.822   5.413  17.578  0.00  0.00    +0.000 C 
BRANCH  31  33
ATOM     33  O   UNL     1       7.714   6.670  16.649  0.00  0.00    +0.000 OA
ATOM     34  H   UNL     1       7.610   7.345  17.342  0.00  0.00    +0.000 HD
ENDBRANCH  31  33
ENDBRANCH  22  26
ENDBRANCH   2  20
TORSDOF 7
ENDMDL
MODEL 9
REMARK VINA RESULT:      -7.9      6.059      8.367
REMARK  Name = 
REMARK  9 active torsions:
REMARK  status: ('A' for Active; 'I' for Inactive)
REMARK    1  A    between atoms: C_1  and  C_2
REMARK    2  A    between atoms: C_2  and  S_3
REMARK    3  A    between atoms: C_2  and  C_10
REMARK    4  A    between atoms: S_3  and  C_4
REMARK    5  A    between atoms: N_8  and  C_9
REMARK    6  A    between atoms: C_14  and  N_15
REMARK    7  A    between atoms: C_16  and  C_18
REMARK    8  A    between atoms: C_20  and  C_21
REMARK    9  A    between atoms: C_26  and  O_27
REMARK                            x       y       z     vdW  Elec       q    Type
REMARK                         _______ _______ _______ _____ _____    ______ ____
ROOT
ATOM      1  N   UNL     1       7.864   9.164  17.649  0.00  0.00    +0.000 N 
ATOM      2  C   UNL     1       7.856   7.839  18.029  0.00  0.00    +0.000 C 
ATOM      3  O   UNL     1       8.544   7.319  18.903  0.00  0.00    +0.000 OA
ATOM      4  H   UNL     1       7.252   9.394  16.871  0.00  0.00    +0.000 HD
ENDROOT
BRANCH   1   9
ATOM      5  C   UNL     1       9.127  12.601  18.342  0.00  0.00    +0.000 A 
ATOM      6  C   UNL     1       9.975  12.351  19.432  0.00  0.00    +0.000 A 
ATOM      7  C   UNL     1      10.184  11.054  19.889  0.00  0.00    +0.000 A 
ATOM      8  C   UNL     1       9.523   9.990  19.283  0.00  0.00    +0.000 A 
ATOM      9  C   UNL     1       8.613  10.205  18.244  0.00  0.00    +0.000 A 
ATOM     10  C   UNL     1       8.429  11.516  17.774  0.00  0.00    +0.000 A 
BRANCH   5  12
ATOM     11  C   UNL     1      10.097  14.971  18.406  0.00  0.00    +0.000 C 
ATOM     12  C   UNL     1       9.062  14.019  17.788  0.00  0.00    +0.000 C 
BRANCH  12  13
ATOM     13  S   UNL     1       7.437  14.794  18.110  0.00  0.00    +0.000 S 
BRANCH  13  14
ATOM     14  C   UNL     1       7.469  15.214  19.778  0.00  0.00    +0.000 A 
ATOM     15  N   UNL     1       7.356  14.428  20.828  0.00  0.00    +0.000 NA
ATOM     16  N   UNL     1       7.317  15.230  21.954  0.00  0.00    +0.000 NA
ATOM     17  C   UNL     1       7.389  16.478  21.556  0.00  0.00    +0.000 A 
ATOM     18  N   UNL     1       7.519  16.515  20.200  0.00  0.00    +0.000 N 
ATOM     19  C   UNL     1       7.672  17.695  19.388  0.00  0.00    +0.000 C 
ENDBRANCH  13  14
ENDBRANCH  12  13
ENDBRANCH   5  12
ENDBRANCH   1   9
BRANCH   2  20
ATOM     20  C   UNL     1       6.927   6.957  17.263  0.00  0.00    +0.000 A 
ATOM     21  C   UNL     1       5.645   6.767  17.764  0.00  0.00    +0.000 A 
ATOM     22  C   UNL     1       4.832   5.846  17.132  0.00  0.00    +0.000 A 
ATOM     23  C   UNL     1       5.268   5.241  15.953  0.00  0.00    +0.000 A 
ATOM     24  C   UNL     1       6.550   5.526  15.502  0.00  0.00    +0.000 A 
ATOM     25  N   UNL     1       7.408   6.350  16.147  0.00  0.00    +0.000 NA
BRANCH  22  26
ATOM     26  C   UNL     1       3.504   5.451  17.673  0.00  0.00    +0.000 C 
ATOM     27  O   UNL     1       2.597   6.280  17.610  0.00  0.00    +0.000 OA
ATOM     28  N   UNL     1       3.294   4.158  18.133  0.00  0.00    +0.000 N 
ATOM     29  C   UNL     1       1.933   3.706  18.384  0.00  0.00    +0.000 C 
ATOM     30  C   UNL     1       2.020   2.200  18.597  0.00  0.00    +0.000 C 
ATOM     31  C   UNL     1       3.351   1.808  17.967  0.00  0.00    +0.000 C 
ATOM     32  C   UNL     1       4.222   3.036  18.205  0.00  0.00    +0.000 C 
BRANCH  31  33
ATOM     33  O   UNL     1       3.883   0.630  18.548  0.00  0.00    +0.000 OA
ATOM     34  H   UNL     1       4.161   0.028  17.835  0.00  0.00    +0.000 HD
ENDBRANCH  31  33
ENDBRANCH  22  26
ENDBRANCH   2  20
TORSDOF 7
ENDMDL
