MODEL 1
REMARK VINA RESULT:      -8.7      0.000      0.000
REMARK  Name = 
REMARK  9 active torsions:
REMARK  status: ('A' for Active; 'I' for Inactive)
REMARK    1  A    between atoms: C_1  and  C_2
REMARK    2  A    between atoms: C_2  and  C_3
REMARK    3  A    between atoms: C_2  and  C_9
REMARK    4  A    between atoms: N_7  and  C_8
REMARK    5  A    between atoms: C_9  and  C_10
REMARK    6  A    between atoms: C_14  and  N_15
REMARK    7  A    between atoms: C_20  and  C_21
REMARK    8  A    between atoms: C_21  and  N_22
REMARK    9  A    between atoms: C_30  and  C_31
REMARK                            x       y       z     vdW  Elec       q    Type
REMARK                         _______ _______ _______ _____ _____    ______ ____
ROOT
ATOM      1  N   UNL     1       0.709  11.414  18.668  0.00  0.00    +0.000 N 
ATOM      2  C   UNL     1      -0.122  10.279  18.954  0.00  0.00    +0.000 C 
ATOM      3  C   UNL     1       0.913   9.231  19.050  0.00  0.00    +0.000 A 
ATOM      4  C   UNL     1       1.913   9.517  18.139  0.00  0.00    +0.000 A 
ATOM      5  C   UNL     1       2.892   8.596  17.814  0.00  0.00    +0.000 A 
ATOM      6  C   UNL     1       2.939   7.425  18.590  0.00  0.00    +0.000 A 
ATOM      7  C   UNL     1       2.190   7.398  19.785  0.00  0.00    +0.000 A 
ATOM      8  C   UNL     1       1.234   8.380  20.072  0.00  0.00    +0.000 A 
ATOM      9  C   UNL     1       1.892  11.013  18.042  0.00  0.00    +0.000 C 
ATOM     10  O   UNL     1       2.804  11.682  17.600  0.00  0.00    +0.000 OA
ENDROOT
BRANCH   1  15
ATOM     11  C   UNL     1      -0.764  13.901  20.948  0.00  0.00    +0.000 A 
ATOM     12  C   UNL     1      -0.738  15.047  20.140  0.00  0.00    +0.000 A 
ATOM     13  C   UNL     1      -0.240  15.002  18.825  0.00  0.00    +0.000 A 
ATOM     14  C   UNL     1       0.210  13.799  18.269  0.00  0.00    +0.000 A 
ATOM     15  C   UNL     1       0.273  12.680  19.080  0.00  0.00    +0.000 A 
ATOM     16  C   UNL     1      -0.126  12.780  20.411  0.00  0.00    +0.000 A 
BRANCH  11  17
ATOM     17  C   UNL     1      -1.689  13.664  22.254  0.00  0.00    +0.000 C 
ATOM     18  C   UNL     1      -2.654  14.895  22.473  0.00  0.00    +0.000 C 
ATOM     19  O   UNL     1      -1.777  15.437  23.489  0.00  0.00    +0.000 OA
ATOM     20  C   UNL     1      -1.132  14.148  23.626  0.00  0.00    +0.000 C 
BRANCH  17  22
ATOM     21  C   UNL     1      -1.723  11.261  23.236  0.00  0.00    +0.000 C 
ATOM     22  C   UNL     1      -2.422  12.301  22.355  0.00  0.00    +0.000 C 
BRANCH  22  23
ATOM     23  C   UNL     1      -3.844  12.456  22.787  0.00  0.00    +0.000 A 
ATOM     24  N   UNL     1      -4.305  12.373  24.017  0.00  0.00    +0.000 NA
ATOM     25  N   UNL     1      -5.660  12.588  23.988  0.00  0.00    +0.000 NA
ATOM     26  C   UNL     1      -6.003  12.788  22.733  0.00  0.00    +0.000 A 
ATOM     27  N   UNL     1      -4.906  12.676  21.943  0.00  0.00    +0.000 N 
ATOM     28  C   UNL     1      -4.893  12.756  20.509  0.00  0.00    +0.000 C 
ENDBRANCH  22  23
ENDBRANCH  17  22
ENDBRANCH  11  17
ENDBRANCH   1  15
BRANCH   8  29
ATOM     29  C   UNL     1       0.860   8.695  21.506  0.00  0.00    +0.000 C 
ATOM     30  F   UNL     1      -0.441   8.436  21.811  0.00  0.00    +0.000 F 
ATOM     31  F   UNL     1       1.604   8.021  22.414  0.00  0.00    +0.000 F 
ATOM     32  F   UNL     1       1.023  10.022  21.781  0.00  0.00    +0.000 F 
ENDBRANCH   8  29
BRANCH   6  33
ATOM     33  C   UNL     1       3.860   6.268  18.260  0.00  0.00    +0.000 C 
BRANCH  33  34
ATOM     34  N   UNL     1       3.180   4.969  18.073  0.00  0.00    +0.000 NA
ATOM     35  C   UNL     1       1.738   5.089  17.791  0.00  0.00    +0.000 C 
ATOM     36  C   UNL     1       1.048   3.933  18.503  0.00  0.00    +0.000 C 
ATOM     37  C   UNL     1       1.966   3.658  19.644  0.00  0.00    +0.000 C 
ATOM     38  C   UNL     1       1.765   2.429  20.501  0.00  0.00    +0.000 C 
ATOM     39  C   UNL     1       1.473   3.784  21.071  0.00  0.00    +0.000 C 
ATOM     40  C   UNL     1       3.344   4.135  19.283  0.00  0.00    +0.000 C 
ENDBRANCH  33  34
ENDBRANCH   6  33
TORSDOF 7
ENDMDL
MODEL 2
REMARK VINA RESULT:      -8.7      1.419      2.226
REMARK  Name = 
REMARK  9 active torsions:
REMARK  status: ('A' for Active; 'I' for Inactive)
REMARK    1  A    between atoms: C_1  and  C_2
REMARK    2  A    between atoms: C_2  and  C_3
REMARK    3  A    between atoms: C_2  and  C_9
REMARK    4  A    between atoms: N_7  and  C_8
REMARK    5  A    between atoms: C_9  and  C_10
REMARK    6  A    between atoms: C_14  and  N_15
REMARK    7  A    between atoms: C_20  and  C_21
REMARK    8  A    between atoms: C_21  and  N_22
REMARK    9  A    between atoms: C_30  and  C_31
REMARK                            x       y       z     vdW  Elec       q    Type
REMARK                         _______ _______ _______ _____ _____    ______ ____
ROOT
ATOM      1  N   UNL     1       0.129  11.615  19.165  0.00  0.00    +0.000 N 
ATOM      2  C   UNL     1      -0.751  10.561  19.584  0.00  0.00    +0.000 C 
ATOM      3  C   UNL     1       0.236   9.489  19.816  0.00  0.00    +0.000 A 
ATOM      4  C   UNL     1       1.249   9.615  18.884  0.00  0.00    +0.000 A 
ATOM      5  C   UNL     1       2.186   8.619  18.681  0.00  0.00    +0.000 A 
ATOM      6  C   UNL     1       2.180   7.552  19.598  0.00  0.00    +0.000 A 
ATOM      7  C   UNL     1       1.430   7.707  20.782  0.00  0.00    +0.000 A 
ATOM      8  C   UNL     1       0.518   8.759  20.938  0.00  0.00    +0.000 A 
ATOM      9  C   UNL     1       1.295  11.087  18.600  0.00  0.00    +0.000 C 
ATOM     10  O   UNL     1       2.236  11.655  18.085  0.00  0.00    +0.000 OA
ENDROOT
BRANCH   1  15
ATOM     11  C   UNL     1      -1.585  14.364  20.912  0.00  0.00    +0.000 A 
ATOM     12  C   UNL     1      -1.222  15.455  20.107  0.00  0.00    +0.000 A 
ATOM     13  C   UNL     1      -0.413  15.285  18.969  0.00  0.00    +0.000 A 
ATOM     14  C   UNL     1       0.024  14.012  18.583  0.00  0.00    +0.000 A 
ATOM     15  C   UNL     1      -0.250  12.939  19.413  0.00  0.00    +0.000 A 
ATOM     16  C   UNL     1      -0.962  13.156  20.591  0.00  0.00    +0.000 A 
BRANCH  11  17
ATOM     17  C   UNL     1      -2.833  14.298  21.938  0.00  0.00    +0.000 C 
ATOM     18  C   UNL     1      -3.957  15.320  21.502  0.00  0.00    +0.000 C 
ATOM     19  O   UNL     1      -3.506  16.278  22.489  0.00  0.00    +0.000 OA
ATOM     20  C   UNL     1      -2.789  15.230  23.185  0.00  0.00    +0.000 C 
BRANCH  17  22
ATOM     21  C   UNL     1      -3.314  12.494  23.742  0.00  0.00    +0.000 C 
ATOM     22  C   UNL     1      -3.396  12.890  22.265  0.00  0.00    +0.000 C 
BRANCH  22  23
ATOM     23  C   UNL     1      -4.796  12.715  21.772  0.00  0.00    +0.000 A 
ATOM     24  N   UNL     1      -5.896  12.770  22.492  0.00  0.00    +0.000 NA
ATOM     25  N   UNL     1      -6.970  12.569  21.662  0.00  0.00    +0.000 NA
ATOM     26  C   UNL     1      -6.502  12.383  20.446  0.00  0.00    +0.000 A 
ATOM     27  N   UNL     1      -5.146  12.427  20.474  0.00  0.00    +0.000 N 
ATOM     28  C   UNL     1      -4.276  12.193  19.356  0.00  0.00    +0.000 C 
ENDBRANCH  22  23
ENDBRANCH  17  22
ENDBRANCH  11  17
ENDBRANCH   1  15
BRANCH   8  29
ATOM     29  C   UNL     1       0.157   9.266  22.319  0.00  0.00    +0.000 C 
ATOM     30  F   UNL     1      -0.042  10.611  22.384  0.00  0.00    +0.000 F 
ATOM     31  F   UNL     1      -0.961   8.693  22.824  0.00  0.00    +0.000 F 
ATOM     32  F   UNL     1       1.156   9.019  23.215  0.00  0.00    +0.000 F 
ENDBRANCH   8  29
BRANCH   6  33
ATOM     33  C   UNL     1       3.049   6.324  19.419  0.00  0.00    +0.000 C 
BRANCH  33  34
ATOM     34  N   UNL     1       2.959   5.690  18.087  0.00  0.00    +0.000 NA
ATOM     35  C   UNL     1       2.870   4.219  18.135  0.00  0.00    +0.000 C 
ATOM     36  C   UNL     1       3.671   3.687  16.954  0.00  0.00    +0.000 C 
ATOM     37  C   UNL     1       4.682   4.760  16.736  0.00  0.00    +0.000 C 
ATOM     38  C   UNL     1       5.562   4.735  15.507  0.00  0.00    +0.000 C 
ATOM     39  C   UNL     1       6.160   4.455  16.853  0.00  0.00    +0.000 C 
ATOM     40  C   UNL     1       4.140   6.053  17.274  0.00  0.00    +0.000 C 
ENDBRANCH  33  34
ENDBRANCH   6  33
TORSDOF 7
ENDMDL
MODEL 3
REMARK VINA RESULT:      -8.5      2.019      3.054
REMARK  Name = 
REMARK  9 active torsions:
REMARK  status: ('A' for Active; 'I' for Inactive)
REMARK    1  A    between atoms: C_1  and  C_2
REMARK    2  A    between atoms: C_2  and  C_3
REMARK    3  A    between atoms: C_2  and  C_9
REMARK    4  A    between atoms: N_7  and  C_8
REMARK    5  A    between atoms: C_9  and  C_10
REMARK    6  A    between atoms: C_14  and  N_15
REMARK    7  A    between atoms: C_20  and  C_21
REMARK    8  A    between atoms: C_21  and  N_22
REMARK    9  A    between atoms: C_30  and  C_31
REMARK                            x       y       z     vdW  Elec       q    Type
REMARK                         _______ _______ _______ _____ _____    ______ ____
ROOT
ATOM      1  N   UNL     1      -0.009  11.732  19.317  0.00  0.00    +0.000 N 
ATOM      2  C   UNL     1      -0.877  10.685  19.777  0.00  0.00    +0.000 C 
ATOM      3  C   UNL     1       0.115   9.612  19.985  0.00  0.00    +0.000 A 
ATOM      4  C   UNL     1       1.095   9.726  19.017  0.00  0.00    +0.000 A 
ATOM      5  C   UNL     1       2.023   8.726  18.792  0.00  0.00    +0.000 A 
ATOM      6  C   UNL     1       2.046   7.668  19.718  0.00  0.00    +0.000 A 
ATOM      7  C   UNL     1       1.338   7.837  20.926  0.00  0.00    +0.000 A 
ATOM      8  C   UNL     1       0.435   8.893  21.104  0.00  0.00    +0.000 A 
ATOM      9  C   UNL     1       1.134  11.196  18.717  0.00  0.00    +0.000 C 
ATOM     10  O   UNL     1       2.059  11.756  18.164  0.00  0.00    +0.000 OA
ENDROOT
BRANCH   1  15
ATOM     11  C   UNL     1      -1.898  14.475  20.885  0.00  0.00    +0.000 A 
ATOM     12  C   UNL     1      -1.360  15.583  20.212  0.00  0.00    +0.000 A 
ATOM     13  C   UNL     1      -0.373  15.428  19.223  0.00  0.00    +0.000 A 
ATOM     14  C   UNL     1       0.077  14.155  18.852  0.00  0.00    +0.000 A 
ATOM     15  C   UNL     1      -0.377  13.060  19.565  0.00  0.00    +0.000 A 
ATOM     16  C   UNL     1      -1.274  13.255  20.613  0.00  0.00    +0.000 A 
BRANCH  11  17
ATOM     17  C   UNL     1      -3.308  14.420  21.676  0.00  0.00    +0.000 C 
ATOM     18  C   UNL     1      -4.382  13.629  20.829  0.00  0.00    +0.000 C 
ATOM     19  O   UNL     1      -4.966  14.868  20.363  0.00  0.00    +0.000 OA
ATOM     20  C   UNL     1      -4.312  15.586  21.437  0.00  0.00    +0.000 C 
BRANCH  17  22
ATOM     21  C   UNL     1      -3.010  12.470  23.364  0.00  0.00    +0.000 C 
ATOM     22  C   UNL     1      -3.260  13.967  23.159  0.00  0.00    +0.000 C 
BRANCH  22  23
ATOM     23  C   UNL     1      -2.276  14.758  23.958  0.00  0.00    +0.000 A 
ATOM     24  N   UNL     1      -0.988  14.515  24.083  0.00  0.00    +0.000 NA
ATOM     25  N   UNL     1      -0.440  15.480  24.891  0.00  0.00    +0.000 NA
ATOM     26  C   UNL     1      -1.411  16.291  25.253  0.00  0.00    +0.000 A 
ATOM     27  N   UNL     1      -2.583  15.856  24.725  0.00  0.00    +0.000 N 
ATOM     28  C   UNL     1      -3.875  16.437  24.958  0.00  0.00    +0.000 C 
ENDBRANCH  22  23
ENDBRANCH  17  22
ENDBRANCH  11  17
ENDBRANCH   1  15
BRANCH   8  29
ATOM     29  C   UNL     1       0.123   9.414  22.491  0.00  0.00    +0.000 C 
ATOM     30  F   UNL     1       1.079   9.135  23.419  0.00  0.00    +0.000 F 
ATOM     31  F   UNL     1      -0.063  10.755  22.530  0.00  0.00    +0.000 F 
ATOM     32  F   UNL     1      -1.018   8.851  22.988  0.00  0.00    +0.000 F 
ENDBRANCH   8  29
BRANCH   6  33
ATOM     33  C   UNL     1       2.905   6.436  19.522  0.00  0.00    +0.000 C 
BRANCH  33  34
ATOM     34  N   UNL     1       2.798   5.813  18.186  0.00  0.00    +0.000 NA
ATOM     35  C   UNL     1       2.596   4.354  18.226  0.00  0.00    +0.000 C 
ATOM     36  C   UNL     1       3.382   3.764  17.062  0.00  0.00    +0.000 C 
ATOM     37  C   UNL     1       4.477   4.758  16.872  0.00  0.00    +0.000 C 
ATOM     38  C   UNL     1       5.382   4.667  15.664  0.00  0.00    +0.000 C 
ATOM     39  C   UNL     1       5.925   4.339  17.022  0.00  0.00    +0.000 C 
ATOM     40  C   UNL     1       4.023   6.087  17.402  0.00  0.00    +0.000 C 
ENDBRANCH  33  34
ENDBRANCH   6  33
TORSDOF 7
ENDMDL
MODEL 4
REMARK VINA RESULT:      -8.5      1.059      1.501
REMARK  Name = 
REMARK  9 active torsions:
REMARK  status: ('A' for Active; 'I' for Inactive)
REMARK    1  A    between atoms: C_1  and  C_2
REMARK    2  A    between atoms: C_2  and  C_3
REMARK    3  A    between atoms: C_2  and  C_9
REMARK    4  A    between atoms: N_7  and  C_8
REMARK    5  A    between atoms: C_9  and  C_10
REMARK    6  A    between atoms: C_14  and  N_15
REMARK    7  A    between atoms: C_20  and  C_21
REMARK    8  A    between atoms: C_21  and  N_22
REMARK    9  A    between atoms: C_30  and  C_31
REMARK                            x       y       z     vdW  Elec       q    Type
REMARK                         _______ _______ _______ _____ _____    ______ ____
ROOT
ATOM      1  N   UNL     1       0.326  11.908  18.897  0.00  0.00    +0.000 N 
ATOM      2  C   UNL     1      -0.520  10.789  19.204  0.00  0.00    +0.000 C 
ATOM      3  C   UNL     1       0.493   9.716  19.248  0.00  0.00    +0.000 A 
ATOM      4  C   UNL     1       1.463   9.989  18.302  0.00  0.00    +0.000 A 
ATOM      5  C   UNL     1       2.406   9.050  17.929  0.00  0.00    +0.000 A 
ATOM      6  C   UNL     1       2.455   7.868  18.691  0.00  0.00    +0.000 A 
ATOM      7  C   UNL     1       1.753   7.846  19.914  0.00  0.00    +0.000 A 
ATOM      8  C   UNL     1       0.833   8.847  20.248  0.00  0.00    +0.000 A 
ATOM      9  C   UNL     1       1.474  11.487  18.221  0.00  0.00    +0.000 C 
ATOM     10  O   UNL     1       2.384  12.139  17.751  0.00  0.00    +0.000 OA
ENDROOT
BRANCH   1  15
ATOM     11  C   UNL     1      -1.414  14.356  21.026  0.00  0.00    +0.000 A 
ATOM     12  C   UNL     1      -1.054  15.556  20.395  0.00  0.00    +0.000 A 
ATOM     13  C   UNL     1      -0.239  15.563  19.249  0.00  0.00    +0.000 A 
ATOM     14  C   UNL     1       0.208  14.365  18.680  0.00  0.00    +0.000 A 
ATOM     15  C   UNL     1      -0.064  13.179  19.338  0.00  0.00    +0.000 A 
ATOM     16  C   UNL     1      -0.782  13.212  20.532  0.00  0.00    +0.000 A 
BRANCH  11  17
ATOM     17  C   UNL     1      -2.667  14.130  22.024  0.00  0.00    +0.000 C 
ATOM     18  C   UNL     1      -3.830  15.145  21.683  0.00  0.00    +0.000 C 
ATOM     19  O   UNL     1      -3.428  16.011  22.771  0.00  0.00    +0.000 OA
ATOM     20  C   UNL     1      -2.673  14.926  23.362  0.00  0.00    +0.000 C 
BRANCH  17  22
ATOM     21  C   UNL     1      -2.731  11.990  23.491  0.00  0.00    +0.000 C 
ATOM     22  C   UNL     1      -3.172  12.674  22.193  0.00  0.00    +0.000 C 
BRANCH  22  23
ATOM     23  C   UNL     1      -4.656  12.571  22.047  0.00  0.00    +0.000 A 
ATOM     24  N   UNL     1      -5.535  12.444  23.019  0.00  0.00    +0.000 NA
ATOM     25  N   UNL     1      -6.790  12.397  22.466  0.00  0.00    +0.000 NA
ATOM     26  C   UNL     1      -6.652  12.485  21.160  0.00  0.00    +0.000 A 
ATOM     27  N   UNL     1      -5.332  12.556  20.851  0.00  0.00    +0.000 N 
ATOM     28  C   UNL     1      -4.782  12.587  19.525  0.00  0.00    +0.000 C 
ENDBRANCH  22  23
ENDBRANCH  17  22
ENDBRANCH  11  17
ENDBRANCH   1  15
BRANCH   8  29
ATOM     29  C   UNL     1       0.522   9.155  21.698  0.00  0.00    +0.000 C 
ATOM     30  F   UNL     1       1.419   8.638  22.582  0.00  0.00    +0.000 F 
ATOM     31  F   UNL     1       0.452  10.481  21.961  0.00  0.00    +0.000 F 
ATOM     32  F   UNL     1      -0.678   8.622  22.072  0.00  0.00    +0.000 F 
ENDBRANCH   8  29
BRANCH   6  33
ATOM     33  C   UNL     1       3.334   6.694  18.313  0.00  0.00    +0.000 C 
BRANCH  33  34
ATOM     34  N   UNL     1       3.338   5.584  19.288  0.00  0.00    +0.000 NA
ATOM     35  C   UNL     1       4.552   4.749  19.232  0.00  0.00    +0.000 C 
ATOM     36  C   UNL     1       4.114   3.311  19.482  0.00  0.00    +0.000 C 
ATOM     37  C   UNL     1       2.707   3.309  18.991  0.00  0.00    +0.000 C 
ATOM     38  C   UNL     1       1.816   2.115  19.248  0.00  0.00    +0.000 C 
ATOM     39  C   UNL     1       2.294   2.396  17.856  0.00  0.00    +0.000 C 
ATOM     40  C   UNL     1       2.167   4.709  19.061  0.00  0.00    +0.000 C 
ENDBRANCH  33  34
ENDBRANCH   6  33
TORSDOF 7
ENDMDL
MODEL 5
REMARK VINA RESULT:      -8.4      1.788      2.520
REMARK  Name = 
REMARK  9 active torsions:
REMARK  status: ('A' for Active; 'I' for Inactive)
REMARK    1  A    between atoms: C_1  and  C_2
REMARK    2  A    between atoms: C_2  and  C_3
REMARK    3  A    between atoms: C_2  and  C_9
REMARK    4  A    between atoms: N_7  and  C_8
REMARK    5  A    between atoms: C_9  and  C_10
REMARK    6  A    between atoms: C_14  and  N_15
REMARK    7  A    between atoms: C_20  and  C_21
REMARK    8  A    between atoms: C_21  and  N_22
REMARK    9  A    between atoms: C_30  and  C_31
REMARK                            x       y       z     vdW  Elec       q    Type
REMARK                         _______ _______ _______ _____ _____    ______ ____
ROOT
ATOM      1  N   UNL     1       0.267  11.834  18.936  0.00  0.00    +0.000 N 
ATOM      2  C   UNL     1      -0.560  10.700  19.238  0.00  0.00    +0.000 C 
ATOM      3  C   UNL     1       0.469   9.642  19.271  0.00  0.00    +0.000 A 
ATOM      4  C   UNL     1       1.432   9.936  18.324  0.00  0.00    +0.000 A 
ATOM      5  C   UNL     1       2.388   9.014  17.941  0.00  0.00    +0.000 A 
ATOM      6  C   UNL     1       2.458   7.828  18.695  0.00  0.00    +0.000 A 
ATOM      7  C   UNL     1       1.760   7.787  19.920  0.00  0.00    +0.000 A 
ATOM      8  C   UNL     1       0.826   8.772  20.264  0.00  0.00    +0.000 A 
ATOM      9  C   UNL     1       1.420  11.434  18.253  0.00  0.00    +0.000 C 
ATOM     10  O   UNL     1       2.318  12.104  17.784  0.00  0.00    +0.000 OA
ENDROOT
BRANCH   1  15
ATOM     11  C   UNL     1      -1.725  14.242  20.880  0.00  0.00    +0.000 A 
ATOM     12  C   UNL     1      -1.202  15.456  20.410  0.00  0.00    +0.000 A 
ATOM     13  C   UNL     1      -0.190  15.487  19.434  0.00  0.00    +0.000 A 
ATOM     14  C   UNL     1       0.301  14.302  18.873  0.00  0.00    +0.000 A 
ATOM     15  C   UNL     1      -0.140  13.095  19.387  0.00  0.00    +0.000 A 
ATOM     16  C   UNL     1      -1.064  13.097  20.429  0.00  0.00    +0.000 A 
BRANCH  11  17
ATOM     17  C   UNL     1      -3.150  14.028  21.615  0.00  0.00    +0.000 C 
ATOM     18  C   UNL     1      -4.073  13.075  20.757  0.00  0.00    +0.000 C 
ATOM     19  O   UNL     1      -4.792  14.211  20.221  0.00  0.00    +0.000 OA
ATOM     20  C   UNL     1      -4.285  15.043  21.293  0.00  0.00    +0.000 C 
BRANCH  17  22
ATOM     21  C   UNL     1      -2.709  12.180  23.385  0.00  0.00    +0.000 C 
ATOM     22  C   UNL     1      -3.110  13.633  23.115  0.00  0.00    +0.000 C 
BRANCH  22  23
ATOM     23  C   UNL     1      -2.247  14.553  23.917  0.00  0.00    +0.000 A 
ATOM     24  N   UNL     1      -0.947  14.454  24.097  0.00  0.00    +0.000 NA
ATOM     25  N   UNL     1      -0.537  15.501  24.885  0.00  0.00    +0.000 NA
ATOM     26  C   UNL     1      -1.601  16.216  25.180  0.00  0.00    +0.000 A 
ATOM     27  N   UNL     1      -2.699  15.639  24.629  0.00  0.00    +0.000 N 
ATOM     28  C   UNL     1      -4.054  16.086  24.793  0.00  0.00    +0.000 C 
ENDBRANCH  22  23
ENDBRANCH  17  22
ENDBRANCH  11  17
ENDBRANCH   1  15
BRANCH   8  29
ATOM     29  C   UNL     1       0.515   9.065  21.717  0.00  0.00    +0.000 C 
ATOM     30  F   UNL     1      -0.668   8.548  22.149  0.00  0.00    +0.000 F 
ATOM     31  F   UNL     1       1.462   8.606  22.570  0.00  0.00    +0.000 F 
ATOM     32  F   UNL     1       0.410  10.407  21.941  0.00  0.00    +0.000 F 
ENDBRANCH   8  29
BRANCH   6  33
ATOM     33  C   UNL     1       3.353   6.670  18.306  0.00  0.00    +0.000 C 
BRANCH  33  34
ATOM     34  N   UNL     1       3.352   5.540  19.257  0.00  0.00    +0.000 NA
ATOM     35  C   UNL     1       4.599   4.753  19.246  0.00  0.00    +0.000 C 
ATOM     36  C   UNL     1       4.207   3.295  19.444  0.00  0.00    +0.000 C 
ATOM     37  C   UNL     1       2.827   3.250  18.884  0.00  0.00    +0.000 C 
ATOM     38  C   UNL     1       1.972   2.017  19.072  0.00  0.00    +0.000 C 
ATOM     39  C   UNL     1       2.506   2.347  17.711  0.00  0.00    +0.000 C 
ATOM     40  C   UNL     1       2.229   4.626  18.954  0.00  0.00    +0.000 C 
ENDBRANCH  33  34
ENDBRANCH   6  33
TORSDOF 7
ENDMDL
MODEL 6
REMARK VINA RESULT:      -8.4      1.425      2.515
REMARK  Name = 
REMARK  9 active torsions:
REMARK  status: ('A' for Active; 'I' for Inactive)
REMARK    1  A    between atoms: C_1  and  C_2
REMARK    2  A    between atoms: C_2  and  C_3
REMARK    3  A    between atoms: C_2  and  C_9
REMARK    4  A    between atoms: N_7  and  C_8
REMARK    5  A    between atoms: C_9  and  C_10
REMARK    6  A    between atoms: C_14  and  N_15
REMARK    7  A    between atoms: C_20  and  C_21
REMARK    8  A    between atoms: C_21  and  N_22
REMARK    9  A    between atoms: C_30  and  C_31
REMARK                            x       y       z     vdW  Elec       q    Type
REMARK                         _______ _______ _______ _____ _____    ______ ____
ROOT
ATOM      1  N   UNL     1       0.117  11.873  19.333  0.00  0.00    +0.000 N 
ATOM      2  C   UNL     1      -0.821  10.903  19.822  0.00  0.00    +0.000 C 
ATOM      3  C   UNL     1       0.093   9.769  20.058  0.00  0.00    +0.000 A 
ATOM      4  C   UNL     1       1.076   9.787  19.087  0.00  0.00    +0.000 A 
ATOM      5  C   UNL     1       1.930   8.718  18.889  0.00  0.00    +0.000 A 
ATOM      6  C   UNL     1       1.880   7.686  19.843  0.00  0.00    +0.000 A 
ATOM      7  C   UNL     1       1.188   7.937  21.047  0.00  0.00    +0.000 A 
ATOM      8  C   UNL     1       0.363   9.058  21.196  0.00  0.00    +0.000 A 
ATOM      9  C   UNL     1       1.219  11.241  18.748  0.00  0.00    +0.000 C 
ATOM     10  O   UNL     1       2.179  11.720  18.179  0.00  0.00    +0.000 OA
ENDROOT
BRANCH   1  15
ATOM     11  C   UNL     1      -1.027  14.836  21.194  0.00  0.00    +0.000 A 
ATOM     12  C   UNL     1      -0.856  15.837  20.227  0.00  0.00    +0.000 A 
ATOM     13  C   UNL     1      -0.370  15.535  18.941  0.00  0.00    +0.000 A 
ATOM     14  C   UNL     1      -0.077  14.215  18.577  0.00  0.00    +0.000 A 
ATOM     15  C   UNL     1      -0.155  13.230  19.545  0.00  0.00    +0.000 A 
ATOM     16  C   UNL     1      -0.536  13.577  20.840  0.00  0.00    +0.000 A 
BRANCH  11  17
ATOM     17  C   UNL     1      -1.972  14.914  22.505  0.00  0.00    +0.000 C 
ATOM     18  C   UNL     1      -1.299  15.814  23.614  0.00  0.00    +0.000 C 
ATOM     19  O   UNL     1      -0.829  14.641  24.319  0.00  0.00    +0.000 OA
ATOM     20  C   UNL     1      -1.779  13.821  23.597  0.00  0.00    +0.000 C 
BRANCH  17  22
ATOM     21  C   UNL     1      -3.703  16.557  21.482  0.00  0.00    +0.000 C 
ATOM     22  C   UNL     1      -3.465  15.265  22.270  0.00  0.00    +0.000 C 
BRANCH  22  23
ATOM     23  C   UNL     1      -4.215  14.140  21.634  0.00  0.00    +0.000 A 
ATOM     24  N   UNL     1      -4.123  13.741  20.383  0.00  0.00    +0.000 NA
ATOM     25  N   UNL     1      -4.967  12.673  20.204  0.00  0.00    +0.000 NA
ATOM     26  C   UNL     1      -5.569  12.447  21.352  0.00  0.00    +0.000 A 
ATOM     27  N   UNL     1      -5.159  13.365  22.264  0.00  0.00    +0.000 N 
ATOM     28  C   UNL     1      -5.649  13.488  23.608  0.00  0.00    +0.000 C 
ENDBRANCH  22  23
ENDBRANCH  17  22
ENDBRANCH  11  17
ENDBRANCH   1  15
BRANCH   8  29
ATOM     29  C   UNL     1       0.092   9.638  22.569  0.00  0.00    +0.000 C 
ATOM     30  F   UNL     1       1.020   9.305  23.507  0.00  0.00    +0.000 F 
ATOM     31  F   UNL     1       0.016  10.990  22.574  0.00  0.00    +0.000 F 
ATOM     32  F   UNL     1      -1.092   9.183  23.074  0.00  0.00    +0.000 F 
ENDBRANCH   8  29
BRANCH   6  33
ATOM     33  C   UNL     1       2.649   6.391  19.680  0.00  0.00    +0.000 C 
BRANCH  33  34
ATOM     34  N   UNL     1       2.578   5.795  18.330  0.00  0.00    +0.000 NA
ATOM     35  C   UNL     1       2.344   4.340  18.336  0.00  0.00    +0.000 C 
ATOM     36  C   UNL     1       3.160   3.754  17.190  0.00  0.00    +0.000 C 
ATOM     37  C   UNL     1       4.281   4.727  17.057  0.00  0.00    +0.000 C 
ATOM     38  C   UNL     1       5.227   4.638  15.882  0.00  0.00    +0.000 C 
ATOM     39  C   UNL     1       5.713   4.275  17.252  0.00  0.00    +0.000 C 
ATOM     40  C   UNL     1       3.835   6.056  17.596  0.00  0.00    +0.000 C 
ENDBRANCH  33  34
ENDBRANCH   6  33
TORSDOF 7
ENDMDL
MODEL 7
REMARK VINA RESULT:      -8.4      1.304      1.901
REMARK  Name = 
REMARK  9 active torsions:
REMARK  status: ('A' for Active; 'I' for Inactive)
REMARK    1  A    between atoms: C_1  and  C_2
REMARK    2  A    between atoms: C_2  and  C_3
REMARK    3  A    between atoms: C_2  and  C_9
REMARK    4  A    between atoms: N_7  and  C_8
REMARK    5  A    between atoms: C_9  and  C_10
REMARK    6  A    between atoms: C_14  and  N_15
REMARK    7  A    between atoms: C_20  and  C_21
REMARK    8  A    between atoms: C_21  and  N_22
REMARK    9  A    between atoms: C_30  and  C_31
REMARK                            x       y       z     vdW  Elec       q    Type
REMARK                         _______ _______ _______ _____ _____    ______ ____
ROOT
ATOM      1  N   UNL     1       0.058  11.811  19.300  0.00  0.00    +0.000 N 
ATOM      2  C   UNL     1      -0.878  10.857  19.825  0.00  0.00    +0.000 C 
ATOM      3  C   UNL     1       0.042   9.740  20.117  0.00  0.00    +0.000 A 
ATOM      4  C   UNL     1       1.032   9.723  19.152  0.00  0.00    +0.000 A 
ATOM      5  C   UNL     1       1.894   8.651  19.007  0.00  0.00    +0.000 A 
ATOM      6  C   UNL     1       1.844   7.662  20.005  0.00  0.00    +0.000 A 
ATOM      7  C   UNL     1       1.142   7.961  21.192  0.00  0.00    +0.000 A 
ATOM      8  C   UNL     1       0.309   9.083  21.286  0.00  0.00    +0.000 A 
ATOM      9  C   UNL     1       1.167  11.162  18.751  0.00  0.00    +0.000 C 
ATOM     10  O   UNL     1       2.129  11.621  18.168  0.00  0.00    +0.000 OA
ENDROOT
BRANCH   1  15
ATOM     11  C   UNL     1      -1.352  14.809  20.904  0.00  0.00    +0.000 A 
ATOM     12  C   UNL     1      -0.991  15.798  19.977  0.00  0.00    +0.000 A 
ATOM     13  C   UNL     1      -0.286  15.476  18.803  0.00  0.00    +0.000 A 
ATOM     14  C   UNL     1       0.045  14.149  18.507  0.00  0.00    +0.000 A 
ATOM     15  C   UNL     1      -0.224  13.174  19.451  0.00  0.00    +0.000 A 
ATOM     16  C   UNL     1      -0.827  13.539  20.653  0.00  0.00    +0.000 A 
BRANCH  11  17
ATOM     17  C   UNL     1      -2.517  14.915  22.021  0.00  0.00    +0.000 C 
ATOM     18  C   UNL     1      -2.711  16.417  22.472  0.00  0.00    +0.000 C 
ATOM     19  O   UNL     1      -1.921  16.189  23.663  0.00  0.00    +0.000 OA
ATOM     20  C   UNL     1      -2.099  14.760  23.513  0.00  0.00    +0.000 C 
BRANCH  17  22
ATOM     21  C   UNL     1      -3.841  13.341  20.437  0.00  0.00    +0.000 C 
ATOM     22  C   UNL     1      -3.859  14.206  21.701  0.00  0.00    +0.000 C 
BRANCH  22  23
ATOM     23  C   UNL     1      -4.362  13.404  22.856  0.00  0.00    +0.000 A 
ATOM     24  N   UNL     1      -3.843  12.288  23.324  0.00  0.00    +0.000 NA
ATOM     25  N   UNL     1      -4.593  11.876  24.397  0.00  0.00    +0.000 NA
ATOM     26  C   UNL     1      -5.567  12.747  24.558  0.00  0.00    +0.000 A 
ATOM     27  N   UNL     1      -5.485  13.698  23.593  0.00  0.00    +0.000 N 
ATOM     28  C   UNL     1      -6.415  14.773  23.394  0.00  0.00    +0.000 C 
ENDBRANCH  22  23
ENDBRANCH  17  22
ENDBRANCH  11  17
ENDBRANCH   1  15
BRANCH   8  29
ATOM     29  C   UNL     1       0.024   9.720  22.631  0.00  0.00    +0.000 C 
ATOM     30  F   UNL     1       0.071  11.080  22.623  0.00  0.00    +0.000 F 
ATOM     31  F   UNL     1      -1.186   9.385  23.137  0.00  0.00    +0.000 F 
ATOM     32  F   UNL     1       0.950   9.346  23.562  0.00  0.00    +0.000 F 
ENDBRANCH   8  29
BRANCH   6  33
ATOM     33  C   UNL     1       2.622   6.367  19.904  0.00  0.00    +0.000 C 
BRANCH  33  34
ATOM     34  N   UNL     1       1.852   5.221  19.377  0.00  0.00    +0.000 NA
ATOM     35  C   UNL     1       1.303   4.343  20.425  0.00  0.00    +0.000 C 
ATOM     36  C   UNL     1       1.397   2.915  19.903  0.00  0.00    +0.000 C 
ATOM     37  C   UNL     1       2.556   2.986  18.968  0.00  0.00    +0.000 C 
ATOM     38  C   UNL     1       2.870   1.819  18.060  0.00  0.00    +0.000 C 
ATOM     39  C   UNL     1       3.784   2.133  19.206  0.00  0.00    +0.000 C 
ATOM     40  C   UNL     1       2.708   4.402  18.492  0.00  0.00    +0.000 C 
ENDBRANCH  33  34
ENDBRANCH   6  33
TORSDOF 7
ENDMDL
MODEL 8
REMARK VINA RESULT:      -8.4      1.375      2.122
REMARK  Name = 
REMARK  9 active torsions:
REMARK  status: ('A' for Active; 'I' for Inactive)
REMARK    1  A    between atoms: C_1  and  C_2
REMARK    2  A    between atoms: C_2  and  C_3
REMARK    3  A    between atoms: C_2  and  C_9
REMARK    4  A    between atoms: N_7  and  C_8
REMARK    5  A    between atoms: C_9  and  C_10
REMARK    6  A    between atoms: C_14  and  N_15
REMARK    7  A    between atoms: C_20  and  C_21
REMARK    8  A    between atoms: C_21  and  N_22
REMARK    9  A    between atoms: C_30  and  C_31
REMARK                            x       y       z     vdW  Elec       q    Type
REMARK                         _______ _______ _______ _____ _____    ______ ____
ROOT
ATOM      1  N   UNL     1       0.146  11.909  19.340  0.00  0.00    +0.000 N 
ATOM      2  C   UNL     1      -0.819  10.972  19.842  0.00  0.00    +0.000 C 
ATOM      3  C   UNL     1       0.068   9.826  20.121  0.00  0.00    +0.000 A 
ATOM      4  C   UNL     1       1.064   9.797  19.162  0.00  0.00    +0.000 A 
ATOM      5  C   UNL     1       1.898   8.706  19.005  0.00  0.00    +0.000 A 
ATOM      6  C   UNL     1       1.814   7.702  19.986  0.00  0.00    +0.000 A 
ATOM      7  C   UNL     1       1.112   8.000  21.173  0.00  0.00    +0.000 A 
ATOM      8  C   UNL     1       0.308   9.141  21.281  0.00  0.00    +0.000 A 
ATOM      9  C   UNL     1       1.241  11.239  18.787  0.00  0.00    +0.000 C 
ATOM     10  O   UNL     1       2.218  11.682  18.218  0.00  0.00    +0.000 OA
ENDROOT
BRANCH   1  15
ATOM     11  C   UNL     1      -0.925  14.948  21.119  0.00  0.00    +0.000 A 
ATOM     12  C   UNL     1      -0.750  15.915  20.118  0.00  0.00    +0.000 A 
ATOM     13  C   UNL     1      -0.284  15.564  18.837  0.00  0.00    +0.000 A 
ATOM     14  C   UNL     1      -0.018  14.229  18.512  0.00  0.00    +0.000 A 
ATOM     15  C   UNL     1      -0.101  13.276  19.512  0.00  0.00    +0.000 A 
ATOM     16  C   UNL     1      -0.460  13.670  20.799  0.00  0.00    +0.000 A 
BRANCH  11  17
ATOM     17  C   UNL     1      -1.853  15.084  22.437  0.00  0.00    +0.000 C 
ATOM     18  C   UNL     1      -1.170  16.041  23.492  0.00  0.00    +0.000 C 
ATOM     19  O   UNL     1      -0.683  14.905  24.246  0.00  0.00    +0.000 OA
ATOM     20  C   UNL     1      -1.638  14.046  23.577  0.00  0.00    +0.000 C 
BRANCH  17  22
ATOM     21  C   UNL     1      -3.607  16.619  21.294  0.00  0.00    +0.000 C 
ATOM     22  C   UNL     1      -3.351  15.416  22.206  0.00  0.00    +0.000 C 
BRANCH  22  23
ATOM     23  C   UNL     1      -4.120  14.234  21.712  0.00  0.00    +0.000 A 
ATOM     24  N   UNL     1      -3.966  13.622  20.557  0.00  0.00    +0.000 NA
ATOM     25  N   UNL     1      -4.856  12.579  20.495  0.00  0.00    +0.000 NA
ATOM     26  C   UNL     1      -5.547  12.581  21.615  0.00  0.00    +0.000 A 
ATOM     27  N   UNL     1      -5.148  13.622  22.390  0.00  0.00    +0.000 N 
ATOM     28  C   UNL     1      -5.720  13.996  23.652  0.00  0.00    +0.000 C 
ENDBRANCH  22  23
ENDBRANCH  17  22
ENDBRANCH  11  17
ENDBRANCH   1  15
BRANCH   8  29
ATOM     29  C   UNL     1       0.032   9.763  22.634  0.00  0.00    +0.000 C 
ATOM     30  F   UNL     1      -1.219   9.520  23.113  0.00  0.00    +0.000 F 
ATOM     31  F   UNL     1       0.892   9.355  23.596  0.00  0.00    +0.000 F 
ATOM     32  F   UNL     1       0.125  11.124  22.582  0.00  0.00    +0.000 F 
ENDBRANCH   8  29
BRANCH   6  33
ATOM     33  C   UNL     1       2.558   6.388  19.868  0.00  0.00    +0.000 C 
BRANCH  33  34
ATOM     34  N   UNL     1       1.755   5.267  19.334  0.00  0.00    +0.000 NA
ATOM     35  C   UNL     1       1.251   4.351  20.373  0.00  0.00    +0.000 C 
ATOM     36  C   UNL     1       1.310   2.944  19.792  0.00  0.00    +0.000 C 
ATOM     37  C   UNL     1       2.423   3.046  18.805  0.00  0.00    +0.000 C 
ATOM     38  C   UNL     1       2.685   1.914  17.839  0.00  0.00    +0.000 C 
ATOM     39  C   UNL     1       3.655   2.178  18.950  0.00  0.00    +0.000 C 
ATOM     40  C   UNL     1       2.562   4.479  18.378  0.00  0.00    +0.000 C 
ENDBRANCH  33  34
ENDBRANCH   6  33
TORSDOF 7
ENDMDL
MODEL 9
REMARK VINA RESULT:      -8.3      1.358      2.169
REMARK  Name = 
REMARK  9 active torsions:
REMARK  status: ('A' for Active; 'I' for Inactive)
REMARK    1  A    between atoms: C_1  and  C_2
REMARK    2  A    between atoms: C_2  and  C_3
REMARK    3  A    between atoms: C_2  and  C_9
REMARK    4  A    between atoms: N_7  and  C_8
REMARK    5  A    between atoms: C_9  and  C_10
REMARK    6  A    between atoms: C_14  and  N_15
REMARK    7  A    between atoms: C_20  and  C_21
REMARK    8  A    between atoms: C_21  and  N_22
REMARK    9  A    between atoms: C_30  and  C_31
REMARK                            x       y       z     vdW  Elec       q    Type
REMARK                         _______ _______ _______ _____ _____    ______ ____
ROOT
ATOM      1  N   UNL     1       0.234  11.694  19.164  0.00  0.00    +0.000 N 
ATOM      2  C   UNL     1      -0.699  10.719  19.654  0.00  0.00    +0.000 C 
ATOM      3  C   UNL     1       0.225   9.596  19.910  0.00  0.00    +0.000 A 
ATOM      4  C   UNL     1       1.217   9.615  18.947  0.00  0.00    +0.000 A 
ATOM      5  C   UNL     1       2.083   8.553  18.768  0.00  0.00    +0.000 A 
ATOM      6  C   UNL     1       2.035   7.530  19.732  0.00  0.00    +0.000 A 
ATOM      7  C   UNL     1       1.330   7.786  20.927  0.00  0.00    +0.000 A 
ATOM      8  C   UNL     1       0.491   8.900  21.057  0.00  0.00    +0.000 A 
ATOM      9  C   UNL     1       1.347  11.067  18.595  0.00  0.00    +0.000 C 
ATOM     10  O   UNL     1       2.308  11.550  18.031  0.00  0.00    +0.000 OA
ENDROOT
BRANCH   1  15
ATOM     11  C   UNL     1      -1.081  14.645  20.928  0.00  0.00    +0.000 A 
ATOM     12  C   UNL     1      -0.812  15.653  19.991  0.00  0.00    +0.000 A 
ATOM     13  C   UNL     1      -0.202  15.360  18.758  0.00  0.00    +0.000 A 
ATOM     14  C   UNL     1       0.123  14.043  18.413  0.00  0.00    +0.000 A 
ATOM     15  C   UNL     1      -0.054  13.050  19.360  0.00  0.00    +0.000 A 
ATOM     16  C   UNL     1      -0.561  13.387  20.613  0.00  0.00    +0.000 A 
BRANCH  11  17
ATOM     17  C   UNL     1      -2.151  14.715  22.139  0.00  0.00    +0.000 C 
ATOM     18  C   UNL     1      -2.161  16.159  22.779  0.00  0.00    +0.000 C 
ATOM     19  O   UNL     1      -1.321  15.710  23.869  0.00  0.00    +0.000 OA
ATOM     20  C   UNL     1      -1.652  14.334  23.563  0.00  0.00    +0.000 C 
BRANCH  17  22
ATOM     21  C   UNL     1      -3.704  13.378  20.544  0.00  0.00    +0.000 C 
ATOM     22  C   UNL     1      -3.577  14.180  21.843  0.00  0.00    +0.000 C 
BRANCH  22  23
ATOM     23  C   UNL     1      -4.128  13.386  22.983  0.00  0.00    +0.000 A 
ATOM     24  N   UNL     1      -3.751  12.182  23.358  0.00  0.00    +0.000 NA
ATOM     25  N   UNL     1      -4.495  11.814  24.451  0.00  0.00    +0.000 NA
ATOM     26  C   UNL     1      -5.323  12.802  24.717  0.00  0.00    +0.000 A 
ATOM     27  N   UNL     1      -5.156  13.789  23.802  0.00  0.00    +0.000 N 
ATOM     28  C   UNL     1      -5.931  14.995  23.718  0.00  0.00    +0.000 C 
ENDBRANCH  22  23
ENDBRANCH  17  22
ENDBRANCH  11  17
ENDBRANCH   1  15
BRANCH   8  29
ATOM     29  C   UNL     1       0.202   9.491  22.422  0.00  0.00    +0.000 C 
ATOM     30  F   UNL     1      -0.980   9.087  22.963  0.00  0.00    +0.000 F 
ATOM     31  F   UNL     1       1.155   9.209  23.340  0.00  0.00    +0.000 F 
ATOM     32  F   UNL     1       0.110  10.852  22.364  0.00  0.00    +0.000 F 
ENDBRANCH   8  29
BRANCH   6  33
ATOM     33  C   UNL     1       2.819   6.242  19.589  0.00  0.00    +0.000 C 
BRANCH  33  34
ATOM     34  N   UNL     1       2.727   5.606  18.258  0.00  0.00    +0.000 NA
ATOM     35  C   UNL     1       2.602   4.138  18.310  0.00  0.00    +0.000 C 
ATOM     36  C   UNL     1       3.402   3.583  17.139  0.00  0.00    +0.000 C 
ATOM     37  C   UNL     1       4.441   4.630  16.928  0.00  0.00    +0.000 C 
ATOM     38  C   UNL     1       5.333   4.579  15.709  0.00  0.00    +0.000 C 
ATOM     39  C   UNL     1       5.910   4.289  17.061  0.00  0.00    +0.000 C 
ATOM     40  C   UNL     1       3.925   5.938  17.457  0.00  0.00    +0.000 C 
ENDBRANCH  33  34
ENDBRANCH   6  33
TORSDOF 7
ENDMDL
