MODEL 1
REMARK VINA RESULT:      -9.2      0.000      0.000
REMARK  Name = 
REMARK  8 active torsions:
REMARK  status: ('A' for Active; 'I' for Inactive)
REMARK    1  A    between atoms: C_1  and  C_2
REMARK    2  A    between atoms: C_4  and  C_5
REMARK    3  A    between atoms: N_7  and  C_8
REMARK    4  A    between atoms: C_12  and  C_13
REMARK    5  A    between atoms: C_13  and  C_14
REMARK    6  A    between atoms: C_14  and  C_15
REMARK    7  A    between atoms: N_19  and  C_20
REMARK    8  A    between atoms: C_28  and  C_29
REMARK                            x       y       z     vdW  Elec       q    Type
REMARK                         _______ _______ _______ _____ _____    ______ ____
ROOT
ATOM      1  C   UNL     1       3.134   5.286  19.543  0.00  0.00    +0.000 A 
ATOM      2  C   UNL     1       2.941   4.057  20.174  0.00  0.00    +0.000 A 
ATOM      3  C   UNL     1       3.546   2.902  19.682  0.00  0.00    +0.000 A 
ATOM      4  C   UNL     1       4.372   2.977  18.562  0.00  0.00    +0.000 A 
ATOM      5  C   UNL     1       4.620   4.199  17.907  0.00  0.00    +0.000 A 
ATOM      6  C   UNL     1       3.946   5.339  18.406  0.00  0.00    +0.000 A 
ENDROOT
BRANCH   5   7
ATOM      7  C   UNL     1       5.667   4.299  16.684  0.00  0.00    +0.000 C 
ATOM      8  C   UNL     1       5.504   3.244  15.530  0.00  0.00    +0.000 C 
ATOM      9  C   UNL     1       5.684   4.372  14.497  0.00  0.00    +0.000 C 
ATOM     10  F   UNL     1       4.866   4.321  13.423  0.00  0.00    +0.000 F 
ATOM     11  F   UNL     1       6.938   4.540  14.022  0.00  0.00    +0.000 F 
ATOM     12  C   UNL     1       5.268   5.366  15.594  0.00  0.00    +0.000 C 
BRANCH   7  13
ATOM     13  C   UNL     1       7.105   4.488  17.223  0.00  0.00    +0.000 C 
BRANCH  13  14
ATOM     14  C   UNL     1       7.496   5.913  17.465  0.00  0.00    +0.000 A 
ATOM     15  N   UNL     1       7.477   6.884  16.571  0.00  0.00    +0.000 NA
ATOM     16  N   UNL     1       7.852   8.052  17.190  0.00  0.00    +0.000 NA
ATOM     17  C   UNL     1       8.090   7.777  18.449  0.00  0.00    +0.000 A 
ATOM     18  N   UNL     1       7.894   6.447  18.667  0.00  0.00    +0.000 N 
ATOM     19  C   UNL     1       8.063   5.786  19.932  0.00  0.00    +0.000 C 
ENDBRANCH  13  14
ENDBRANCH   7  13
ENDBRANCH   5   7
BRANCH   1  22
ATOM     20  C   UNL     1       2.110   7.527  19.211  0.00  0.00    +0.000 C 
ATOM     21  O   UNL     1       2.118   7.545  17.980  0.00  0.00    +0.000 OA
ATOM     22  N   UNL     1       2.558   6.488  20.009  0.00  0.00    +0.000 N 
ATOM     23  H   UNL     1       2.360   6.578  21.004  0.00  0.00    +0.000 HD
BRANCH  20  27
ATOM     24  C   UNL     1      -0.012   9.519  23.227  0.00  0.00    +0.000 C 
ATOM     25  C   UNL     1       0.527   9.595  21.833  0.00  0.00    +0.000 A 
ATOM     26  C   UNL     1       1.064   8.501  21.214  0.00  0.00    +0.000 A 
ATOM     27  C   UNL     1       1.531   8.704  19.930  0.00  0.00    +0.000 A 
ATOM     28  N   UNL     1       1.505   9.894  19.283  0.00  0.00    +0.000 NA
ATOM     29  C   UNL     1       0.974  10.922  19.977  0.00  0.00    +0.000 A 
ATOM     30  N   UNL     1       0.476  10.795  21.227  0.00  0.00    +0.000 NA
BRANCH  29  31
ATOM     31  C   UNL     1       0.926  12.311  19.390  0.00  0.00    +0.000 C 
ATOM     32  C   UNL     1       2.023  13.286  19.769  0.00  0.00    +0.000 C 
ATOM     33  C   UNL     1       1.897  12.811  18.352  0.00  0.00    +0.000 C 
ENDBRANCH  29  31
ENDBRANCH  20  27
ENDBRANCH   1  22
TORSDOF 6
ENDMDL
MODEL 2
REMARK VINA RESULT:      -9.0      0.814      2.144
REMARK  Name = 
REMARK  8 active torsions:
REMARK  status: ('A' for Active; 'I' for Inactive)
REMARK    1  A    between atoms: C_1  and  C_2
REMARK    2  A    between atoms: C_4  and  C_5
REMARK    3  A    between atoms: N_7  and  C_8
REMARK    4  A    between atoms: C_12  and  C_13
REMARK    5  A    between atoms: C_13  and  C_14
REMARK    6  A    between atoms: C_14  and  C_15
REMARK    7  A    between atoms: N_19  and  C_20
REMARK    8  A    between atoms: C_28  and  C_29
REMARK                            x       y       z     vdW  Elec       q    Type
REMARK                         _______ _______ _______ _____ _____    ______ ____
ROOT
ATOM      1  C   UNL     1       2.856   5.284  18.796  0.00  0.00    +0.000 A 
ATOM      2  C   UNL     1       2.540   4.050  19.366  0.00  0.00    +0.000 A 
ATOM      3  C   UNL     1       3.167   2.885  18.932  0.00  0.00    +0.000 A 
ATOM      4  C   UNL     1       4.137   2.952  17.934  0.00  0.00    +0.000 A 
ATOM      5  C   UNL     1       4.511   4.176  17.348  0.00  0.00    +0.000 A 
ATOM      6  C   UNL     1       3.814   5.329  17.780  0.00  0.00    +0.000 A 
ENDROOT
BRANCH   5   7
ATOM      7  C   UNL     1       5.715   4.262  16.278  0.00  0.00    +0.000 C 
ATOM      8  C   UNL     1       5.696   3.209  15.111  0.00  0.00    +0.000 C 
ATOM      9  C   UNL     1       6.029   4.334  14.114  0.00  0.00    +0.000 C 
ATOM     10  F   UNL     1       5.364   4.294  12.939  0.00  0.00    +0.000 F 
ATOM     11  F   UNL     1       7.338   4.486  13.813  0.00  0.00    +0.000 F 
ATOM     12  C   UNL     1       5.481   5.334  15.146  0.00  0.00    +0.000 C 
BRANCH   7  13
ATOM     13  C   UNL     1       7.069   4.433  17.008  0.00  0.00    +0.000 C 
BRANCH  13  14
ATOM     14  C   UNL     1       7.437   5.851  17.313  0.00  0.00    +0.000 A 
ATOM     15  N   UNL     1       7.466   6.848  16.447  0.00  0.00    +0.000 NA
ATOM     16  N   UNL     1       7.796   7.999  17.121  0.00  0.00    +0.000 NA
ATOM     17  C   UNL     1       7.960   7.689  18.383  0.00  0.00    +0.000 A 
ATOM     18  N   UNL     1       7.759   6.353  18.551  0.00  0.00    +0.000 N 
ATOM     19  C   UNL     1       7.855   5.656  19.805  0.00  0.00    +0.000 C 
ENDBRANCH  13  14
ENDBRANCH   7  13
ENDBRANCH   5   7
BRANCH   1  22
ATOM     20  C   UNL     1       2.355   7.706  18.542  0.00  0.00    +0.000 C 
ATOM     21  O   UNL     1       2.938   7.896  17.474  0.00  0.00    +0.000 OA
ATOM     22  N   UNL     1       2.263   6.497  19.211  0.00  0.00    +0.000 N 
ATOM     23  H   UNL     1       1.634   6.481  20.012  0.00  0.00    +0.000 HD
BRANCH  20  27
ATOM     24  C   UNL     1       1.128  12.511  18.605  0.00  0.00    +0.000 C 
ATOM     25  C   UNL     1       1.096  11.124  19.165  0.00  0.00    +0.000 A 
ATOM     26  C   UNL     1       1.750  10.090  18.554  0.00  0.00    +0.000 A 
ATOM     27  C   UNL     1       1.638   8.859  19.170  0.00  0.00    +0.000 A 
ATOM     28  N   UNL     1       0.923   8.626  20.295  0.00  0.00    +0.000 NA
ATOM     29  C   UNL     1       0.296   9.699  20.820  0.00  0.00    +0.000 A 
ATOM     30  N   UNL     1       0.377  10.939  20.288  0.00  0.00    +0.000 NA
BRANCH  29  31
ATOM     31  C   UNL     1      -0.572   9.569  22.047  0.00  0.00    +0.000 C 
ATOM     32  C   UNL     1       0.102   9.583  23.404  0.00  0.00    +0.000 C 
ATOM     33  C   UNL     1      -0.822  10.698  23.014  0.00  0.00    +0.000 C 
ENDBRANCH  29  31
ENDBRANCH  20  27
ENDBRANCH   1  22
TORSDOF 6
ENDMDL
MODEL 3
REMARK VINA RESULT:      -8.9      1.183      2.542
REMARK  Name = 
REMARK  8 active torsions:
REMARK  status: ('A' for Active; 'I' for Inactive)
REMARK    1  A    between atoms: C_1  and  C_2
REMARK    2  A    between atoms: C_4  and  C_5
REMARK    3  A    between atoms: N_7  and  C_8
REMARK    4  A    between atoms: C_12  and  C_13
REMARK    5  A    between atoms: C_13  and  C_14
REMARK    6  A    between atoms: C_14  and  C_15
REMARK    7  A    between atoms: N_19  and  C_20
REMARK    8  A    between atoms: C_28  and  C_29
REMARK                            x       y       z     vdW  Elec       q    Type
REMARK                         _______ _______ _______ _____ _____    ______ ____
ROOT
ATOM      1  C   UNL     1       2.872   5.910  18.473  0.00  0.00    +0.000 A 
ATOM      2  C   UNL     1       2.466   4.648  18.910  0.00  0.00    +0.000 A 
ATOM      3  C   UNL     1       2.998   3.494  18.340  0.00  0.00    +0.000 A 
ATOM      4  C   UNL     1       3.963   3.597  17.340  0.00  0.00    +0.000 A 
ATOM      5  C   UNL     1       4.424   4.846  16.884  0.00  0.00    +0.000 A 
ATOM      6  C   UNL     1       3.822   5.994  17.451  0.00  0.00    +0.000 A 
ENDROOT
BRANCH   5   7
ATOM      7  C   UNL     1       5.622   4.959  15.810  0.00  0.00    +0.000 C 
ATOM      8  C   UNL     1       6.301   3.611  15.370  0.00  0.00    +0.000 C 
ATOM      9  C   UNL     1       6.250   4.085  13.905  0.00  0.00    +0.000 C 
ATOM     10  F   UNL     1       5.902   3.147  12.997  0.00  0.00    +0.000 F 
ATOM     11  F   UNL     1       7.372   4.678  13.439  0.00  0.00    +0.000 F 
ATOM     12  C   UNL     1       5.127   5.052  14.316  0.00  0.00    +0.000 C 
BRANCH   7  13
ATOM     13  C   UNL     1       6.589   6.101  16.204  0.00  0.00    +0.000 C 
BRANCH  13  14
ATOM     14  C   UNL     1       7.235   5.936  17.544  0.00  0.00    +0.000 A 
ATOM     15  N   UNL     1       7.354   4.803  18.212  0.00  0.00    +0.000 NA
ATOM     16  N   UNL     1       8.051   5.052  19.370  0.00  0.00    +0.000 NA
ATOM     17  C   UNL     1       8.347   6.328  19.390  0.00  0.00    +0.000 A 
ATOM     18  N   UNL     1       7.845   6.927  18.274  0.00  0.00    +0.000 N 
ATOM     19  C   UNL     1       7.976   8.324  17.958  0.00  0.00    +0.000 C 
ENDBRANCH  13  14
ENDBRANCH   7  13
ENDBRANCH   5   7
BRANCH   1  22
ATOM     20  C   UNL     1       2.088   8.264  18.317  0.00  0.00    +0.000 C 
ATOM     21  O   UNL     1       2.190   8.405  17.098  0.00  0.00    +0.000 OA
ATOM     22  N   UNL     1       2.377   7.111  19.027  0.00  0.00    +0.000 N 
ATOM     23  H   UNL     1       2.114   7.120  20.011  0.00  0.00    +0.000 HD
BRANCH  20  27
ATOM     24  C   UNL     1       0.759  13.030  18.672  0.00  0.00    +0.000 C 
ATOM     25  C   UNL     1       0.966  11.662  19.242  0.00  0.00    +0.000 A 
ATOM     26  C   UNL     1       1.427  10.628  18.474  0.00  0.00    +0.000 A 
ATOM     27  C   UNL     1       1.570   9.416  19.119  0.00  0.00    +0.000 A 
ATOM     28  N   UNL     1       1.268   9.199  20.421  0.00  0.00    +0.000 NA
ATOM     29  C   UNL     1       0.803  10.269  21.097  0.00  0.00    +0.000 A 
ATOM     30  N   UNL     1       0.658  11.493  20.541  0.00  0.00    +0.000 NA
BRANCH  29  31
ATOM     31  C   UNL     1       0.386  10.154  22.543  0.00  0.00    +0.000 C 
ATOM     32  C   UNL     1      -0.985  10.665  22.935  0.00  0.00    +0.000 C 
ATOM     33  C   UNL     1      -0.675   9.201  23.030  0.00  0.00    +0.000 C 
ENDBRANCH  29  31
ENDBRANCH  20  27
ENDBRANCH   1  22
TORSDOF 6
ENDMDL
MODEL 4
REMARK VINA RESULT:      -8.8      3.462      8.302
REMARK  Name = 
REMARK  8 active torsions:
REMARK  status: ('A' for Active; 'I' for Inactive)
REMARK    1  A    between atoms: C_1  and  C_2
REMARK    2  A    between atoms: C_4  and  C_5
REMARK    3  A    between atoms: N_7  and  C_8
REMARK    4  A    between atoms: C_12  and  C_13
REMARK    5  A    between atoms: C_13  and  C_14
REMARK    6  A    between atoms: C_14  and  C_15
REMARK    7  A    between atoms: N_19  and  C_20
REMARK    8  A    between atoms: C_28  and  C_29
REMARK                            x       y       z     vdW  Elec       q    Type
REMARK                         _______ _______ _______ _____ _____    ______ ____
ROOT
ATOM      1  C   UNL     1       1.465   8.336  20.620  0.00  0.00    +0.000 A 
ATOM      2  C   UNL     1       1.198   8.591  21.965  0.00  0.00    +0.000 A 
ATOM      3  C   UNL     1       0.294   9.585  22.335  0.00  0.00    +0.000 A 
ATOM      4  C   UNL     1      -0.369  10.317  21.353  0.00  0.00    +0.000 A 
ATOM      5  C   UNL     1      -0.153  10.080  19.982  0.00  0.00    +0.000 A 
ATOM      6  C   UNL     1       0.810   9.098  19.648  0.00  0.00    +0.000 A 
ENDROOT
BRANCH   5   7
ATOM      7  C   UNL     1      -1.008  10.850  18.851  0.00  0.00    +0.000 C 
ATOM      8  C   UNL     1      -0.974  10.235  17.404  0.00  0.00    +0.000 C 
ATOM      9  C   UNL     1      -2.499  10.432  17.305  0.00  0.00    +0.000 C 
ATOM     10  F   UNL     1      -3.185   9.419  16.734  0.00  0.00    +0.000 F 
ATOM     11  F   UNL     1      -2.908  11.568  16.698  0.00  0.00    +0.000 F 
ATOM     12  C   UNL     1      -2.537  10.468  18.843  0.00  0.00    +0.000 C 
BRANCH   7  13
ATOM     13  C   UNL     1      -0.761  12.375  18.939  0.00  0.00    +0.000 C 
BRANCH  13  14
ATOM     14  C   UNL     1       0.675  12.765  19.103  0.00  0.00    +0.000 A 
ATOM     15  N   UNL     1       1.629  12.603  18.204  0.00  0.00    +0.000 NA
ATOM     16  N   UNL     1       2.793  13.135  18.705  0.00  0.00    +0.000 NA
ATOM     17  C   UNL     1       2.531  13.612  19.897  0.00  0.00    +0.000 A 
ATOM     18  N   UNL     1       1.221  13.392  20.196  0.00  0.00    +0.000 N 
ATOM     19  C   UNL     1       0.579  13.781  21.422  0.00  0.00    +0.000 C 
ENDBRANCH  13  14
ENDBRANCH   7  13
ENDBRANCH   5   7
BRANCH   1  22
ATOM     20  C   UNL     1       2.129   5.967  20.262  0.00  0.00    +0.000 C 
ATOM     21  O   UNL     1       1.103   5.430  20.680  0.00  0.00    +0.000 OA
ATOM     22  N   UNL     1       2.359   7.330  20.190  0.00  0.00    +0.000 N 
ATOM     23  H   UNL     1       3.205   7.611  19.697  0.00  0.00    +0.000 HD
BRANCH  20  27
ATOM     24  C   UNL     1       3.715   1.572  18.598  0.00  0.00    +0.000 C 
ATOM     25  C   UNL     1       3.925   3.005  18.974  0.00  0.00    +0.000 A 
ATOM     26  C   UNL     1       2.898   3.783  19.432  0.00  0.00    +0.000 A 
ATOM     27  C   UNL     1       3.222   5.089  19.740  0.00  0.00    +0.000 A 
ATOM     28  N   UNL     1       4.456   5.628  19.597  0.00  0.00    +0.000 NA
ATOM     29  C   UNL     1       5.404   4.794  19.122  0.00  0.00    +0.000 A 
ATOM     30  N   UNL     1       5.169   3.497  18.821  0.00  0.00    +0.000 NA
BRANCH  29  31
ATOM     31  C   UNL     1       6.811   5.279  18.872  0.00  0.00    +0.000 C 
ATOM     32  C   UNL     1       7.500   4.845  17.595  0.00  0.00    +0.000 C 
ATOM     33  C   UNL     1       7.167   6.290  17.813  0.00  0.00    +0.000 C 
ENDBRANCH  29  31
ENDBRANCH  20  27
ENDBRANCH   1  22
TORSDOF 6
ENDMDL
MODEL 5
REMARK VINA RESULT:      -8.7      3.667      6.523
REMARK  Name = 
REMARK  8 active torsions:
REMARK  status: ('A' for Active; 'I' for Inactive)
REMARK    1  A    between atoms: C_1  and  C_2
REMARK    2  A    between atoms: C_4  and  C_5
REMARK    3  A    between atoms: N_7  and  C_8
REMARK    4  A    between atoms: C_12  and  C_13
REMARK    5  A    between atoms: C_13  and  C_14
REMARK    6  A    between atoms: C_14  and  C_15
REMARK    7  A    between atoms: N_19  and  C_20
REMARK    8  A    between atoms: C_28  and  C_29
REMARK                            x       y       z     vdW  Elec       q    Type
REMARK                         _______ _______ _______ _____ _____    ______ ____
ROOT
ATOM      1  C   UNL     1       7.980   7.869  18.098  0.00  0.00    +0.000 A 
ATOM      2  C   UNL     1       8.458   7.131  19.182  0.00  0.00    +0.000 A 
ATOM      3  C   UNL     1       8.047   5.815  19.383  0.00  0.00    +0.000 A 
ATOM      4  C   UNL     1       7.168   5.220  18.481  0.00  0.00    +0.000 A 
ATOM      5  C   UNL     1       6.679   5.913  17.357  0.00  0.00    +0.000 A 
ATOM      6  C   UNL     1       7.080   7.263  17.217  0.00  0.00    +0.000 A 
ENDROOT
BRANCH   5   7
ATOM      7  C   UNL     1       5.755   5.183  16.255  0.00  0.00    +0.000 C 
ATOM      8  C   UNL     1       5.683   5.860  14.838  0.00  0.00    +0.000 C 
ATOM      9  C   UNL     1       5.859   4.475  14.187  0.00  0.00    +0.000 C 
ATOM     10  F   UNL     1       6.682   4.429  13.117  0.00  0.00    +0.000 F 
ATOM     11  F   UNL     1       4.719   3.844  13.827  0.00  0.00    +0.000 F 
ATOM     12  C   UNL     1       6.475   3.993  15.512  0.00  0.00    +0.000 C 
BRANCH   7  13
ATOM     13  C   UNL     1       4.397   4.779  16.877  0.00  0.00    +0.000 C 
BRANCH  13  14
ATOM     14  C   UNL     1       3.731   5.859  17.671  0.00  0.00    +0.000 A 
ATOM     15  N   UNL     1       3.482   7.087  17.253  0.00  0.00    +0.000 NA
ATOM     16  N   UNL     1       2.812   7.758  18.248  0.00  0.00    +0.000 NA
ATOM     17  C   UNL     1       2.660   6.931  19.253  0.00  0.00    +0.000 A 
ATOM     18  N   UNL     1       3.231   5.733  18.945  0.00  0.00    +0.000 N 
ATOM     19  C   UNL     1       3.258   4.586  19.811  0.00  0.00    +0.000 C 
ENDBRANCH  13  14
ENDBRANCH   7  13
ENDBRANCH   5   7
BRANCH   1  22
ATOM     20  C   UNL     1       8.965  10.056  18.753  0.00  0.00    +0.000 C 
ATOM     21  O   UNL     1       9.258   9.777  19.916  0.00  0.00    +0.000 OA
ATOM     22  N   UNL     1       8.377   9.199  17.838  0.00  0.00    +0.000 N 
ATOM     23  H   UNL     1       8.322   9.544  16.881  0.00  0.00    +0.000 HD
BRANCH  20  27
ATOM     24  C   UNL     1      12.190  13.241  16.740  0.00  0.00    +0.000 C 
ATOM     25  C   UNL     1      10.854  12.886  17.311  0.00  0.00    +0.000 A 
ATOM     26  C   UNL     1      10.575  11.620  17.748  0.00  0.00    +0.000 A 
ATOM     27  C   UNL     1       9.303  11.423  18.249  0.00  0.00    +0.000 A 
ATOM     28  N   UNL     1       8.345  12.377  18.309  0.00  0.00    +0.000 NA
ATOM     29  C   UNL     1       8.701  13.591  17.840  0.00  0.00    +0.000 A 
ATOM     30  N   UNL     1       9.934  13.867  17.357  0.00  0.00    +0.000 NA
BRANCH  29  31
ATOM     31  C   UNL     1       7.714  14.732  17.808  0.00  0.00    +0.000 C 
ATOM     32  C   UNL     1       7.347  15.397  19.119  0.00  0.00    +0.000 C 
ATOM     33  C   UNL     1       8.092  16.167  18.070  0.00  0.00    +0.000 C 
ENDBRANCH  29  31
ENDBRANCH  20  27
ENDBRANCH   1  22
TORSDOF 6
ENDMDL
MODEL 6
REMARK VINA RESULT:      -8.7      1.426      1.978
REMARK  Name = 
REMARK  8 active torsions:
REMARK  status: ('A' for Active; 'I' for Inactive)
REMARK    1  A    between atoms: C_1  and  C_2
REMARK    2  A    between atoms: C_4  and  C_5
REMARK    3  A    between atoms: N_7  and  C_8
REMARK    4  A    between atoms: C_12  and  C_13
REMARK    5  A    between atoms: C_13  and  C_14
REMARK    6  A    between atoms: C_14  and  C_15
REMARK    7  A    between atoms: N_19  and  C_20
REMARK    8  A    between atoms: C_28  and  C_29
REMARK                            x       y       z     vdW  Elec       q    Type
REMARK                         _______ _______ _______ _____ _____    ______ ____
ROOT
ATOM      1  C   UNL     1       2.709   6.812  18.614  0.00  0.00    +0.000 A 
ATOM      2  C   UNL     1       2.558   6.015  19.750  0.00  0.00    +0.000 A 
ATOM      3  C   UNL     1       3.251   4.813  19.872  0.00  0.00    +0.000 A 
ATOM      4  C   UNL     1       4.123   4.411  18.862  0.00  0.00    +0.000 A 
ATOM      5  C   UNL     1       4.329   5.193  17.709  0.00  0.00    +0.000 A 
ATOM      6  C   UNL     1       3.568   6.381  17.599  0.00  0.00    +0.000 A 
ENDROOT
BRANCH   5   7
ATOM      7  C   UNL     1       5.424   4.781  16.599  0.00  0.00    +0.000 C 
ATOM      8  C   UNL     1       5.081   3.536  15.701  0.00  0.00    +0.000 C 
ATOM      9  C   UNL     1       5.551   4.322  14.463  0.00  0.00    +0.000 C 
ATOM     10  F   UNL     1       4.789   4.184  13.356  0.00  0.00    +0.000 F 
ATOM     11  F   UNL     1       6.830   4.111  14.082  0.00  0.00    +0.000 F 
ATOM     12  C   UNL     1       5.318   5.614  15.265  0.00  0.00    +0.000 C 
BRANCH   7  13
ATOM     13  C   UNL     1       6.844   4.795  17.214  0.00  0.00    +0.000 C 
BRANCH  13  14
ATOM     14  C   UNL     1       7.375   6.160  17.521  0.00  0.00    +0.000 A 
ATOM     15  N   UNL     1       7.322   7.209  16.722  0.00  0.00    +0.000 NA
ATOM     16  N   UNL     1       7.865   8.286  17.381  0.00  0.00    +0.000 NA
ATOM     17  C   UNL     1       8.237   7.879  18.570  0.00  0.00    +0.000 A 
ATOM     18  N   UNL     1       7.964   6.551  18.699  0.00  0.00    +0.000 N 
ATOM     19  C   UNL     1       8.237   5.764  19.872  0.00  0.00    +0.000 C 
ENDBRANCH  13  14
ENDBRANCH   7  13
ENDBRANCH   5   7
BRANCH   1  22
ATOM     20  C   UNL     1       1.468   8.793  19.461  0.00  0.00    +0.000 C 
ATOM     21  O   UNL     1       1.477   8.510  20.659  0.00  0.00    +0.000 OA
ATOM     22  N   UNL     1       2.043   8.047  18.447  0.00  0.00    +0.000 N 
ATOM     23  H   UNL     1       2.061   8.487  17.528  0.00  0.00    +0.000 HD
BRANCH  20  27
ATOM     24  C   UNL     1      -2.558  11.357  18.114  0.00  0.00    +0.000 C 
ATOM     25  C   UNL     1      -1.096  11.237  18.407  0.00  0.00    +0.000 A 
ATOM     26  C   UNL     1      -0.540  10.052  18.801  0.00  0.00    +0.000 A 
ATOM     27  C   UNL     1       0.819  10.075  19.045  0.00  0.00    +0.000 A 
ATOM     28  N   UNL     1       1.599  11.177  18.938  0.00  0.00    +0.000 NA
ATOM     29  C   UNL     1       0.964  12.306  18.561  0.00  0.00    +0.000 A 
ATOM     30  N   UNL     1      -0.358  12.356  18.282  0.00  0.00    +0.000 NA
BRANCH  29  31
ATOM     31  C   UNL     1       1.707  13.614  18.447  0.00  0.00    +0.000 C 
ATOM     32  C   UNL     1       2.249  14.240  19.716  0.00  0.00    +0.000 C 
ATOM     33  C   UNL     1       3.193  13.748  18.659  0.00  0.00    +0.000 C 
ENDBRANCH  29  31
ENDBRANCH  20  27
ENDBRANCH   1  22
TORSDOF 6
ENDMDL
MODEL 7
REMARK VINA RESULT:      -8.6      3.833      8.685
REMARK  Name = 
REMARK  8 active torsions:
REMARK  status: ('A' for Active; 'I' for Inactive)
REMARK    1  A    between atoms: C_1  and  C_2
REMARK    2  A    between atoms: C_4  and  C_5
REMARK    3  A    between atoms: N_7  and  C_8
REMARK    4  A    between atoms: C_12  and  C_13
REMARK    5  A    between atoms: C_13  and  C_14
REMARK    6  A    between atoms: C_14  and  C_15
REMARK    7  A    between atoms: N_19  and  C_20
REMARK    8  A    between atoms: C_28  and  C_29
REMARK                            x       y       z     vdW  Elec       q    Type
REMARK                         _______ _______ _______ _____ _____    ______ ____
ROOT
ATOM      1  C   UNL     1       1.278   8.701  20.402  0.00  0.00    +0.000 A 
ATOM      2  C   UNL     1       1.102   9.024  21.748  0.00  0.00    +0.000 A 
ATOM      3  C   UNL     1       0.202  10.017  22.129  0.00  0.00    +0.000 A 
ATOM      4  C   UNL     1      -0.549  10.678  21.160  0.00  0.00    +0.000 A 
ATOM      5  C   UNL     1      -0.427  10.369  19.792  0.00  0.00    +0.000 A 
ATOM      6  C   UNL     1       0.535   9.392  19.442  0.00  0.00    +0.000 A 
ENDROOT
BRANCH   5   7
ATOM      7  C   UNL     1      -1.381  11.055  18.687  0.00  0.00    +0.000 C 
ATOM      8  C   UNL     1      -2.216  10.083  17.776  0.00  0.00    +0.000 C 
ATOM      9  C   UNL     1      -3.451  10.979  17.982  0.00  0.00    +0.000 C 
ATOM     10  F   UNL     1      -4.620  10.331  18.179  0.00  0.00    +0.000 F 
ATOM     11  F   UNL     1      -3.677  11.901  17.021  0.00  0.00    +0.000 F 
ATOM     12  C   UNL     1      -2.777  11.520  19.255  0.00  0.00    +0.000 C 
BRANCH   7  13
ATOM     13  C   UNL     1      -0.620  12.181  17.946  0.00  0.00    +0.000 C 
BRANCH  13  14
ATOM     14  C   UNL     1       0.118  13.127  18.843  0.00  0.00    +0.000 A 
ATOM     15  N   UNL     1      -0.431  13.980  19.688  0.00  0.00    +0.000 NA
ATOM     16  N   UNL     1       0.574  14.628  20.365  0.00  0.00    +0.000 NA
ATOM     17  C   UNL     1       1.716  14.160  19.926  0.00  0.00    +0.000 A 
ATOM     18  N   UNL     1       1.483  13.227  18.961  0.00  0.00    +0.000 N 
ATOM     19  C   UNL     1       2.502  12.501  18.253  0.00  0.00    +0.000 C 
ENDBRANCH  13  14
ENDBRANCH   7  13
ENDBRANCH   5   7
BRANCH   1  22
ATOM     20  C   UNL     1       2.024   6.337  20.206  0.00  0.00    +0.000 C 
ATOM     21  O   UNL     1       1.092   5.806  20.811  0.00  0.00    +0.000 OA
ATOM     22  N   UNL     1       2.165   7.693  19.963  0.00  0.00    +0.000 N 
ATOM     23  H   UNL     1       2.923   7.953  19.334  0.00  0.00    +0.000 HD
BRANCH  20  27
ATOM     24  C   UNL     1       3.660   1.845  18.885  0.00  0.00    +0.000 C 
ATOM     25  C   UNL     1       3.820   3.325  19.039  0.00  0.00    +0.000 A 
ATOM     26  C   UNL     1       2.817   4.103  19.549  0.00  0.00    +0.000 A 
ATOM     27  C   UNL     1       3.089   5.454  19.636  0.00  0.00    +0.000 A 
ATOM     28  N   UNL     1       4.246   6.032  19.236  0.00  0.00    +0.000 NA
ATOM     29  C   UNL     1       5.172   5.191  18.729  0.00  0.00    +0.000 A 
ATOM     30  N   UNL     1       4.988   3.855  18.634  0.00  0.00    +0.000 NA
BRANCH  29  31
ATOM     31  C   UNL     1       6.488   5.710  18.205  0.00  0.00    +0.000 C 
ATOM     32  C   UNL     1       7.681   5.704  19.139  0.00  0.00    +0.000 C 
ATOM     33  C   UNL     1       7.677   4.829  17.922  0.00  0.00    +0.000 C 
ENDBRANCH  29  31
ENDBRANCH  20  27
ENDBRANCH   1  22
TORSDOF 6
ENDMDL
MODEL 8
REMARK VINA RESULT:      -8.6      1.206      2.172
REMARK  Name = 
REMARK  8 active torsions:
REMARK  status: ('A' for Active; 'I' for Inactive)
REMARK    1  A    between atoms: C_1  and  C_2
REMARK    2  A    between atoms: C_4  and  C_5
REMARK    3  A    between atoms: N_7  and  C_8
REMARK    4  A    between atoms: C_12  and  C_13
REMARK    5  A    between atoms: C_13  and  C_14
REMARK    6  A    between atoms: C_14  and  C_15
REMARK    7  A    between atoms: N_19  and  C_20
REMARK    8  A    between atoms: C_28  and  C_29
REMARK                            x       y       z     vdW  Elec       q    Type
REMARK                         _______ _______ _______ _____ _____    ______ ____
ROOT
ATOM      1  C   UNL     1       2.853   6.349  18.934  0.00  0.00    +0.000 A 
ATOM      2  C   UNL     1       2.380   5.273  19.686  0.00  0.00    +0.000 A 
ATOM      3  C   UNL     1       2.804   3.975  19.413  0.00  0.00    +0.000 A 
ATOM      4  C   UNL     1       3.728   3.748  18.394  0.00  0.00    +0.000 A 
ATOM      5  C   UNL     1       4.254   4.803  17.626  0.00  0.00    +0.000 A 
ATOM      6  C   UNL     1       3.760   6.101  17.900  0.00  0.00    +0.000 A 
ENDROOT
BRANCH   5   7
ATOM      7  C   UNL     1       5.408   4.549  16.527  0.00  0.00    +0.000 C 
ATOM      8  C   UNL     1       5.158   3.383  15.502  0.00  0.00    +0.000 C 
ATOM      9  C   UNL     1       5.635   4.305  14.364  0.00  0.00    +0.000 C 
ATOM     10  F   UNL     1       4.922   4.240  13.219  0.00  0.00    +0.000 F 
ATOM     11  F   UNL     1       6.936   4.188  14.018  0.00  0.00    +0.000 F 
ATOM     12  C   UNL     1       5.312   5.502  15.275  0.00  0.00    +0.000 C 
BRANCH   7  13
ATOM     13  C   UNL     1       6.802   4.566  17.200  0.00  0.00    +0.000 C 
BRANCH  13  14
ATOM     14  C   UNL     1       7.348   5.934  17.464  0.00  0.00    +0.000 A 
ATOM     15  N   UNL     1       7.415   6.923  16.592  0.00  0.00    +0.000 NA
ATOM     16  N   UNL     1       7.925   8.030  17.228  0.00  0.00    +0.000 NA
ATOM     17  C   UNL     1       8.158   7.700  18.475  0.00  0.00    +0.000 A 
ATOM     18  N   UNL     1       7.825   6.393  18.668  0.00  0.00    +0.000 N 
ATOM     19  C   UNL     1       7.948   5.687  19.914  0.00  0.00    +0.000 C 
ENDBRANCH  13  14
ENDBRANCH   7  13
ENDBRANCH   5   7
BRANCH   1  22
ATOM     20  C   UNL     1       1.691   8.465  18.340  0.00  0.00    +0.000 C 
ATOM     21  O   UNL     1       1.192   8.101  17.275  0.00  0.00    +0.000 OA
ATOM     22  N   UNL     1       2.469   7.686  19.179  0.00  0.00    +0.000 N 
ATOM     23  H   UNL     1       2.693   8.097  20.084  0.00  0.00    +0.000 HD
BRANCH  20  27
ATOM     24  C   UNL     1       2.633  13.334  18.239  0.00  0.00    +0.000 C 
ATOM     25  C   UNL     1       1.892  12.134  18.739  0.00  0.00    +0.000 A 
ATOM     26  C   UNL     1       2.166  10.878  18.273  0.00  0.00    +0.000 A 
ATOM     27  C   UNL     1       1.409   9.857  18.812  0.00  0.00    +0.000 A 
ATOM     28  N   UNL     1       0.429  10.031  19.729  0.00  0.00    +0.000 NA
ATOM     29  C   UNL     1       0.214  11.304  20.119  0.00  0.00    +0.000 A 
ATOM     30  N   UNL     1       0.930  12.353  19.655  0.00  0.00    +0.000 NA
BRANCH  29  31
ATOM     31  C   UNL     1      -0.879  11.642  21.103  0.00  0.00    +0.000 C 
ATOM     32  C   UNL     1      -0.666  11.282  22.559  0.00  0.00    +0.000 C 
ATOM     33  C   UNL     1      -0.754  12.721  22.147  0.00  0.00    +0.000 C 
ENDBRANCH  29  31
ENDBRANCH  20  27
ENDBRANCH   1  22
TORSDOF 6
ENDMDL
MODEL 9
REMARK VINA RESULT:      -8.5      2.804      4.520
REMARK  Name = 
REMARK  8 active torsions:
REMARK  status: ('A' for Active; 'I' for Inactive)
REMARK    1  A    between atoms: C_1  and  C_2
REMARK    2  A    between atoms: C_4  and  C_5
REMARK    3  A    between atoms: N_7  and  C_8
REMARK    4  A    between atoms: C_12  and  C_13
REMARK    5  A    between atoms: C_13  and  C_14
REMARK    6  A    between atoms: C_14  and  C_15
REMARK    7  A    between atoms: N_19  and  C_20
REMARK    8  A    between atoms: C_28  and  C_29
REMARK                            x       y       z     vdW  Elec       q    Type
REMARK                         _______ _______ _______ _____ _____    ______ ____
ROOT
ATOM      1  C   UNL     1       2.051   7.476  19.181  0.00  0.00    +0.000 A 
ATOM      2  C   UNL     1       1.971   6.880  20.440  0.00  0.00    +0.000 A 
ATOM      3  C   UNL     1       2.690   5.722  20.726  0.00  0.00    +0.000 A 
ATOM      4  C   UNL     1       3.518   5.164  19.755  0.00  0.00    +0.000 A 
ATOM      5  C   UNL     1       3.654   5.743  18.478  0.00  0.00    +0.000 A 
ATOM      6  C   UNL     1       2.867   6.888  18.210  0.00  0.00    +0.000 A 
ENDROOT
BRANCH   5   7
ATOM      7  C   UNL     1       4.701   5.160  17.398  0.00  0.00    +0.000 C 
ATOM      8  C   UNL     1       5.311   6.193  16.382  0.00  0.00    +0.000 C 
ATOM      9  C   UNL     1       6.702   5.572  16.614  0.00  0.00    +0.000 C 
ATOM     10  F   UNL     1       7.726   6.447  16.715  0.00  0.00    +0.000 F 
ATOM     11  F   UNL     1       7.083   4.631  15.723  0.00  0.00    +0.000 F 
ATOM     12  C   UNL     1       6.171   5.023  17.950  0.00  0.00    +0.000 C 
BRANCH   7  13
ATOM     13  C   UNL     1       4.158   3.849  16.780  0.00  0.00    +0.000 C 
BRANCH  13  14
ATOM     14  C   UNL     1       2.937   3.303  17.452  0.00  0.00    +0.000 A 
ATOM     15  N   UNL     1       1.696   3.706  17.251  0.00  0.00    +0.000 NA
ATOM     16  N   UNL     1       0.857   2.926  18.010  0.00  0.00    +0.000 NA
ATOM     17  C   UNL     1       1.597   2.059  18.658  0.00  0.00    +0.000 A 
ATOM     18  N   UNL     1       2.908   2.265  18.352  0.00  0.00    +0.000 N 
ATOM     19  C   UNL     1       4.006   1.500  18.877  0.00  0.00    +0.000 C 
ENDBRANCH  13  14
ENDBRANCH   7  13
ENDBRANCH   5   7
BRANCH   1  22
ATOM     20  C   UNL     1       0.937   9.627  19.738  0.00  0.00    +0.000 C 
ATOM     21  O   UNL     1       1.133   9.618  20.954  0.00  0.00    +0.000 OA
ATOM     22  N   UNL     1       1.357   8.658  18.843  0.00  0.00    +0.000 N 
ATOM     23  H   UNL     1       1.229   8.882  17.857  0.00  0.00    +0.000 HD
BRANCH  20  27
ATOM     24  C   UNL     1       0.628  14.495  18.839  0.00  0.00    +0.000 C 
ATOM     25  C   UNL     1       0.111  13.093  18.757  0.00  0.00    +0.000 A 
ATOM     26  C   UNL     1       0.803  12.043  19.295  0.00  0.00    +0.000 A 
ATOM     27  C   UNL     1       0.220  10.800  19.148  0.00  0.00    +0.000 A 
ATOM     28  N   UNL     1      -0.949  10.571  18.504  0.00  0.00    +0.000 NA
ATOM     29  C   UNL     1      -1.554  11.662  17.989  0.00  0.00    +0.000 A 
ATOM     30  N   UNL     1      -1.057  12.913  18.113  0.00  0.00    +0.000 NA
BRANCH  29  31
ATOM     31  C   UNL     1      -2.839  11.542  17.208  0.00  0.00    +0.000 C 
ATOM     32  C   UNL     1      -2.773  10.964  15.809  0.00  0.00    +0.000 C 
ATOM     33  C   UNL     1      -3.501  10.225  16.893  0.00  0.00    +0.000 C 
ENDBRANCH  29  31
ENDBRANCH  20  27
ENDBRANCH   1  22
TORSDOF 6
ENDMDL
