MODEL 1
REMARK VINA RESULT:      -8.5      0.000      0.000
REMARK  Name = 
REMARK  9 active torsions:
REMARK  status: ('A' for Active; 'I' for Inactive)
REMARK    1  A    between atoms: C_1  and  C_2
REMARK    2  A    between atoms: C_4  and  C_5
REMARK    3  A    between atoms: N_7  and  C_8
REMARK    4  A    between atoms: C_12  and  C_13
REMARK    5  A    between atoms: C_13  and  C_14
REMARK    6  A    between atoms: C_13  and  C_16
REMARK    7  A    between atoms: C_16  and  C_19
REMARK    8  A    between atoms: N_23  and  C_24
REMARK    9  A    between atoms: C_27  and  C_28
REMARK                            x       y       z     vdW  Elec       q    Type
REMARK                         _______ _______ _______ _____ _____    ______ ____
ROOT
ATOM      1  C   UNL     1       2.883   5.998  18.656  0.00  0.00    +0.000 A 
ATOM      2  C   UNL     1       2.627   4.672  19.018  0.00  0.00    +0.000 A 
ATOM      3  C   UNL     1       3.162   3.613  18.287  0.00  0.00    +0.000 A 
ATOM      4  C   UNL     1       3.989   3.867  17.198  0.00  0.00    +0.000 A 
ATOM      5  C   UNL     1       4.289   5.188  16.815  0.00  0.00    +0.000 A 
ATOM      6  C   UNL     1       3.689   6.247  17.533  0.00  0.00    +0.000 A 
ENDROOT
BRANCH   1   9
ATOM      7  C   UNL     1       1.754   8.213  18.859  0.00  0.00    +0.000 C 
ATOM      8  O   UNL     1       1.481   8.386  17.673  0.00  0.00    +0.000 OA
ATOM      9  N   UNL     1       2.386   7.100  19.394  0.00  0.00    +0.000 N 
ATOM     10  H   UNL     1       2.416   7.053  20.409  0.00  0.00    +0.000 HD
BRANCH   7  14
ATOM     11  C   UNL     1      -0.031   9.519  23.304  0.00  0.00    +0.000 C 
ATOM     12  C   UNL     1       0.478   9.839  21.932  0.00  0.00    +0.000 A 
ATOM     13  C   UNL     1       0.864   8.849  21.067  0.00  0.00    +0.000 A 
ATOM     14  C   UNL     1       1.334   9.267  19.838  0.00  0.00    +0.000 A 
ATOM     15  N   UNL     1       1.456  10.565  19.469  0.00  0.00    +0.000 NA
ATOM     16  C   UNL     1       1.060  11.475  20.385  0.00  0.00    +0.000 A 
ATOM     17  N   UNL     1       0.565  11.140  21.599  0.00  0.00    +0.000 NA
BRANCH  16  18
ATOM     18  C   UNL     1       1.260  12.949  20.128  0.00  0.00    +0.000 C 
ATOM     19  C   UNL     1       1.184  13.980  21.226  0.00  0.00    +0.000 C 
ATOM     20  C   UNL     1       2.513  13.648  20.612  0.00  0.00    +0.000 C 
ENDBRANCH  16  18
ENDBRANCH   7  14
ENDBRANCH   1   9
BRANCH   5  21
ATOM     21  C   UNL     1       5.406   5.400  15.785  0.00  0.00    +0.000 C 
ATOM     22  C   UNL     1       4.974   4.576  14.550  0.00  0.00    +0.000 C 
ATOM     23  F   UNL     1       5.435   6.718  15.365  0.00  0.00    +0.000 F 
BRANCH  21  24
ATOM     24  C   UNL     1       6.864   5.030  16.162  0.00  0.00    +0.000 C 
ATOM     25  F   UNL     1       7.069   3.697  15.924  0.00  0.00    +0.000 F 
ATOM     26  F   UNL     1       7.711   5.658  15.281  0.00  0.00    +0.000 F 
BRANCH  24  27
ATOM     27  C   UNL     1       7.267   5.368  17.564  0.00  0.00    +0.000 A 
ATOM     28  N   UNL     1       7.448   4.494  18.541  0.00  0.00    +0.000 NA
ATOM     29  N   UNL     1       7.947   5.164  19.632  0.00  0.00    +0.000 NA
ATOM     30  C   UNL     1       8.066   6.425  19.313  0.00  0.00    +0.000 A 
ATOM     31  N   UNL     1       7.626   6.613  18.029  0.00  0.00    +0.000 N 
ATOM     32  C   UNL     1       7.611   7.886  17.362  0.00  0.00    +0.000 C 
ENDBRANCH  24  27
ENDBRANCH  21  24
ENDBRANCH   5  21
TORSDOF 6
ENDMDL
MODEL 2
REMARK VINA RESULT:      -8.3      1.170      1.442
REMARK  Name = 
REMARK  9 active torsions:
REMARK  status: ('A' for Active; 'I' for Inactive)
REMARK    1  A    between atoms: C_1  and  C_2
REMARK    2  A    between atoms: C_4  and  C_5
REMARK    3  A    between atoms: N_7  and  C_8
REMARK    4  A    between atoms: C_12  and  C_13
REMARK    5  A    between atoms: C_13  and  C_14
REMARK    6  A    between atoms: C_13  and  C_16
REMARK    7  A    between atoms: C_16  and  C_19
REMARK    8  A    between atoms: N_23  and  C_24
REMARK    9  A    between atoms: C_27  and  C_28
REMARK                            x       y       z     vdW  Elec       q    Type
REMARK                         _______ _______ _______ _____ _____    ______ ____
ROOT
ATOM      1  C   UNL     1       2.865   5.592  18.812  0.00  0.00    +0.000 A 
ATOM      2  C   UNL     1       2.983   4.319  19.380  0.00  0.00    +0.000 A 
ATOM      3  C   UNL     1       3.759   3.332  18.774  0.00  0.00    +0.000 A 
ATOM      4  C   UNL     1       4.457   3.617  17.605  0.00  0.00    +0.000 A 
ATOM      5  C   UNL     1       4.383   4.893  17.016  0.00  0.00    +0.000 A 
ATOM      6  C   UNL     1       3.544   5.860  17.612  0.00  0.00    +0.000 A 
ENDROOT
BRANCH   1   9
ATOM      7  C   UNL     1       2.097   7.956  19.010  0.00  0.00    +0.000 C 
ATOM      8  O   UNL     1       2.684   8.419  18.035  0.00  0.00    +0.000 OA
ATOM      9  N   UNL     1       2.115   6.629  19.417  0.00  0.00    +0.000 N 
ATOM     10  H   UNL     1       1.468   6.386  20.162  0.00  0.00    +0.000 HD
BRANCH   7  14
ATOM     11  C   UNL     1       0.190   9.374  23.370  0.00  0.00    +0.000 C 
ATOM     12  C   UNL     1       0.354   9.507  21.886  0.00  0.00    +0.000 A 
ATOM     13  C   UNL     1       1.154   8.649  21.179  0.00  0.00    +0.000 A 
ATOM     14  C   UNL     1       1.242   8.882  19.821  0.00  0.00    +0.000 A 
ATOM     15  N   UNL     1       0.620   9.901  19.180  0.00  0.00    +0.000 NA
ATOM     16  C   UNL     1      -0.141  10.704  19.955  0.00  0.00    +0.000 A 
ATOM     17  N   UNL     1      -0.297  10.522  21.286  0.00  0.00    +0.000 NA
BRANCH  16  18
ATOM     18  C   UNL     1      -0.784  11.937  19.369  0.00  0.00    +0.000 C 
ATOM     19  C   UNL     1      -1.450  11.938  18.016  0.00  0.00    +0.000 C 
ATOM     20  C   UNL     1      -2.290  12.036  19.255  0.00  0.00    +0.000 C 
ENDBRANCH  16  18
ENDBRANCH   7  14
ENDBRANCH   1   9
BRANCH   5  21
ATOM     21  C   UNL     1       5.373   5.221  15.890  0.00  0.00    +0.000 C 
ATOM     22  C   UNL     1       4.946   4.325  14.705  0.00  0.00    +0.000 C 
ATOM     23  F   UNL     1       5.201   6.524  15.457  0.00  0.00    +0.000 F 
BRANCH  21  24
ATOM     24  C   UNL     1       6.893   5.044  16.143  0.00  0.00    +0.000 C 
ATOM     25  F   UNL     1       7.259   3.764  15.821  0.00  0.00    +0.000 F 
ATOM     26  F   UNL     1       7.575   5.821  15.239  0.00  0.00    +0.000 F 
BRANCH  24  27
ATOM     27  C   UNL     1       7.353   5.375  17.529  0.00  0.00    +0.000 A 
ATOM     28  N   UNL     1       7.704   4.493  18.451  0.00  0.00    +0.000 NA
ATOM     29  N   UNL     1       8.199   5.177  19.536  0.00  0.00    +0.000 NA
ATOM     30  C   UNL     1       8.147   6.453  19.267  0.00  0.00    +0.000 A 
ATOM     31  N   UNL     1       7.598   6.636  18.025  0.00  0.00    +0.000 N 
ATOM     32  C   UNL     1       7.388   7.922  17.419  0.00  0.00    +0.000 C 
ENDBRANCH  24  27
ENDBRANCH  21  24
ENDBRANCH   5  21
TORSDOF 6
ENDMDL
MODEL 3
REMARK VINA RESULT:      -8.3      3.985      8.553
REMARK  Name = 
REMARK  9 active torsions:
REMARK  status: ('A' for Active; 'I' for Inactive)
REMARK    1  A    between atoms: C_1  and  C_2
REMARK    2  A    between atoms: C_4  and  C_5
REMARK    3  A    between atoms: N_7  and  C_8
REMARK    4  A    between atoms: C_12  and  C_13
REMARK    5  A    between atoms: C_13  and  C_14
REMARK    6  A    between atoms: C_13  and  C_16
REMARK    7  A    between atoms: C_16  and  C_19
REMARK    8  A    between atoms: N_23  and  C_24
REMARK    9  A    between atoms: C_27  and  C_28
REMARK                            x       y       z     vdW  Elec       q    Type
REMARK                         _______ _______ _______ _____ _____    ______ ____
ROOT
ATOM      1  C   UNL     1       1.407   8.491  20.631  0.00  0.00    +0.000 A 
ATOM      2  C   UNL     1       1.110   8.601  21.993  0.00  0.00    +0.000 A 
ATOM      3  C   UNL     1       0.246   9.590  22.460  0.00  0.00    +0.000 A 
ATOM      4  C   UNL     1      -0.359  10.465  21.564  0.00  0.00    +0.000 A 
ATOM      5  C   UNL     1      -0.103  10.372  20.183  0.00  0.00    +0.000 A 
ATOM      6  C   UNL     1       0.821   9.401  19.736  0.00  0.00    +0.000 A 
ENDROOT
BRANCH   1   9
ATOM      7  C   UNL     1       2.037   6.112  20.226  0.00  0.00    +0.000 C 
ATOM      8  O   UNL     1       1.057   5.575  20.739  0.00  0.00    +0.000 OA
ATOM      9  N   UNL     1       2.252   7.478  20.115  0.00  0.00    +0.000 N 
ATOM     10  H   UNL     1       3.045   7.755  19.544  0.00  0.00    +0.000 HD
BRANCH   7  14
ATOM     11  C   UNL     1       3.361   1.864  18.022  0.00  0.00    +0.000 C 
ATOM     12  C   UNL     1       3.668   3.212  18.599  0.00  0.00    +0.000 A 
ATOM     13  C   UNL     1       2.683   3.998  19.135  0.00  0.00    +0.000 A 
ATOM     14  C   UNL     1       3.084   5.228  19.620  0.00  0.00    +0.000 A 
ATOM     15  N   UNL     1       4.356   5.691  19.566  0.00  0.00    +0.000 NA
ATOM     16  C   UNL     1       5.262   4.854  19.014  0.00  0.00    +0.000 A 
ATOM     17  N   UNL     1       4.949   3.626  18.542  0.00  0.00    +0.000 NA
BRANCH  16  18
ATOM     18  C   UNL     1       6.683   5.312  18.795  0.00  0.00    +0.000 C 
ATOM     19  C   UNL     1       7.566   4.727  17.721  0.00  0.00    +0.000 C 
ATOM     20  C   UNL     1       7.047   6.127  17.572  0.00  0.00    +0.000 C 
ENDBRANCH  16  18
ENDBRANCH   7  14
ENDBRANCH   1   9
BRANCH   5  21
ATOM     21  C   UNL     1      -0.994  11.182  19.232  0.00  0.00    +0.000 C 
ATOM     22  C   UNL     1      -1.081  10.334  17.943  0.00  0.00    +0.000 C 
ATOM     23  F   UNL     1      -2.286  11.254  19.722  0.00  0.00    +0.000 F 
BRANCH  21  24
ATOM     24  C   UNL     1      -0.586  12.632  18.864  0.00  0.00    +0.000 C 
ATOM     25  F   UNL     1      -0.926  12.880  17.560  0.00  0.00    +0.000 F 
ATOM     26  F   UNL     1      -1.373  13.498  19.583  0.00  0.00    +0.000 F 
BRANCH  24  27
ATOM     27  C   UNL     1       0.855  12.968  19.090  0.00  0.00    +0.000 A 
ATOM     28  N   UNL     1       1.821  12.841  18.193  0.00  0.00    +0.000 NA
ATOM     29  N   UNL     1       2.971  13.378  18.721  0.00  0.00    +0.000 NA
ATOM     30  C   UNL     1       2.698  13.823  19.918  0.00  0.00    +0.000 A 
ATOM     31  N   UNL     1       1.385  13.566  20.211  0.00  0.00    +0.000 N 
ATOM     32  C   UNL     1       0.754  13.918  21.454  0.00  0.00    +0.000 C 
ENDBRANCH  24  27
ENDBRANCH  21  24
ENDBRANCH   5  21
TORSDOF 6
ENDMDL
MODEL 4
REMARK VINA RESULT:      -8.2      2.729      3.623
REMARK  Name = 
REMARK  9 active torsions:
REMARK  status: ('A' for Active; 'I' for Inactive)
REMARK    1  A    between atoms: C_1  and  C_2
REMARK    2  A    between atoms: C_4  and  C_5
REMARK    3  A    between atoms: N_7  and  C_8
REMARK    4  A    between atoms: C_12  and  C_13
REMARK    5  A    between atoms: C_13  and  C_14
REMARK    6  A    between atoms: C_13  and  C_16
REMARK    7  A    between atoms: C_16  and  C_19
REMARK    8  A    between atoms: N_23  and  C_24
REMARK    9  A    between atoms: C_27  and  C_28
REMARK                            x       y       z     vdW  Elec       q    Type
REMARK                         _______ _______ _______ _____ _____    ______ ____
ROOT
ATOM      1  C   UNL     1       2.863   6.574  18.947  0.00  0.00    +0.000 A 
ATOM      2  C   UNL     1       3.098   5.545  19.864  0.00  0.00    +0.000 A 
ATOM      3  C   UNL     1       4.091   4.593  19.636  0.00  0.00    +0.000 A 
ATOM      4  C   UNL     1       4.886   4.677  18.497  0.00  0.00    +0.000 A 
ATOM      5  C   UNL     1       4.695   5.712  17.562  0.00  0.00    +0.000 A 
ATOM      6  C   UNL     1       3.646   6.631  17.782  0.00  0.00    +0.000 A 
ENDROOT
BRANCH   1   9
ATOM      7  C   UNL     1       1.745   8.738  18.413  0.00  0.00    +0.000 C 
ATOM      8  O   UNL     1       2.403   9.043  17.421  0.00  0.00    +0.000 OA
ATOM      9  N   UNL     1       1.888   7.579  19.161  0.00  0.00    +0.000 N 
ATOM     10  H   UNL     1       1.176   7.417  19.868  0.00  0.00    +0.000 HD
BRANCH   7  14
ATOM     11  C   UNL     1      -0.379  11.609  21.864  0.00  0.00    +0.000 C 
ATOM     12  C   UNL     1      -0.323  10.995  20.498  0.00  0.00    +0.000 A 
ATOM     13  C   UNL     1       0.698  10.158  20.134  0.00  0.00    +0.000 A 
ATOM     14  C   UNL     1       0.652   9.669  18.844  0.00  0.00    +0.000 A 
ATOM     15  N   UNL     1      -0.305   9.991  17.940  0.00  0.00    +0.000 NA
ATOM     16  C   UNL     1      -1.269  10.829  18.380  0.00  0.00    +0.000 A 
ATOM     17  N   UNL     1      -1.304  11.326  19.637  0.00  0.00    +0.000 NA
BRANCH  16  18
ATOM     18  C   UNL     1      -2.318  11.347  17.426  0.00  0.00    +0.000 C 
ATOM     19  C   UNL     1      -2.601  10.688  16.099  0.00  0.00    +0.000 C 
ATOM     20  C   UNL     1      -3.604  10.578  17.210  0.00  0.00    +0.000 C 
ENDBRANCH  16  18
ENDBRANCH   7  14
ENDBRANCH   1   9
BRANCH   5  21
ATOM     21  C   UNL     1       5.764   5.903  16.477  0.00  0.00    +0.000 C 
ATOM     22  C   UNL     1       5.096   6.799  15.409  0.00  0.00    +0.000 C 
ATOM     23  F   UNL     1       6.830   6.635  16.969  0.00  0.00    +0.000 F 
BRANCH  21  24
ATOM     24  C   UNL     1       6.375   4.655  15.788  0.00  0.00    +0.000 C 
ATOM     25  F   UNL     1       7.316   4.098  16.612  0.00  0.00    +0.000 F 
ATOM     26  F   UNL     1       5.400   3.690  15.697  0.00  0.00    +0.000 F 
BRANCH  24  27
ATOM     27  C   UNL     1       6.961   4.896  14.431  0.00  0.00    +0.000 A 
ATOM     28  N   UNL     1       8.039   5.622  14.180  0.00  0.00    +0.000 NA
ATOM     29  N   UNL     1       8.344   5.494  12.846  0.00  0.00    +0.000 NA
ATOM     30  C   UNL     1       7.461   4.700  12.304  0.00  0.00    +0.000 A 
ATOM     31  N   UNL     1       6.550   4.315  13.252  0.00  0.00    +0.000 N 
ATOM     32  C   UNL     1       5.436   3.444  12.992  0.00  0.00    +0.000 C 
ENDBRANCH  24  27
ENDBRANCH  21  24
ENDBRANCH   5  21
TORSDOF 6
ENDMDL
MODEL 5
REMARK VINA RESULT:      -8.1      3.618      8.845
REMARK  Name = 
REMARK  9 active torsions:
REMARK  status: ('A' for Active; 'I' for Inactive)
REMARK    1  A    between atoms: C_1  and  C_2
REMARK    2  A    between atoms: C_4  and  C_5
REMARK    3  A    between atoms: N_7  and  C_8
REMARK    4  A    between atoms: C_12  and  C_13
REMARK    5  A    between atoms: C_13  and  C_14
REMARK    6  A    between atoms: C_13  and  C_16
REMARK    7  A    between atoms: C_16  and  C_19
REMARK    8  A    between atoms: N_23  and  C_24
REMARK    9  A    between atoms: C_27  and  C_28
REMARK                            x       y       z     vdW  Elec       q    Type
REMARK                         _______ _______ _______ _____ _____    ______ ____
ROOT
ATOM      1  C   UNL     1       1.432   8.425  20.643  0.00  0.00    +0.000 A 
ATOM      2  C   UNL     1       1.065   8.490  21.991  0.00  0.00    +0.000 A 
ATOM      3  C   UNL     1       0.198   9.479  22.451  0.00  0.00    +0.000 A 
ATOM      4  C   UNL     1      -0.341  10.401  21.560  0.00  0.00    +0.000 A 
ATOM      5  C   UNL     1      -0.015  10.354  20.192  0.00  0.00    +0.000 A 
ATOM      6  C   UNL     1       0.912   9.381  19.755  0.00  0.00    +0.000 A 
ENDROOT
BRANCH   1   9
ATOM      7  C   UNL     1       2.059   6.048  20.224  0.00  0.00    +0.000 C 
ATOM      8  O   UNL     1       1.068   5.510  20.712  0.00  0.00    +0.000 OA
ATOM      9  N   UNL     1       2.282   7.414  20.132  0.00  0.00    +0.000 N 
ATOM     10  H   UNL     1       3.088   7.695  19.580  0.00  0.00    +0.000 HD
BRANCH   7  14
ATOM     11  C   UNL     1       3.426   1.779  18.088  0.00  0.00    +0.000 C 
ATOM     12  C   UNL     1       3.719   3.140  18.641  0.00  0.00    +0.000 A 
ATOM     13  C   UNL     1       2.727   3.924  19.167  0.00  0.00    +0.000 A 
ATOM     14  C   UNL     1       3.115   5.166  19.628  0.00  0.00    +0.000 A 
ATOM     15  N   UNL     1       4.381   5.644  19.560  0.00  0.00    +0.000 NA
ATOM     16  C   UNL     1       5.294   4.809  19.019  0.00  0.00    +0.000 A 
ATOM     17  N   UNL     1       4.994   3.568  18.570  0.00  0.00    +0.000 NA
BRANCH  16  18
ATOM     18  C   UNL     1       6.709   5.280  18.785  0.00  0.00    +0.000 C 
ATOM     19  C   UNL     1       7.580   4.715  17.692  0.00  0.00    +0.000 C 
ATOM     20  C   UNL     1       7.048   6.112  17.567  0.00  0.00    +0.000 C 
ENDBRANCH  16  18
ENDBRANCH   7  14
ENDBRANCH   1   9
BRANCH   5  21
ATOM     21  C   UNL     1      -0.838  11.220  19.228  0.00  0.00    +0.000 C 
ATOM     22  C   UNL     1      -1.133  10.304  18.018  0.00  0.00    +0.000 C 
ATOM     23  F   UNL     1      -2.071  11.521  19.780  0.00  0.00    +0.000 F 
BRANCH  21  24
ATOM     24  C   UNL     1      -0.248  12.561  18.721  0.00  0.00    +0.000 C 
ATOM     25  F   UNL     1       0.996  12.337  18.193  0.00  0.00    +0.000 F 
ATOM     26  F   UNL     1      -0.994  12.984  17.648  0.00  0.00    +0.000 F 
BRANCH  24  27
ATOM     27  C   UNL     1      -0.182  13.656  19.741  0.00  0.00    +0.000 A 
ATOM     28  N   UNL     1      -1.167  14.489  20.036  0.00  0.00    +0.000 NA
ATOM     29  N   UNL     1      -0.779  15.253  21.110  0.00  0.00    +0.000 NA
ATOM     30  C   UNL     1       0.424  14.881  21.458  0.00  0.00    +0.000 A 
ATOM     31  N   UNL     1       0.858  13.895  20.612  0.00  0.00    +0.000 N 
ATOM     32  C   UNL     1       2.146  13.263  20.706  0.00  0.00    +0.000 C 
ENDBRANCH  24  27
ENDBRANCH  21  24
ENDBRANCH   5  21
TORSDOF 6
ENDMDL
MODEL 6
REMARK VINA RESULT:      -8.1      2.306      3.452
REMARK  Name = 
REMARK  9 active torsions:
REMARK  status: ('A' for Active; 'I' for Inactive)
REMARK    1  A    between atoms: C_1  and  C_2
REMARK    2  A    between atoms: C_4  and  C_5
REMARK    3  A    between atoms: N_7  and  C_8
REMARK    4  A    between atoms: C_12  and  C_13
REMARK    5  A    between atoms: C_13  and  C_14
REMARK    6  A    between atoms: C_13  and  C_16
REMARK    7  A    between atoms: C_16  and  C_19
REMARK    8  A    between atoms: N_23  and  C_24
REMARK    9  A    between atoms: C_27  and  C_28
REMARK                            x       y       z     vdW  Elec       q    Type
REMARK                         _______ _______ _______ _____ _____    ______ ____
ROOT
ATOM      1  C   UNL     1       2.803   6.319  19.045  0.00  0.00    +0.000 A 
ATOM      2  C   UNL     1       2.922   5.216  19.896  0.00  0.00    +0.000 A 
ATOM      3  C   UNL     1       3.815   4.184  19.612  0.00  0.00    +0.000 A 
ATOM      4  C   UNL     1       4.627   4.258  18.485  0.00  0.00    +0.000 A 
ATOM      5  C   UNL     1       4.554   5.363  17.616  0.00  0.00    +0.000 A 
ATOM      6  C   UNL     1       3.600   6.369  17.889  0.00  0.00    +0.000 A 
ENDROOT
BRANCH   1   9
ATOM      7  C   UNL     1       1.799   8.547  18.544  0.00  0.00    +0.000 C 
ATOM      8  O   UNL     1       2.372   8.768  17.480  0.00  0.00    +0.000 OA
ATOM      9  N   UNL     1       1.933   7.403  19.318  0.00  0.00    +0.000 N 
ATOM     10  H   UNL     1       1.288   7.318  20.098  0.00  0.00    +0.000 HD
BRANCH   7  14
ATOM     11  C   UNL     1      -1.946  11.709  17.751  0.00  0.00    +0.000 C 
ATOM     12  C   UNL     1      -0.921  11.058  18.629  0.00  0.00    +0.000 A 
ATOM     13  C   UNL     1      -0.058  10.115  18.138  0.00  0.00    +0.000 A 
ATOM     14  C   UNL     1       0.829   9.572  19.046  0.00  0.00    +0.000 A 
ATOM     15  N   UNL     1       0.866   9.895  20.362  0.00  0.00    +0.000 NA
ATOM     16  C   UNL     1      -0.026  10.827  20.763  0.00  0.00    +0.000 A 
ATOM     17  N   UNL     1      -0.907  11.421  19.926  0.00  0.00    +0.000 NA
BRANCH  16  18
ATOM     18  C   UNL     1      -0.153  11.176  22.226  0.00  0.00    +0.000 C 
ATOM     19  C   UNL     1      -1.455  11.624  22.840  0.00  0.00    +0.000 C 
ATOM     20  C   UNL     1      -0.911  10.265  23.168  0.00  0.00    +0.000 C 
ENDBRANCH  16  18
ENDBRANCH   7  14
ENDBRANCH   1   9
BRANCH   5  21
ATOM     21  C   UNL     1       5.648   5.511  16.551  0.00  0.00    +0.000 C 
ATOM     22  C   UNL     1       5.326   6.838  15.827  0.00  0.00    +0.000 C 
ATOM     23  F   UNL     1       6.883   5.698  17.147  0.00  0.00    +0.000 F 
BRANCH  21  24
ATOM     24  C   UNL     1       5.838   4.388  15.499  0.00  0.00    +0.000 C 
ATOM     25  F   UNL     1       6.335   3.270  16.115  0.00  0.00    +0.000 F 
ATOM     26  F   UNL     1       4.598   3.999  15.053  0.00  0.00    +0.000 F 
BRANCH  24  27
ATOM     27  C   UNL     1       6.696   4.749  14.325  0.00  0.00    +0.000 A 
ATOM     28  N   UNL     1       7.766   5.527  14.369  0.00  0.00    +0.000 NA
ATOM     29  N   UNL     1       8.363   5.509  13.131  0.00  0.00    +0.000 NA
ATOM     30  C   UNL     1       7.660   4.729  12.355  0.00  0.00    +0.000 A 
ATOM     31  N   UNL     1       6.583   4.244  13.049  0.00  0.00    +0.000 N 
ATOM     32  C   UNL     1       5.597   3.359  12.491  0.00  0.00    +0.000 C 
ENDBRANCH  24  27
ENDBRANCH  21  24
ENDBRANCH   5  21
TORSDOF 6
ENDMDL
MODEL 7
REMARK VINA RESULT:      -8.1      0.839      1.382
REMARK  Name = 
REMARK  9 active torsions:
REMARK  status: ('A' for Active; 'I' for Inactive)
REMARK    1  A    between atoms: C_1  and  C_2
REMARK    2  A    between atoms: C_4  and  C_5
REMARK    3  A    between atoms: N_7  and  C_8
REMARK    4  A    between atoms: C_12  and  C_13
REMARK    5  A    between atoms: C_13  and  C_14
REMARK    6  A    between atoms: C_13  and  C_16
REMARK    7  A    between atoms: C_16  and  C_19
REMARK    8  A    between atoms: N_23  and  C_24
REMARK    9  A    between atoms: C_27  and  C_28
REMARK                            x       y       z     vdW  Elec       q    Type
REMARK                         _______ _______ _______ _____ _____    ______ ____
ROOT
ATOM      1  C   UNL     1       2.552   5.948  18.648  0.00  0.00    +0.000 A 
ATOM      2  C   UNL     1       2.005   4.671  18.803  0.00  0.00    +0.000 A 
ATOM      3  C   UNL     1       2.486   3.590  18.066  0.00  0.00    +0.000 A 
ATOM      4  C   UNL     1       3.546   3.767  17.183  0.00  0.00    +0.000 A 
ATOM      5  C   UNL     1       4.138   5.033  17.016  0.00  0.00    +0.000 A 
ATOM      6  C   UNL     1       3.597   6.127  17.727  0.00  0.00    +0.000 A 
ENDROOT
BRANCH   1   9
ATOM      7  C   UNL     1       1.666   8.268  18.882  0.00  0.00    +0.000 C 
ATOM      8  O   UNL     1       1.532   8.532  17.689  0.00  0.00    +0.000 OA
ATOM      9  N   UNL     1       2.113   7.063  19.404  0.00  0.00    +0.000 N 
ATOM     10  H   UNL     1       2.038   6.962  20.412  0.00  0.00    +0.000 HD
BRANCH   7  14
ATOM     11  C   UNL     1      -0.008   9.537  23.381  0.00  0.00    +0.000 C 
ATOM     12  C   UNL     1       0.471   9.868  22.001  0.00  0.00    +0.000 A 
ATOM     13  C   UNL     1       0.832   8.886  21.117  0.00  0.00    +0.000 A 
ATOM     14  C   UNL     1       1.275   9.314  19.881  0.00  0.00    +0.000 A 
ATOM     15  N   UNL     1       1.394  10.615  19.523  0.00  0.00    +0.000 NA
ATOM     16  C   UNL     1       1.024  11.518  20.457  0.00  0.00    +0.000 A 
ATOM     17  N   UNL     1       0.556  11.173  21.679  0.00  0.00    +0.000 NA
BRANCH  16  18
ATOM     18  C   UNL     1       1.226  12.993  20.210  0.00  0.00    +0.000 C 
ATOM     19  C   UNL     1       2.588  13.639  20.233  0.00  0.00    +0.000 C 
ATOM     20  C   UNL     1       1.869  13.474  18.927  0.00  0.00    +0.000 C 
ENDBRANCH  16  18
ENDBRANCH   7  14
ENDBRANCH   1   9
BRANCH   5  21
ATOM     21  C   UNL     1       5.459   5.109  16.237  0.00  0.00    +0.000 C 
ATOM     22  C   UNL     1       5.355   4.004  15.162  0.00  0.00    +0.000 C 
ATOM     23  F   UNL     1       5.545   6.303  15.543  0.00  0.00    +0.000 F 
BRANCH  21  24
ATOM     24  C   UNL     1       6.799   4.954  17.003  0.00  0.00    +0.000 C 
ATOM     25  F   UNL     1       6.607   4.144  18.091  0.00  0.00    +0.000 F 
ATOM     26  F   UNL     1       7.669   4.245  16.211  0.00  0.00    +0.000 F 
BRANCH  24  27
ATOM     27  C   UNL     1       7.446   6.236  17.426  0.00  0.00    +0.000 A 
ATOM     28  N   UNL     1       7.556   7.322  16.677  0.00  0.00    +0.000 NA
ATOM     29  N   UNL     1       8.077   8.330  17.453  0.00  0.00    +0.000 NA
ATOM     30  C   UNL     1       8.274   7.855  18.654  0.00  0.00    +0.000 A 
ATOM     31  N   UNL     1       7.917   6.533  18.685  0.00  0.00    +0.000 N 
ATOM     32  C   UNL     1       8.014   5.700  19.853  0.00  0.00    +0.000 C 
ENDBRANCH  24  27
ENDBRANCH  21  24
ENDBRANCH   5  21
TORSDOF 6
ENDMDL
MODEL 8
REMARK VINA RESULT:      -8.1      0.980      1.061
REMARK  Name = 
REMARK  9 active torsions:
REMARK  status: ('A' for Active; 'I' for Inactive)
REMARK    1  A    between atoms: C_1  and  C_2
REMARK    2  A    between atoms: C_4  and  C_5
REMARK    3  A    between atoms: N_7  and  C_8
REMARK    4  A    between atoms: C_12  and  C_13
REMARK    5  A    between atoms: C_13  and  C_14
REMARK    6  A    between atoms: C_13  and  C_16
REMARK    7  A    between atoms: C_16  and  C_19
REMARK    8  A    between atoms: N_23  and  C_24
REMARK    9  A    between atoms: C_27  and  C_28
REMARK                            x       y       z     vdW  Elec       q    Type
REMARK                         _______ _______ _______ _____ _____    ______ ____
ROOT
ATOM      1  C   UNL     1       2.924   6.098  18.250  0.00  0.00    +0.000 A 
ATOM      2  C   UNL     1       2.760   4.833  18.822  0.00  0.00    +0.000 A 
ATOM      3  C   UNL     1       3.400   3.716  18.288  0.00  0.00    +0.000 A 
ATOM      4  C   UNL     1       4.240   3.855  17.189  0.00  0.00    +0.000 A 
ATOM      5  C   UNL     1       4.448   5.116  16.598  0.00  0.00    +0.000 A 
ATOM      6  C   UNL     1       3.744   6.225  17.117  0.00  0.00    +0.000 A 
ENDROOT
BRANCH   1   9
ATOM      7  C   UNL     1       1.787   7.381  20.062  0.00  0.00    +0.000 C 
ATOM      8  O   UNL     1       1.811   6.519  20.936  0.00  0.00    +0.000 OA
ATOM      9  N   UNL     1       2.318   7.261  18.785  0.00  0.00    +0.000 N 
ATOM     10  H   UNL     1       2.336   8.113  18.232  0.00  0.00    +0.000 HD
BRANCH   7  14
ATOM     11  C   UNL     1      -0.730  10.313  23.180  0.00  0.00    +0.000 C 
ATOM     12  C   UNL     1      -0.024  10.048  21.885  0.00  0.00    +0.000 A 
ATOM     13  C   UNL     1       0.535   8.827  21.616  0.00  0.00    +0.000 A 
ATOM     14  C   UNL     1       1.175   8.707  20.398  0.00  0.00    +0.000 A 
ATOM     15  N   UNL     1       1.299   9.713  19.500  0.00  0.00    +0.000 NA
ATOM     16  C   UNL     1       0.726  10.886  19.849  0.00  0.00    +0.000 A 
ATOM     17  N   UNL     1       0.059  11.070  21.012  0.00  0.00    +0.000 NA
BRANCH  16  18
ATOM     18  C   UNL     1       0.902  12.106  18.979  0.00  0.00    +0.000 C 
ATOM     19  C   UNL     1       1.610  13.348  19.461  0.00  0.00    +0.000 C 
ATOM     20  C   UNL     1       2.268  12.470  18.437  0.00  0.00    +0.000 C 
ENDBRANCH  16  18
ENDBRANCH   7  14
ENDBRANCH   1   9
BRANCH   5  21
ATOM     21  C   UNL     1       5.579   5.247  15.568  0.00  0.00    +0.000 C 
ATOM     22  C   UNL     1       5.190   4.287  14.420  0.00  0.00    +0.000 C 
ATOM     23  F   UNL     1       5.584   6.514  15.013  0.00  0.00    +0.000 F 
BRANCH  21  24
ATOM     24  C   UNL     1       7.038   4.956  16.005  0.00  0.00    +0.000 C 
ATOM     25  F   UNL     1       7.331   3.641  15.761  0.00  0.00    +0.000 F 
ATOM     26  F   UNL     1       7.885   5.645  15.170  0.00  0.00    +0.000 F 
BRANCH  24  27
ATOM     27  C   UNL     1       7.360   5.297  17.428  0.00  0.00    +0.000 A 
ATOM     28  N   UNL     1       7.617   4.421  18.386  0.00  0.00    +0.000 NA
ATOM     29  N   UNL     1       8.002   5.112  19.509  0.00  0.00    +0.000 NA
ATOM     30  C   UNL     1       7.978   6.387  19.228  0.00  0.00    +0.000 A 
ATOM     31  N   UNL     1       7.555   6.561  17.937  0.00  0.00    +0.000 N 
ATOM     32  C   UNL     1       7.405   7.843  17.305  0.00  0.00    +0.000 C 
ENDBRANCH  24  27
ENDBRANCH  21  24
ENDBRANCH   5  21
TORSDOF 6
ENDMDL
MODEL 9
REMARK VINA RESULT:      -8.0      3.821      8.462
REMARK  Name = 
REMARK  9 active torsions:
REMARK  status: ('A' for Active; 'I' for Inactive)
REMARK    1  A    between atoms: C_1  and  C_2
REMARK    2  A    between atoms: C_4  and  C_5
REMARK    3  A    between atoms: N_7  and  C_8
REMARK    4  A    between atoms: C_12  and  C_13
REMARK    5  A    between atoms: C_13  and  C_14
REMARK    6  A    between atoms: C_13  and  C_16
REMARK    7  A    between atoms: C_16  and  C_19
REMARK    8  A    between atoms: N_23  and  C_24
REMARK    9  A    between atoms: C_27  and  C_28
REMARK                            x       y       z     vdW  Elec       q    Type
REMARK                         _______ _______ _______ _____ _____    ______ ____
ROOT
ATOM      1  C   UNL     1       1.324   8.549  20.588  0.00  0.00    +0.000 A 
ATOM      2  C   UNL     1       1.052   8.665  21.955  0.00  0.00    +0.000 A 
ATOM      3  C   UNL     1       0.227   9.679  22.438  0.00  0.00    +0.000 A 
ATOM      4  C   UNL     1      -0.366  10.574  21.554  0.00  0.00    +0.000 A 
ATOM      5  C   UNL     1      -0.136  10.476  20.169  0.00  0.00    +0.000 A 
ATOM      6  C   UNL     1       0.751   9.478  19.705  0.00  0.00    +0.000 A 
ENDROOT
BRANCH   1   9
ATOM      7  C   UNL     1       2.428   7.329  18.714  0.00  0.00    +0.000 C 
ATOM      8  O   UNL     1       2.088   8.067  17.792  0.00  0.00    +0.000 OA
ATOM      9  N   UNL     1       2.128   7.512  20.056  0.00  0.00    +0.000 N 
ATOM     10  H   UNL     1       2.599   6.886  20.703  0.00  0.00    +0.000 HD
BRANCH   7  14
ATOM     11  C   UNL     1       2.900   2.499  17.663  0.00  0.00    +0.000 C 
ATOM     12  C   UNL     1       3.464   3.866  17.910  0.00  0.00    +0.000 A 
ATOM     13  C   UNL     1       2.651   4.930  18.196  0.00  0.00    +0.000 A 
ATOM     14  C   UNL     1       3.283   6.143  18.385  0.00  0.00    +0.000 A 
ATOM     15  N   UNL     1       4.620   6.331  18.276  0.00  0.00    +0.000 NA
ATOM     16  C   UNL     1       5.346   5.230  17.982  0.00  0.00    +0.000 A 
ATOM     17  N   UNL     1       4.799   4.005  17.809  0.00  0.00    +0.000 NA
BRANCH  16  18
ATOM     18  C   UNL     1       6.828   5.345  17.721  0.00  0.00    +0.000 C 
ATOM     19  C   UNL     1       7.568   6.655  17.819  0.00  0.00    +0.000 C 
ATOM     20  C   UNL     1       7.789   5.599  18.862  0.00  0.00    +0.000 C 
ENDBRANCH  16  18
ENDBRANCH   7  14
ENDBRANCH   1   9
BRANCH   5  21
ATOM     21  C   UNL     1      -1.018  11.315  19.234  0.00  0.00    +0.000 C 
ATOM     22  C   UNL     1      -1.171  10.462  17.954  0.00  0.00    +0.000 C 
ATOM     23  F   UNL     1      -2.293  11.442  19.755  0.00  0.00    +0.000 F 
BRANCH  21  24
ATOM     24  C   UNL     1      -0.562  12.745  18.845  0.00  0.00    +0.000 C 
ATOM     25  F   UNL     1      -0.878  12.979  17.533  0.00  0.00    +0.000 F 
ATOM     26  F   UNL     1      -1.332  13.647  19.538  0.00  0.00    +0.000 F 
BRANCH  24  27
ATOM     27  C   UNL     1       0.886  13.041  19.084  0.00  0.00    +0.000 A 
ATOM     28  N   UNL     1       1.858  12.873  18.201  0.00  0.00    +0.000 NA
ATOM     29  N   UNL     1       3.017  13.384  18.734  0.00  0.00    +0.000 NA
ATOM     30  C   UNL     1       2.744  13.855  19.921  0.00  0.00    +0.000 A 
ATOM     31  N   UNL     1       1.420  13.642  20.202  0.00  0.00    +0.000 N 
ATOM     32  C   UNL     1       0.785  14.031  21.431  0.00  0.00    +0.000 C 
ENDBRANCH  24  27
ENDBRANCH  21  24
ENDBRANCH   5  21
TORSDOF 6
ENDMDL
