MODEL 1
REMARK VINA RESULT:      -8.1      0.000      0.000
REMARK  Name = 
REMARK  8 active torsions:
REMARK  status: ('A' for Active; 'I' for Inactive)
REMARK    1  A    between atoms: C_1  and  C_2
REMARK    2  A    between atoms: C_4  and  C_5
REMARK    3  A    between atoms: N_7  and  C_8
REMARK    4  A    between atoms: C_12  and  C_13
REMARK    5  A    between atoms: C_13  and  C_14
REMARK    6  A    between atoms: C_13  and  S_15
REMARK    7  A    between atoms: S_15  and  C_16
REMARK    8  A    between atoms: N_20  and  C_21
REMARK                            x       y       z     vdW  Elec       q    Type
REMARK                         _______ _______ _______ _____ _____    ______ ____
ROOT
ATOM      1  C   UNL     1       2.720   6.136  19.535  0.00  0.00    +0.000 A 
ATOM      2  C   UNL     1       2.557   4.817  19.969  0.00  0.00    +0.000 A 
ATOM      3  C   UNL     1       3.215   3.766  19.341  0.00  0.00    +0.000 A 
ATOM      4  C   UNL     1       4.076   4.020  18.280  0.00  0.00    +0.000 A 
ATOM      5  C   UNL     1       4.278   5.330  17.815  0.00  0.00    +0.000 A 
ATOM      6  C   UNL     1       3.553   6.381  18.433  0.00  0.00    +0.000 A 
ENDROOT
BRANCH   1   9
ATOM      7  C   UNL     1       1.594   8.354  19.553  0.00  0.00    +0.000 C 
ATOM      8  O   UNL     1       1.609   8.553  18.341  0.00  0.00    +0.000 OA
ATOM      9  N   UNL     1       2.093   7.226  20.195  0.00  0.00    +0.000 N 
ATOM     10  H   UNL     1       1.876   7.141  21.184  0.00  0.00    +0.000 HD
BRANCH   7  14
ATOM     11  C   UNL     1       0.517  13.039  20.517  0.00  0.00    +0.000 C 
ATOM     12  C   UNL     1       0.421  11.589  20.906  0.00  0.00    +0.000 A 
ATOM     13  N   UNL     1       1.070  10.696  20.095  0.00  0.00    +0.000 NA
ATOM     14  C   UNL     1       0.921   9.379  20.407  0.00  0.00    +0.000 A 
ATOM     15  C   UNL     1       0.167   8.924  21.488  0.00  0.00    +0.000 A 
ATOM     16  C   UNL     1      -0.457   9.847  22.312  0.00  0.00    +0.000 A 
ATOM     17  C   UNL     1      -0.332  11.204  22.022  0.00  0.00    +0.000 A 
ATOM     18 CL   UNL     1      -1.118  12.332  23.061  0.00  0.00    +0.000 Cl
ENDBRANCH   7  14
ENDBRANCH   1   9
BRANCH   5  19
ATOM     19  C   UNL     1       5.336   5.645  16.753  0.00  0.00    +0.000 C 
ATOM     20  C   UNL     1       4.890   6.705  15.733  0.00  0.00    +0.000 C 
BRANCH  19  21
ATOM     21  S   UNL     1       5.752   4.081  15.866  0.00  0.00    +0.000 S 
BRANCH  21  22
ATOM     22  C   UNL     1       6.776   4.644  14.596  0.00  0.00    +0.000 A 
ATOM     23  N   UNL     1       7.792   5.468  14.701  0.00  0.00    +0.000 NA
ATOM     24  N   UNL     1       8.317   5.647  13.440  0.00  0.00    +0.000 NA
ATOM     25  C   UNL     1       7.609   4.922  12.603  0.00  0.00    +0.000 A 
ATOM     26  N   UNL     1       6.622   4.280  13.290  0.00  0.00    +0.000 N 
ATOM     27  C   UNL     1       5.616   3.425  12.713  0.00  0.00    +0.000 C 
ENDBRANCH  21  22
ENDBRANCH  19  21
ENDBRANCH   5  19
TORSDOF 5
ENDMDL
MODEL 2
REMARK VINA RESULT:      -8.1      4.919      7.440
REMARK  Name = 
REMARK  8 active torsions:
REMARK  status: ('A' for Active; 'I' for Inactive)
REMARK    1  A    between atoms: C_1  and  C_2
REMARK    2  A    between atoms: C_4  and  C_5
REMARK    3  A    between atoms: N_7  and  C_8
REMARK    4  A    between atoms: C_12  and  C_13
REMARK    5  A    between atoms: C_13  and  C_14
REMARK    6  A    between atoms: C_13  and  S_15
REMARK    7  A    between atoms: S_15  and  C_16
REMARK    8  A    between atoms: N_20  and  C_21
REMARK                            x       y       z     vdW  Elec       q    Type
REMARK                         _______ _______ _______ _____ _____    ______ ____
ROOT
ATOM      1  C   UNL     1       6.182   6.690  17.003  0.00  0.00    +0.000 A 
ATOM      2  C   UNL     1       6.795   5.738  16.184  0.00  0.00    +0.000 A 
ATOM      3  C   UNL     1       6.163   4.539  15.874  0.00  0.00    +0.000 A 
ATOM      4  C   UNL     1       4.884   4.284  16.356  0.00  0.00    +0.000 A 
ATOM      5  C   UNL     1       4.224   5.215  17.176  0.00  0.00    +0.000 A 
ATOM      6  C   UNL     1       4.911   6.405  17.526  0.00  0.00    +0.000 A 
ENDROOT
BRANCH   1   9
ATOM      7  C   UNL     1       7.888   8.104  18.133  0.00  0.00    +0.000 C 
ATOM      8  O   UNL     1       8.480   7.204  18.723  0.00  0.00    +0.000 OA
ATOM      9  N   UNL     1       6.793   7.939  17.290  0.00  0.00    +0.000 N 
ATOM     10  H   UNL     1       6.506   8.758  16.762  0.00  0.00    +0.000 HD
BRANCH   7  14
ATOM     11  C   UNL     1       7.721  12.872  17.001  0.00  0.00    +0.000 C 
ATOM     12  C   UNL     1       8.393  11.746  17.737  0.00  0.00    +0.000 A 
ATOM     13  N   UNL     1       7.865  10.495  17.554  0.00  0.00    +0.000 NA
ATOM     14  C   UNL     1       8.429   9.489  18.277  0.00  0.00    +0.000 A 
ATOM     15  C   UNL     1       9.493   9.677  19.158  0.00  0.00    +0.000 A 
ATOM     16  C   UNL     1      10.032  10.946  19.305  0.00  0.00    +0.000 A 
ATOM     17  C   UNL     1       9.477  12.002  18.585  0.00  0.00    +0.000 A 
ATOM     18 CL   UNL     1      10.164  13.570  18.786  0.00  0.00    +0.000 Cl
ENDBRANCH   7  14
ENDBRANCH   1   9
BRANCH   5  19
ATOM     19  C   UNL     1       2.762   5.019  17.587  0.00  0.00    +0.000 C 
ATOM     20  C   UNL     1       2.402   5.688  18.924  0.00  0.00    +0.000 C 
BRANCH  19  21
ATOM     21  S   UNL     1       2.428   3.208  17.701  0.00  0.00    +0.000 S 
BRANCH  21  22
ATOM     22  C   UNL     1       2.165   2.991  19.393  0.00  0.00    +0.000 A 
ATOM     23  N   UNL     1       1.021   3.055  20.033  0.00  0.00    +0.000 NA
ATOM     24  N   UNL     1       1.276   2.827  21.367  0.00  0.00    +0.000 NA
ATOM     25  C   UNL     1       2.568   2.624  21.501  0.00  0.00    +0.000 A 
ATOM     26  N   UNL     1       3.166   2.727  20.281  0.00  0.00    +0.000 N 
ATOM     27  C   UNL     1       4.580   2.610  20.025  0.00  0.00    +0.000 C 
ENDBRANCH  21  22
ENDBRANCH  19  21
ENDBRANCH   5  19
TORSDOF 5
ENDMDL
MODEL 3
REMARK VINA RESULT:      -8.0      0.821      1.366
REMARK  Name = 
REMARK  8 active torsions:
REMARK  status: ('A' for Active; 'I' for Inactive)
REMARK    1  A    between atoms: C_1  and  C_2
REMARK    2  A    between atoms: C_4  and  C_5
REMARK    3  A    between atoms: N_7  and  C_8
REMARK    4  A    between atoms: C_12  and  C_13
REMARK    5  A    between atoms: C_13  and  C_14
REMARK    6  A    between atoms: C_13  and  S_15
REMARK    7  A    between atoms: S_15  and  C_16
REMARK    8  A    between atoms: N_20  and  C_21
REMARK                            x       y       z     vdW  Elec       q    Type
REMARK                         _______ _______ _______ _____ _____    ______ ____
ROOT
ATOM      1  C   UNL     1       2.918   5.999  19.413  0.00  0.00    +0.000 A 
ATOM      2  C   UNL     1       3.001   4.744  20.025  0.00  0.00    +0.000 A 
ATOM      3  C   UNL     1       3.826   3.748  19.516  0.00  0.00    +0.000 A 
ATOM      4  C   UNL     1       4.611   4.000  18.396  0.00  0.00    +0.000 A 
ATOM      5  C   UNL     1       4.567   5.249  17.753  0.00  0.00    +0.000 A 
ATOM      6  C   UNL     1       3.676   6.232  18.255  0.00  0.00    +0.000 A 
ENDROOT
BRANCH   1   9
ATOM      7  C   UNL     1       1.888   8.260  19.317  0.00  0.00    +0.000 C 
ATOM      8  O   UNL     1       2.325   8.592  18.218  0.00  0.00    +0.000 OA
ATOM      9  N   UNL     1       2.118   7.042  19.948  0.00  0.00    +0.000 N 
ATOM     10  H   UNL     1       1.570   6.861  20.785  0.00  0.00    +0.000 HD
BRANCH   7  14
ATOM     11  C   UNL     1      -0.453   9.734  23.365  0.00  0.00    +0.000 C 
ATOM     12  C   UNL     1      -0.168   9.925  21.901  0.00  0.00    +0.000 A 
ATOM     13  N   UNL     1       0.661   9.005  21.316  0.00  0.00    +0.000 NA
ATOM     14  C   UNL     1       0.976   9.221  20.009  0.00  0.00    +0.000 A 
ATOM     15  C   UNL     1       0.496  10.300  19.269  0.00  0.00    +0.000 A 
ATOM     16  C   UNL     1      -0.366  11.203  19.874  0.00  0.00    +0.000 A 
ATOM     17  C   UNL     1      -0.707  11.018  21.212  0.00  0.00    +0.000 A 
ATOM     18 CL   UNL     1      -1.779  12.154  21.940  0.00  0.00    +0.000 Cl
ENDBRANCH   7  14
ENDBRANCH   1   9
BRANCH   5  19
ATOM     19  C   UNL     1       5.534   5.595  16.617  0.00  0.00    +0.000 C 
ATOM     20  C   UNL     1       5.019   6.701  15.683  0.00  0.00    +0.000 C 
BRANCH  19  21
ATOM     21  S   UNL     1       5.849   4.064  15.636  0.00  0.00    +0.000 S 
BRANCH  21  22
ATOM     22  C   UNL     1       6.858   4.648  14.364  0.00  0.00    +0.000 A 
ATOM     23  N   UNL     1       7.835   5.519  14.461  0.00  0.00    +0.000 NA
ATOM     24  N   UNL     1       8.362   5.698  13.201  0.00  0.00    +0.000 NA
ATOM     25  C   UNL     1       7.696   4.924  12.373  0.00  0.00    +0.000 A 
ATOM     26  N   UNL     1       6.733   4.251  13.064  0.00  0.00    +0.000 N 
ATOM     27  C   UNL     1       5.771   3.340  12.496  0.00  0.00    +0.000 C 
ENDBRANCH  21  22
ENDBRANCH  19  21
ENDBRANCH   5  19
TORSDOF 5
ENDMDL
MODEL 4
REMARK VINA RESULT:      -8.0      5.192      7.517
REMARK  Name = 
REMARK  8 active torsions:
REMARK  status: ('A' for Active; 'I' for Inactive)
REMARK    1  A    between atoms: C_1  and  C_2
REMARK    2  A    between atoms: C_4  and  C_5
REMARK    3  A    between atoms: N_7  and  C_8
REMARK    4  A    between atoms: C_12  and  C_13
REMARK    5  A    between atoms: C_13  and  C_14
REMARK    6  A    between atoms: C_13  and  S_15
REMARK    7  A    between atoms: S_15  and  C_16
REMARK    8  A    between atoms: N_20  and  C_21
REMARK                            x       y       z     vdW  Elec       q    Type
REMARK                         _______ _______ _______ _____ _____    ______ ____
ROOT
ATOM      1  C   UNL     1       6.589   6.864  17.061  0.00  0.00    +0.000 A 
ATOM      2  C   UNL     1       7.279   5.886  16.339  0.00  0.00    +0.000 A 
ATOM      3  C   UNL     1       6.699   4.654  16.058  0.00  0.00    +0.000 A 
ATOM      4  C   UNL     1       5.398   4.389  16.469  0.00  0.00    +0.000 A 
ATOM      5  C   UNL     1       4.662   5.345  17.190  0.00  0.00    +0.000 A 
ATOM      6  C   UNL     1       5.293   6.572  17.516  0.00  0.00    +0.000 A 
ENDROOT
BRANCH   1   9
ATOM      7  C   UNL     1       8.129   8.398  18.268  0.00  0.00    +0.000 C 
ATOM      8  O   UNL     1       8.653   7.561  18.999  0.00  0.00    +0.000 OA
ATOM      9  N   UNL     1       7.148   8.144  17.316  0.00  0.00    +0.000 N 
ATOM     10  H   UNL     1       6.920   8.911  16.691  0.00  0.00    +0.000 HD
BRANCH   7  14
ATOM     11  C   UNL     1      11.178  11.694  20.238  0.00  0.00    +0.000 C 
ATOM     12  C   UNL     1      10.045  11.389  19.298  0.00  0.00    +0.000 A 
ATOM     13  N   UNL     1       9.612  10.090  19.266  0.00  0.00    +0.000 NA
ATOM     14  C   UNL     1       8.635   9.801  18.362  0.00  0.00    +0.000 A 
ATOM     15  C   UNL     1       8.074  10.747  17.506  0.00  0.00    +0.000 A 
ATOM     16  C   UNL     1       8.507  12.063  17.576  0.00  0.00    +0.000 A 
ATOM     17  C   UNL     1       9.509  12.395  18.485  0.00  0.00    +0.000 A 
ATOM     18 CL   UNL     1      10.031  14.037  18.552  0.00  0.00    +0.000 Cl
ENDBRANCH   7  14
ENDBRANCH   1   9
BRANCH   5  19
ATOM     19  C   UNL     1       3.181   5.130  17.515  0.00  0.00    +0.000 C 
ATOM     20  C   UNL     1       2.749   5.741  18.859  0.00  0.00    +0.000 C 
BRANCH  19  21
ATOM     21  S   UNL     1       2.847   3.315  17.535  0.00  0.00    +0.000 S 
BRANCH  21  22
ATOM     22  C   UNL     1       3.160   2.904  19.181  0.00  0.00    +0.000 A 
ATOM     23  N   UNL     1       4.323   2.633  19.724  0.00  0.00    +0.000 NA
ATOM     24  N   UNL     1       4.108   2.353  21.055  0.00  0.00    +0.000 NA
ATOM     25  C   UNL     1       2.820   2.469  21.287  0.00  0.00    +0.000 A 
ATOM     26  N   UNL     1       2.184   2.807  20.130  0.00  0.00    +0.000 N 
ATOM     27  C   UNL     1       0.763   2.983  19.971  0.00  0.00    +0.000 C 
ENDBRANCH  21  22
ENDBRANCH  19  21
ENDBRANCH   5  19
TORSDOF 5
ENDMDL
MODEL 5
REMARK VINA RESULT:      -7.9      2.087      2.973
REMARK  Name = 
REMARK  8 active torsions:
REMARK  status: ('A' for Active; 'I' for Inactive)
REMARK    1  A    between atoms: C_1  and  C_2
REMARK    2  A    between atoms: C_4  and  C_5
REMARK    3  A    between atoms: N_7  and  C_8
REMARK    4  A    between atoms: C_12  and  C_13
REMARK    5  A    between atoms: C_13  and  C_14
REMARK    6  A    between atoms: C_13  and  S_15
REMARK    7  A    between atoms: S_15  and  C_16
REMARK    8  A    between atoms: N_20  and  C_21
REMARK                            x       y       z     vdW  Elec       q    Type
REMARK                         _______ _______ _______ _____ _____    ______ ____
ROOT
ATOM      1  C   UNL     1       2.627   6.028  18.355  0.00  0.00    +0.000 A 
ATOM      2  C   UNL     1       2.090   4.765  18.625  0.00  0.00    +0.000 A 
ATOM      3  C   UNL     1       2.577   3.626  17.996  0.00  0.00    +0.000 A 
ATOM      4  C   UNL     1       3.637   3.725  17.102  0.00  0.00    +0.000 A 
ATOM      5  C   UNL     1       4.215   4.970  16.806  0.00  0.00    +0.000 A 
ATOM      6  C   UNL     1       3.666   6.127  17.416  0.00  0.00    +0.000 A 
ENDROOT
BRANCH   1   9
ATOM      7  C   UNL     1       1.952   8.421  18.406  0.00  0.00    +0.000 C 
ATOM      8  O   UNL     1       2.098   8.657  17.209  0.00  0.00    +0.000 OA
ATOM      9  N   UNL     1       2.174   7.195  19.024  0.00  0.00    +0.000 N 
ATOM     10  H   UNL     1       1.870   7.119  19.991  0.00  0.00    +0.000 HD
BRANCH   7  14
ATOM     11  C   UNL     1       0.847  13.157  19.027  0.00  0.00    +0.000 C 
ATOM     12  C   UNL     1       0.923  11.767  19.596  0.00  0.00    +0.000 A 
ATOM     13  N   UNL     1       1.427  10.797  18.771  0.00  0.00    +0.000 NA
ATOM     14  C   UNL     1       1.427   9.527  19.262  0.00  0.00    +0.000 A 
ATOM     15  C   UNL     1       0.958   9.192  20.532  0.00  0.00    +0.000 A 
ATOM     16  C   UNL     1       0.479  10.195  21.360  0.00  0.00    +0.000 A 
ATOM     17  C   UNL     1       0.458  11.506  20.891  0.00  0.00    +0.000 A 
ATOM     18 CL   UNL     1      -0.143  12.735  21.940  0.00  0.00    +0.000 Cl
ENDBRANCH   7  14
ENDBRANCH   1   9
BRANCH   5  19
ATOM     19  C   UNL     1       5.478   5.079  15.947  0.00  0.00    +0.000 C 
ATOM     20  C   UNL     1       5.476   4.145  14.726  0.00  0.00    +0.000 C 
BRANCH  19  21
ATOM     21  S   UNL     1       6.939   4.693  17.007  0.00  0.00    +0.000 S 
BRANCH  21  22
ATOM     22  C   UNL     1       7.475   6.266  17.475  0.00  0.00    +0.000 A 
ATOM     23  N   UNL     1       7.496   7.350  16.736  0.00  0.00    +0.000 NA
ATOM     24  N   UNL     1       8.006   8.371  17.507  0.00  0.00    +0.000 NA
ATOM     25  C   UNL     1       8.274   7.881  18.697  0.00  0.00    +0.000 A 
ATOM     26  N   UNL     1       7.961   6.555  18.717  0.00  0.00    +0.000 N 
ATOM     27  C   UNL     1       8.153   5.662  19.831  0.00  0.00    +0.000 C 
ENDBRANCH  21  22
ENDBRANCH  19  21
ENDBRANCH   5  19
TORSDOF 5
ENDMDL
MODEL 6
REMARK VINA RESULT:      -7.9      5.970      7.756
REMARK  Name = 
REMARK  8 active torsions:
REMARK  status: ('A' for Active; 'I' for Inactive)
REMARK    1  A    between atoms: C_1  and  C_2
REMARK    2  A    between atoms: C_4  and  C_5
REMARK    3  A    between atoms: N_7  and  C_8
REMARK    4  A    between atoms: C_12  and  C_13
REMARK    5  A    between atoms: C_13  and  C_14
REMARK    6  A    between atoms: C_13  and  S_15
REMARK    7  A    between atoms: S_15  and  C_16
REMARK    8  A    between atoms: N_20  and  C_21
REMARK                            x       y       z     vdW  Elec       q    Type
REMARK                         _______ _______ _______ _____ _____    ______ ____
ROOT
ATOM      1  C   UNL     1       7.711   8.023  17.997  0.00  0.00    +0.000 A 
ATOM      2  C   UNL     1       8.404   7.063  18.741  0.00  0.00    +0.000 A 
ATOM      3  C   UNL     1       7.878   5.793  18.948  0.00  0.00    +0.000 A 
ATOM      4  C   UNL     1       6.655   5.448  18.384  0.00  0.00    +0.000 A 
ATOM      5  C   UNL     1       5.926   6.376  17.621  0.00  0.00    +0.000 A 
ATOM      6  C   UNL     1       6.454   7.684  17.471  0.00  0.00    +0.000 A 
ENDROOT
BRANCH   1   9
ATOM      7  C   UNL     1       8.901  10.095  18.684  0.00  0.00    +0.000 C 
ATOM      8  O   UNL     1       9.104   9.786  19.855  0.00  0.00    +0.000 OA
ATOM      9  N   UNL     1       8.255   9.308  17.737  0.00  0.00    +0.000 N 
ATOM     10  H   UNL     1       8.294   9.638  16.777  0.00  0.00    +0.000 HD
BRANCH   7  14
ATOM     11  C   UNL     1       8.379  14.915  17.950  0.00  0.00    +0.000 C 
ATOM     12  C   UNL     1       9.226  13.678  17.829  0.00  0.00    +0.000 A 
ATOM     13  N   UNL     1       8.661  12.507  18.259  0.00  0.00    +0.000 NA
ATOM     14  C   UNL     1       9.455  11.402  18.215  0.00  0.00    +0.000 A 
ATOM     15  C   UNL     1      10.771  11.417  17.756  0.00  0.00    +0.000 A 
ATOM     16  C   UNL     1      11.313  12.608  17.298  0.00  0.00    +0.000 A 
ATOM     17  C   UNL     1      10.533  13.761  17.332  0.00  0.00    +0.000 A 
ATOM     18 CL   UNL     1      11.230  15.229  16.758  0.00  0.00    +0.000 Cl
ENDBRANCH   7  14
ENDBRANCH   1   9
BRANCH   5  19
ATOM     19  C   UNL     1       4.657   5.966  16.868  0.00  0.00    +0.000 C 
ATOM     20  C   UNL     1       3.358   6.351  17.593  0.00  0.00    +0.000 C 
BRANCH  19  21
ATOM     21  S   UNL     1       4.696   4.139  16.613  0.00  0.00    +0.000 S 
BRANCH  21  22
ATOM     22  C   UNL     1       3.278   3.624  17.449  0.00  0.00    +0.000 A 
ATOM     23  N   UNL     1       2.046   3.623  16.998  0.00  0.00    +0.000 NA
ATOM     24  N   UNL     1       1.234   3.138  18.000  0.00  0.00    +0.000 NA
ATOM     25  C   UNL     1       1.996   2.851  19.032  0.00  0.00    +0.000 A 
ATOM     26  N   UNL     1       3.291   3.150  18.729  0.00  0.00    +0.000 N 
ATOM     27  C   UNL     1       4.416   3.015  19.620  0.00  0.00    +0.000 C 
ENDBRANCH  21  22
ENDBRANCH  19  21
ENDBRANCH   5  19
TORSDOF 5
ENDMDL
MODEL 7
REMARK VINA RESULT:      -7.8      1.897      2.708
REMARK  Name = 
REMARK  8 active torsions:
REMARK  status: ('A' for Active; 'I' for Inactive)
REMARK    1  A    between atoms: C_1  and  C_2
REMARK    2  A    between atoms: C_4  and  C_5
REMARK    3  A    between atoms: N_7  and  C_8
REMARK    4  A    between atoms: C_12  and  C_13
REMARK    5  A    between atoms: C_13  and  C_14
REMARK    6  A    between atoms: C_13  and  S_15
REMARK    7  A    between atoms: S_15  and  C_16
REMARK    8  A    between atoms: N_20  and  C_21
REMARK                            x       y       z     vdW  Elec       q    Type
REMARK                         _______ _______ _______ _____ _____    ______ ____
ROOT
ATOM      1  C   UNL     1       1.819   5.225  20.713  0.00  0.00    +0.000 A 
ATOM      2  C   UNL     1       2.103   4.175  21.592  0.00  0.00    +0.000 A 
ATOM      3  C   UNL     1       2.663   2.987  21.138  0.00  0.00    +0.000 A 
ATOM      4  C   UNL     1       2.980   2.838  19.793  0.00  0.00    +0.000 A 
ATOM      5  C   UNL     1       2.722   3.869  18.874  0.00  0.00    +0.000 A 
ATOM      6  C   UNL     1       2.097   5.050  19.348  0.00  0.00    +0.000 A 
ENDROOT
BRANCH   1   9
ATOM      7  C   UNL     1       1.492   7.684  20.533  0.00  0.00    +0.000 C 
ATOM      8  O   UNL     1       2.130   7.858  19.498  0.00  0.00    +0.000 OA
ATOM      9  N   UNL     1       1.292   6.463  21.167  0.00  0.00    +0.000 N 
ATOM     10  H   UNL     1       0.622   6.459  21.931  0.00  0.00    +0.000 HD
BRANCH   7  14
ATOM     11  C   UNL     1      -0.167  12.278  20.117  0.00  0.00    +0.000 C 
ATOM     12  C   UNL     1       0.049  11.060  20.971  0.00  0.00    +0.000 A 
ATOM     13  N   UNL     1       0.687  10.004  20.378  0.00  0.00    +0.000 NA
ATOM     14  C   UNL     1       0.817   8.876  21.129  0.00  0.00    +0.000 A 
ATOM     15  C   UNL     1       0.349   8.765  22.438  0.00  0.00    +0.000 A 
ATOM     16  C   UNL     1      -0.267   9.857  23.029  0.00  0.00    +0.000 A 
ATOM     17  C   UNL     1      -0.424  11.027  22.289  0.00  0.00    +0.000 A 
ATOM     18 CL   UNL     1      -1.194  12.369  23.047  0.00  0.00    +0.000 Cl
ENDBRANCH   7  14
ENDBRANCH   1   9
BRANCH   5  19
ATOM     19  C   UNL     1       3.204   3.782  17.423  0.00  0.00    +0.000 C 
ATOM     20  C   UNL     1       4.132   2.586  17.151  0.00  0.00    +0.000 C 
BRANCH  19  21
ATOM     21  S   UNL     1       4.089   5.348  17.009  0.00  0.00    +0.000 S 
BRANCH  21  22
ATOM     22  C   UNL     1       5.639   5.090  17.724  0.00  0.00    +0.000 A 
ATOM     23  N   UNL     1       5.945   5.145  18.998  0.00  0.00    +0.000 NA
ATOM     24  N   UNL     1       7.292   4.882  19.117  0.00  0.00    +0.000 NA
ATOM     25  C   UNL     1       7.767   4.667  17.910  0.00  0.00    +0.000 A 
ATOM     26  N   UNL     1       6.759   4.797  17.002  0.00  0.00    +0.000 N 
ATOM     27  C   UNL     1       6.895   4.677  15.572  0.00  0.00    +0.000 C 
ENDBRANCH  21  22
ENDBRANCH  19  21
ENDBRANCH   5  19
TORSDOF 5
ENDMDL
MODEL 8
REMARK VINA RESULT:      -7.8      2.205      3.064
REMARK  Name = 
REMARK  8 active torsions:
REMARK  status: ('A' for Active; 'I' for Inactive)
REMARK    1  A    between atoms: C_1  and  C_2
REMARK    2  A    between atoms: C_4  and  C_5
REMARK    3  A    between atoms: N_7  and  C_8
REMARK    4  A    between atoms: C_12  and  C_13
REMARK    5  A    between atoms: C_13  and  C_14
REMARK    6  A    between atoms: C_13  and  S_15
REMARK    7  A    between atoms: S_15  and  C_16
REMARK    8  A    between atoms: N_20  and  C_21
REMARK                            x       y       z     vdW  Elec       q    Type
REMARK                         _______ _______ _______ _____ _____    ______ ____
ROOT
ATOM      1  C   UNL     1       2.726   5.817  18.129  0.00  0.00    +0.000 A 
ATOM      2  C   UNL     1       2.224   4.555  18.458  0.00  0.00    +0.000 A 
ATOM      3  C   UNL     1       2.780   3.397  17.929  0.00  0.00    +0.000 A 
ATOM      4  C   UNL     1       3.877   3.479  17.078  0.00  0.00    +0.000 A 
ATOM      5  C   UNL     1       4.422   4.725  16.726  0.00  0.00    +0.000 A 
ATOM      6  C   UNL     1       3.803   5.897  17.232  0.00  0.00    +0.000 A 
ENDROOT
BRANCH   1   9
ATOM      7  C   UNL     1       1.787   7.130  20.020  0.00  0.00    +0.000 C 
ATOM      8  O   UNL     1       1.835   6.247  20.872  0.00  0.00    +0.000 OA
ATOM      9  N   UNL     1       2.200   7.007  18.698  0.00  0.00    +0.000 N 
ATOM     10  H   UNL     1       2.234   7.866  18.157  0.00  0.00    +0.000 HD
BRANCH   7  14
ATOM     11  C   UNL     1       0.571  11.760  18.958  0.00  0.00    +0.000 C 
ATOM     12  C   UNL     1       0.752  10.680  19.989  0.00  0.00    +0.000 A 
ATOM     13  N   UNL     1       1.212   9.473  19.534  0.00  0.00    +0.000 NA
ATOM     14  C   UNL     1       1.305   8.476  20.457  0.00  0.00    +0.000 A 
ATOM     15  C   UNL     1       0.971   8.637  21.801  0.00  0.00    +0.000 A 
ATOM     16  C   UNL     1       0.537   9.876  22.245  0.00  0.00    +0.000 A 
ATOM     17  C   UNL     1       0.423  10.919  21.329  0.00  0.00    +0.000 A 
ATOM     18 CL   UNL     1      -0.121  12.450  21.906  0.00  0.00    +0.000 Cl
ENDBRANCH   7  14
ENDBRANCH   1   9
BRANCH   5  19
ATOM     19  C   UNL     1       5.719   4.828  15.917  0.00  0.00    +0.000 C 
ATOM     20  C   UNL     1       5.804   3.823  14.756  0.00  0.00    +0.000 C 
BRANCH  19  21
ATOM     21  S   UNL     1       7.141   4.558  17.062  0.00  0.00    +0.000 S 
BRANCH  21  22
ATOM     22  C   UNL     1       7.583   6.173  17.481  0.00  0.00    +0.000 A 
ATOM     23  N   UNL     1       7.602   7.221  16.692  0.00  0.00    +0.000 NA
ATOM     24  N   UNL     1       8.023   8.299  17.439  0.00  0.00    +0.000 NA
ATOM     25  C   UNL     1       8.241   7.878  18.665  0.00  0.00    +0.000 A 
ATOM     26  N   UNL     1       7.983   6.541  18.733  0.00  0.00    +0.000 N 
ATOM     27  C   UNL     1       8.147   5.711  19.899  0.00  0.00    +0.000 C 
ENDBRANCH  21  22
ENDBRANCH  19  21
ENDBRANCH   5  19
TORSDOF 5
ENDMDL
MODEL 9
REMARK VINA RESULT:      -7.7      1.456      2.266
REMARK  Name = 
REMARK  8 active torsions:
REMARK  status: ('A' for Active; 'I' for Inactive)
REMARK    1  A    between atoms: C_1  and  C_2
REMARK    2  A    between atoms: C_4  and  C_5
REMARK    3  A    between atoms: N_7  and  C_8
REMARK    4  A    between atoms: C_12  and  C_13
REMARK    5  A    between atoms: C_13  and  C_14
REMARK    6  A    between atoms: C_13  and  S_15
REMARK    7  A    between atoms: S_15  and  C_16
REMARK    8  A    between atoms: N_20  and  C_21
REMARK                            x       y       z     vdW  Elec       q    Type
REMARK                         _______ _______ _______ _____ _____    ______ ____
ROOT
ATOM      1  C   UNL     1       2.814   5.642  18.181  0.00  0.00    +0.000 A 
ATOM      2  C   UNL     1       2.042   4.505  17.922  0.00  0.00    +0.000 A 
ATOM      3  C   UNL     1       2.575   3.407  17.257  0.00  0.00    +0.000 A 
ATOM      4  C   UNL     1       3.909   3.414  16.863  0.00  0.00    +0.000 A 
ATOM      5  C   UNL     1       4.726   4.530  17.109  0.00  0.00    +0.000 A 
ATOM      6  C   UNL     1       4.146   5.661  17.738  0.00  0.00    +0.000 A 
ENDROOT
BRANCH   1   9
ATOM      7  C   UNL     1       2.169   8.035  18.382  0.00  0.00    +0.000 C 
ATOM      8  O   UNL     1       2.460   8.378  17.239  0.00  0.00    +0.000 OA
ATOM      9  N   UNL     1       2.299   6.751  18.901  0.00  0.00    +0.000 N 
ATOM     10  H   UNL     1       1.880   6.592  19.813  0.00  0.00    +0.000 HD
BRANCH   7  14
ATOM     11  C   UNL     1       0.441   9.379  22.769  0.00  0.00    +0.000 C 
ATOM     12  C   UNL     1       0.706   9.722  21.329  0.00  0.00    +0.000 A 
ATOM     13  N   UNL     1       1.251   8.732  20.556  0.00  0.00    +0.000 NA
ATOM     14  C   UNL     1       1.558   9.068  19.273  0.00  0.00    +0.000 A 
ATOM     15  C   UNL     1       1.337  10.334  18.734  0.00  0.00    +0.000 A 
ATOM     16  C   UNL     1       0.757  11.313  19.526  0.00  0.00    +0.000 A 
ATOM     17  C   UNL     1       0.434  11.008  20.847  0.00  0.00    +0.000 A 
ATOM     18 CL   UNL     1      -0.285  12.243  21.811  0.00  0.00    +0.000 Cl
ENDBRANCH   7  14
ENDBRANCH   1   9
BRANCH   5  19
ATOM     19  C   UNL     1       6.230   4.495  16.822  0.00  0.00    +0.000 C 
ATOM     20  C   UNL     1       7.100   4.812  18.049  0.00  0.00    +0.000 C 
BRANCH  19  21
ATOM     21  S   UNL     1       6.595   5.712  15.484  0.00  0.00    +0.000 S 
BRANCH  21  22
ATOM     22  C   UNL     1       6.517   4.730  14.067  0.00  0.00    +0.000 A 
ATOM     23  N   UNL     1       5.666   3.763  13.817  0.00  0.00    +0.000 NA
ATOM     24  N   UNL     1       5.972   3.247  12.577  0.00  0.00    +0.000 NA
ATOM     25  C   UNL     1       6.997   3.920  12.104  0.00  0.00    +0.000 A 
ATOM     26  N   UNL     1       7.377   4.859  13.016  0.00  0.00    +0.000 N 
ATOM     27  C   UNL     1       8.491   5.763  12.878  0.00  0.00    +0.000 C 
ENDBRANCH  21  22
ENDBRANCH  19  21
ENDBRANCH   5  19
TORSDOF 5
ENDMDL
