MODEL 1
REMARK VINA RESULT:      -8.8      0.000      0.000
REMARK  Name = 
REMARK  10 active torsions:
REMARK  status: ('A' for Active; 'I' for Inactive)
REMARK    1  A    between atoms: C_1  and  C_2
REMARK    2  A    between atoms: C_2  and  C_3
REMARK    3  A    between atoms: C_2  and  C_10
REMARK    4  A    between atoms: C_3  and  C_4
REMARK    5  A    between atoms: N_8  and  C_9
REMARK    6  A    between atoms: C_14  and  N_15
REMARK    7  A    between atoms: C_16  and  C_18
REMARK    8  A    between atoms: C_20  and  C_21
REMARK    9  A    between atoms: C_26  and  C_27
REMARK   10  A    between atoms: C_26  and  O_28
REMARK                            x       y       z     vdW  Elec       q    Type
REMARK                         _______ _______ _______ _____ _____    ______ ____
ROOT
ATOM      1  N   UNL     1       0.021  10.704  20.433  0.00  0.00    +0.000 N 
ATOM      2  C   UNL     1       0.500  11.835  21.093  0.00  0.00    +0.000 C 
ATOM      3  O   UNL     1       1.654  12.252  21.040  0.00  0.00    +0.000 OA
ATOM      4  H   UNL     1      -0.984  10.590  20.350  0.00  0.00    +0.000 HD
ENDROOT
BRANCH   1   9
ATOM      5  C   UNL     1       1.984   7.627  19.653  0.00  0.00    +0.000 A 
ATOM      6  C   UNL     1       2.345   7.886  18.324  0.00  0.00    +0.000 A 
ATOM      7  C   UNL     1       1.978   9.077  17.701  0.00  0.00    +0.000 A 
ATOM      8  C   UNL     1       1.215  10.019  18.386  0.00  0.00    +0.000 A 
ATOM      9  C   UNL     1       0.820   9.789  19.701  0.00  0.00    +0.000 A 
ATOM     10  C   UNL     1       1.235   8.609  20.338  0.00  0.00    +0.000 A 
BRANCH   5  12
ATOM     11  C   UNL     1       3.596   5.626  19.767  0.00  0.00    +0.000 C 
ATOM     12  C   UNL     1       2.364   6.327  20.371  0.00  0.00    +0.000 C 
BRANCH  12  13
ATOM     13  C   UNL     1       1.146   5.369  20.415  0.00  0.00    +0.000 C 
BRANCH  13  14
ATOM     14  C   UNL     1       1.372   4.109  19.648  0.00  0.00    +0.000 A 
ATOM     15  N   UNL     1       1.346   3.976  18.337  0.00  0.00    +0.000 NA
ATOM     16  N   UNL     1       1.542   2.649  18.036  0.00  0.00    +0.000 NA
ATOM     17  C   UNL     1       1.697   2.003  19.167  0.00  0.00    +0.000 A 
ATOM     18  N   UNL     1       1.619   2.879  20.203  0.00  0.00    +0.000 N 
ATOM     19  C   UNL     1       1.770   2.560  21.597  0.00  0.00    +0.000 C 
ENDBRANCH  13  14
ENDBRANCH  12  13
ENDBRANCH   5  12
ENDBRANCH   1   9
BRANCH   2  20
ATOM     20  C   UNL     1      -0.498  12.618  21.892  0.00  0.00    +0.000 A 
ATOM     21  C   UNL     1      -1.826  12.236  21.982  0.00  0.00    +0.000 A 
ATOM     22  C   UNL     1      -2.667  12.999  22.795  0.00  0.00    +0.000 A 
ATOM     23  C   UNL     1      -2.180  14.149  23.417  0.00  0.00    +0.000 A 
ATOM     24  C   UNL     1      -0.833  14.421  23.308  0.00  0.00    +0.000 A 
ATOM     25  N   UNL     1       0.010  13.682  22.567  0.00  0.00    +0.000 NA
BRANCH  22  26
ATOM     26  C   UNL     1      -4.080  12.572  22.922  0.00  0.00    +0.000 C 
ATOM     27  O   UNL     1      -4.383  12.005  23.972  0.00  0.00    +0.000 OA
ATOM     28  N   UNL     1      -4.995  12.822  21.900  0.00  0.00    +0.000 N 
ATOM     29  C   UNL     1      -4.798  13.676  20.725  0.00  0.00    +0.000 C 
ATOM     30  C   UNL     1      -5.146  12.882  19.466  0.00  0.00    +0.000 C 
ATOM     31  C   UNL     1      -6.608  12.412  19.529  0.00  0.00    +0.000 C 
ATOM     32  C   UNL     1      -6.971  11.568  18.306  0.00  0.00    +0.000 C 
ATOM     33  C   UNL     1      -6.861  11.624  20.825  0.00  0.00    +0.000 C 
ATOM     34  C   UNL     1      -6.380  12.378  22.065  0.00  0.00    +0.000 C 
BRANCH  31  35
ATOM     35  O   UNL     1      -7.461  13.562  19.526  0.00  0.00    +0.000 OA
ATOM     36  H   UNL     1      -7.301  14.062  20.345  0.00  0.00    +0.000 HD
ENDBRANCH  31  35
ENDBRANCH  22  26
ENDBRANCH   2  20
TORSDOF 7
ENDMDL
MODEL 2
REMARK VINA RESULT:      -8.5      3.886      6.611
REMARK  Name = 
REMARK  10 active torsions:
REMARK  status: ('A' for Active; 'I' for Inactive)
REMARK    1  A    between atoms: C_1  and  C_2
REMARK    2  A    between atoms: C_2  and  C_3
REMARK    3  A    between atoms: C_2  and  C_10
REMARK    4  A    between atoms: C_3  and  C_4
REMARK    5  A    between atoms: N_8  and  C_9
REMARK    6  A    between atoms: C_14  and  N_15
REMARK    7  A    between atoms: C_16  and  C_18
REMARK    8  A    between atoms: C_20  and  C_21
REMARK    9  A    between atoms: C_26  and  C_27
REMARK   10  A    between atoms: C_26  and  O_28
REMARK                            x       y       z     vdW  Elec       q    Type
REMARK                         _______ _______ _______ _____ _____    ______ ____
ROOT
ATOM      1  N   UNL     1       2.070   6.367  19.274  0.00  0.00    +0.000 N 
ATOM      2  C   UNL     1       1.999   7.711  18.911  0.00  0.00    +0.000 C 
ATOM      3  O   UNL     1       2.294   8.165  17.808  0.00  0.00    +0.000 OA
ATOM      4  H   UNL     1       1.581   6.073  20.113  0.00  0.00    +0.000 HD
ENDROOT
BRANCH   1   9
ATOM      5  C   UNL     1       4.335   4.645  16.859  0.00  0.00    +0.000 A 
ATOM      6  C   UNL     1       3.801   3.350  16.889  0.00  0.00    +0.000 A 
ATOM      7  C   UNL     1       2.684   3.053  17.668  0.00  0.00    +0.000 A 
ATOM      8  C   UNL     1       2.099   4.040  18.456  0.00  0.00    +0.000 A 
ATOM      9  C   UNL     1       2.613   5.334  18.469  0.00  0.00    +0.000 A 
ATOM     10  C   UNL     1       3.708   5.637  17.645  0.00  0.00    +0.000 A 
BRANCH   5  12
ATOM     11  C   UNL     1       5.702   4.175  14.732  0.00  0.00    +0.000 C 
ATOM     12  C   UNL     1       5.565   5.009  16.021  0.00  0.00    +0.000 C 
BRANCH  12  13
ATOM     13  C   UNL     1       6.847   4.907  16.885  0.00  0.00    +0.000 C 
BRANCH  13  14
ATOM     14  C   UNL     1       7.340   6.237  17.351  0.00  0.00    +0.000 A 
ATOM     15  N   UNL     1       7.405   7.341  16.636  0.00  0.00    +0.000 NA
ATOM     16  N   UNL     1       7.970   8.324  17.413  0.00  0.00    +0.000 NA
ATOM     17  C   UNL     1       8.226   7.804  18.589  0.00  0.00    +0.000 A 
ATOM     18  N   UNL     1       7.828   6.504  18.605  0.00  0.00    +0.000 N 
ATOM     19  C   UNL     1       7.911   5.605  19.724  0.00  0.00    +0.000 C 
ENDBRANCH  13  14
ENDBRANCH  12  13
ENDBRANCH   5  12
ENDBRANCH   1   9
BRANCH   2  20
ATOM     20  C   UNL     1       1.477   8.659  19.948  0.00  0.00    +0.000 A 
ATOM     21  C   UNL     1       0.949   9.895  19.612  0.00  0.00    +0.000 A 
ATOM     22  C   UNL     1       0.438  10.685  20.643  0.00  0.00    +0.000 A 
ATOM     23  C   UNL     1       0.543  10.257  21.967  0.00  0.00    +0.000 A 
ATOM     24  C   UNL     1       1.039   8.991  22.199  0.00  0.00    +0.000 A 
ATOM     25  N   UNL     1       1.501   8.191  21.223  0.00  0.00    +0.000 NA
BRANCH  22  26
ATOM     26  C   UNL     1      -0.160  11.991  20.282  0.00  0.00    +0.000 C 
ATOM     27  O   UNL     1      -1.375  11.994  20.081  0.00  0.00    +0.000 OA
ATOM     28  N   UNL     1       0.629  13.137  20.197  0.00  0.00    +0.000 N 
ATOM     29  C   UNL     1       2.021  13.288  20.632  0.00  0.00    +0.000 C 
ATOM     30  C   UNL     1       2.845  13.860  19.478  0.00  0.00    +0.000 C 
ATOM     31  C   UNL     1       2.281  15.227  19.057  0.00  0.00    +0.000 C 
ATOM     32  C   UNL     1       3.053  15.801  17.868  0.00  0.00    +0.000 C 
ATOM     33  C   UNL     1       0.784  15.107  18.723  0.00  0.00    +0.000 C 
ATOM     34  C   UNL     1      -0.002  14.406  19.832  0.00  0.00    +0.000 C 
BRANCH  31  35
ATOM     35  O   UNL     1       2.428  16.142  20.148  0.00  0.00    +0.000 OA
ATOM     36  H   UNL     1       3.224  15.892  20.649  0.00  0.00    +0.000 HD
ENDBRANCH  31  35
ENDBRANCH  22  26
ENDBRANCH   2  20
TORSDOF 7
ENDMDL
MODEL 3
REMARK VINA RESULT:      -8.5      4.286      6.672
REMARK  Name = 
REMARK  10 active torsions:
REMARK  status: ('A' for Active; 'I' for Inactive)
REMARK    1  A    between atoms: C_1  and  C_2
REMARK    2  A    between atoms: C_2  and  C_3
REMARK    3  A    between atoms: C_2  and  C_10
REMARK    4  A    between atoms: C_3  and  C_4
REMARK    5  A    between atoms: N_8  and  C_9
REMARK    6  A    between atoms: C_14  and  N_15
REMARK    7  A    between atoms: C_16  and  C_18
REMARK    8  A    between atoms: C_20  and  C_21
REMARK    9  A    between atoms: C_26  and  C_27
REMARK   10  A    between atoms: C_26  and  O_28
REMARK                            x       y       z     vdW  Elec       q    Type
REMARK                         _______ _______ _______ _____ _____    ______ ____
ROOT
ATOM      1  N   UNL     1       2.276   6.614  19.999  0.00  0.00    +0.000 N 
ATOM      2  C   UNL     1       1.872   7.834  19.460  0.00  0.00    +0.000 C 
ATOM      3  O   UNL     1       1.956   8.150  18.276  0.00  0.00    +0.000 OA
ATOM      4  H   UNL     1       1.943   6.368  20.926  0.00  0.00    +0.000 HD
ENDROOT
BRANCH   1   9
ATOM      5  C   UNL     1       4.589   5.023  17.540  0.00  0.00    +0.000 A 
ATOM      6  C   UNL     1       4.415   3.671  17.865  0.00  0.00    +0.000 A 
ATOM      7  C   UNL     1       3.519   3.283  18.859  0.00  0.00    +0.000 A 
ATOM      8  C   UNL     1       2.802   4.242  19.569  0.00  0.00    +0.000 A 
ATOM      9  C   UNL     1       2.962   5.597  19.288  0.00  0.00    +0.000 A 
ATOM     10  C   UNL     1       3.830   5.978  18.253  0.00  0.00    +0.000 A 
BRANCH   5  12
ATOM     11  C   UNL     1       5.076   6.720  15.669  0.00  0.00    +0.000 C 
ATOM     12  C   UNL     1       5.569   5.490  16.458  0.00  0.00    +0.000 C 
BRANCH  12  13
ATOM     13  C   UNL     1       5.905   4.317  15.503  0.00  0.00    +0.000 C 
BRANCH  13  14
ATOM     14  C   UNL     1       6.828   4.713  14.400  0.00  0.00    +0.000 A 
ATOM     15  N   UNL     1       7.857   5.531  14.497  0.00  0.00    +0.000 NA
ATOM     16  N   UNL     1       8.408   5.678  13.246  0.00  0.00    +0.000 NA
ATOM     17  C   UNL     1       7.714   4.939  12.415  0.00  0.00    +0.000 A 
ATOM     18  N   UNL     1       6.726   4.299  13.096  0.00  0.00    +0.000 N 
ATOM     19  C   UNL     1       5.775   3.375  12.542  0.00  0.00    +0.000 C 
ENDBRANCH  13  14
ENDBRANCH  12  13
ENDBRANCH   5  12
ENDBRANCH   1   9
BRANCH   2  20
ATOM     20  C   UNL     1       1.246   8.812  20.408  0.00  0.00    +0.000 A 
ATOM     21  C   UNL     1       0.757  10.035  19.982  0.00  0.00    +0.000 A 
ATOM     22  C   UNL     1       0.142  10.855  20.931  0.00  0.00    +0.000 A 
ATOM     23  C   UNL     1       0.109  10.467  22.271  0.00  0.00    +0.000 A 
ATOM     24  C   UNL     1       0.578   9.210  22.591  0.00  0.00    +0.000 A 
ATOM     25  N   UNL     1       1.137   8.382  21.693  0.00  0.00    +0.000 NA
BRANCH  22  26
ATOM     26  C   UNL     1      -0.415  12.149  20.471  0.00  0.00    +0.000 C 
ATOM     27  O   UNL     1      -1.624  12.168  20.242  0.00  0.00    +0.000 OA
ATOM     28  N   UNL     1       0.406  13.266  20.326  0.00  0.00    +0.000 N 
ATOM     29  C   UNL     1       1.792  13.412  20.780  0.00  0.00    +0.000 C 
ATOM     30  C   UNL     1       2.654  13.885  19.610  0.00  0.00    +0.000 C 
ATOM     31  C   UNL     1       2.134  15.233  19.086  0.00  0.00    +0.000 C 
ATOM     32  C   UNL     1       2.945  15.707  17.879  0.00  0.00    +0.000 C 
ATOM     33  C   UNL     1       0.643  15.128  18.728  0.00  0.00    +0.000 C 
ATOM     34  C   UNL     1      -0.184  14.523  19.864  0.00  0.00    +0.000 C 
BRANCH  31  35
ATOM     35  O   UNL     1       2.284  16.216  20.116  0.00  0.00    +0.000 OA
ATOM     36  H   UNL     1       1.887  17.047  19.804  0.00  0.00    +0.000 HD
ENDBRANCH  31  35
ENDBRANCH  22  26
ENDBRANCH   2  20
TORSDOF 7
ENDMDL
MODEL 4
REMARK VINA RESULT:      -8.5      3.851     10.439
REMARK  Name = 
REMARK  10 active torsions:
REMARK  status: ('A' for Active; 'I' for Inactive)
REMARK    1  A    between atoms: C_1  and  C_2
REMARK    2  A    between atoms: C_2  and  C_3
REMARK    3  A    between atoms: C_2  and  C_10
REMARK    4  A    between atoms: C_3  and  C_4
REMARK    5  A    between atoms: N_8  and  C_9
REMARK    6  A    between atoms: C_14  and  N_15
REMARK    7  A    between atoms: C_16  and  C_18
REMARK    8  A    between atoms: C_20  and  C_21
REMARK    9  A    between atoms: C_26  and  C_27
REMARK   10  A    between atoms: C_26  and  O_28
REMARK                            x       y       z     vdW  Elec       q    Type
REMARK                         _______ _______ _______ _____ _____    ______ ____
ROOT
ATOM      1  N   UNL     1       0.380   7.805  21.357  0.00  0.00    +0.000 N 
ATOM      2  C   UNL     1       1.408   7.548  20.451  0.00  0.00    +0.000 C 
ATOM      3  O   UNL     1       2.047   8.403  19.843  0.00  0.00    +0.000 OA
ATOM      4  H   UNL     1       0.090   7.053  21.974  0.00  0.00    +0.000 HD
ENDROOT
BRANCH   1   9
ATOM      5  C   UNL     1      -1.053  11.192  20.720  0.00  0.00    +0.000 A 
ATOM      6  C   UNL     1      -1.323  11.604  22.032  0.00  0.00    +0.000 A 
ATOM      7  C   UNL     1      -1.005  10.791  23.118  0.00  0.00    +0.000 A 
ATOM      8  C   UNL     1      -0.438   9.537  22.912  0.00  0.00    +0.000 A 
ATOM      9  C   UNL     1      -0.172   9.084  21.622  0.00  0.00    +0.000 A 
ATOM     10  C   UNL     1      -0.450   9.927  20.535  0.00  0.00    +0.000 A 
BRANCH   5  12
ATOM     11  C   UNL     1      -1.126  13.556  19.712  0.00  0.00    +0.000 C 
ATOM     12  C   UNL     1      -1.393  12.053  19.500  0.00  0.00    +0.000 C 
BRANCH  12  13
ATOM     13  C   UNL     1      -2.861  11.807  19.068  0.00  0.00    +0.000 C 
BRANCH  13  14
ATOM     14  C   UNL     1      -2.975  11.255  17.686  0.00  0.00    +0.000 A 
ATOM     15  N   UNL     1      -2.054  10.568  17.041  0.00  0.00    +0.000 NA
ATOM     16  N   UNL     1      -2.526  10.297  15.778  0.00  0.00    +0.000 NA
ATOM     17  C   UNL     1      -3.729  10.811  15.684  0.00  0.00    +0.000 A 
ATOM     18  N   UNL     1      -4.061  11.403  16.862  0.00  0.00    +0.000 N 
ATOM     19  C   UNL     1      -5.309  12.050  17.164  0.00  0.00    +0.000 C 
ENDBRANCH  13  14
ENDBRANCH  12  13
ENDBRANCH   5  12
ENDBRANCH   1   9
BRANCH   2  20
ATOM     20  C   UNL     1       1.779   6.111  20.247  0.00  0.00    +0.000 A 
ATOM     21  C   UNL     1       3.052   5.731  19.856  0.00  0.00    +0.000 A 
ATOM     22  C   UNL     1       3.317   4.365  19.746  0.00  0.00    +0.000 A 
ATOM     23  C   UNL     1       2.294   3.437  19.946  0.00  0.00    +0.000 A 
ATOM     24  C   UNL     1       1.072   3.908  20.380  0.00  0.00    +0.000 A 
ATOM     25  N   UNL     1       0.799   5.215  20.536  0.00  0.00    +0.000 NA
BRANCH  22  26
ATOM     26  C   UNL     1       4.688   3.955  19.363  0.00  0.00    +0.000 C 
ATOM     27  O   UNL     1       5.134   2.957  19.930  0.00  0.00    +0.000 OA
ATOM     28  N   UNL     1       5.404   4.669  18.403  0.00  0.00    +0.000 N 
ATOM     29  C   UNL     1       4.892   5.718  17.516  0.00  0.00    +0.000 C 
ATOM     30  C   UNL     1       5.784   6.953  17.636  0.00  0.00    +0.000 C 
ATOM     31  C   UNL     1       7.228   6.599  17.244  0.00  0.00    +0.000 C 
ATOM     32  C   UNL     1       8.156   7.804  17.405  0.00  0.00    +0.000 C 
ATOM     33  C   UNL     1       7.732   5.411  18.080  0.00  0.00    +0.000 C 
ATOM     34  C   UNL     1       6.758   4.232  18.059  0.00  0.00    +0.000 C 
BRANCH  31  35
ATOM     35  O   UNL     1       7.250   6.221  15.863  0.00  0.00    +0.000 OA
ATOM     36  H   UNL     1       6.638   5.474  15.742  0.00  0.00    +0.000 HD
ENDBRANCH  31  35
ENDBRANCH  22  26
ENDBRANCH   2  20
TORSDOF 7
ENDMDL
MODEL 5
REMARK VINA RESULT:      -8.5      8.069     12.500
REMARK  Name = 
REMARK  10 active torsions:
REMARK  status: ('A' for Active; 'I' for Inactive)
REMARK    1  A    between atoms: C_1  and  C_2
REMARK    2  A    between atoms: C_2  and  C_3
REMARK    3  A    between atoms: C_2  and  C_10
REMARK    4  A    between atoms: C_3  and  C_4
REMARK    5  A    between atoms: N_8  and  C_9
REMARK    6  A    between atoms: C_14  and  N_15
REMARK    7  A    between atoms: C_16  and  C_18
REMARK    8  A    between atoms: C_20  and  C_21
REMARK    9  A    between atoms: C_26  and  C_27
REMARK   10  A    between atoms: C_26  and  O_28
REMARK                            x       y       z     vdW  Elec       q    Type
REMARK                         _______ _______ _______ _____ _____    ______ ____
ROOT
ATOM      1  N   UNL     1       7.916   9.142  17.921  0.00  0.00    +0.000 N 
ATOM      2  C   UNL     1       7.947   7.777  18.205  0.00  0.00    +0.000 C 
ATOM      3  O   UNL     1       8.674   7.242  19.038  0.00  0.00    +0.000 OA
ATOM      4  H   UNL     1       7.123   9.503  17.402  0.00  0.00    +0.000 HD
ENDROOT
BRANCH   1   9
ATOM      5  C   UNL     1      10.003  12.227  18.146  0.00  0.00    +0.000 A 
ATOM      6  C   UNL     1      10.507  12.099  19.447  0.00  0.00    +0.000 A 
ATOM      7  C   UNL     1      10.192  10.991  20.231  0.00  0.00    +0.000 A 
ATOM      8  C   UNL     1       9.343  10.004  19.740  0.00  0.00    +0.000 A 
ATOM      9  C   UNL     1       8.807  10.105  18.458  0.00  0.00    +0.000 A 
ATOM     10  C   UNL     1       9.166  11.200  17.657  0.00  0.00    +0.000 A 
BRANCH   5  12
ATOM     11  C   UNL     1      11.826  13.613  16.974  0.00  0.00    +0.000 C 
ATOM     12  C   UNL     1      10.321  13.433  17.255  0.00  0.00    +0.000 C 
BRANCH  12  13
ATOM     13  C   UNL     1       9.713  14.720  17.867  0.00  0.00    +0.000 C 
BRANCH  13  14
ATOM     14  C   UNL     1      10.671  15.864  17.882  0.00  0.00    +0.000 A 
ATOM     15  N   UNL     1      10.892  16.713  16.899  0.00  0.00    +0.000 NA
ATOM     16  N   UNL     1      11.887  17.576  17.291  0.00  0.00    +0.000 NA
ATOM     17  C   UNL     1      12.245  17.245  18.509  0.00  0.00    +0.000 A 
ATOM     18  N   UNL     1      11.495  16.191  18.929  0.00  0.00    +0.000 N 
ATOM     19  C   UNL     1      11.568  15.560  20.219  0.00  0.00    +0.000 C 
ENDBRANCH  13  14
ENDBRANCH  12  13
ENDBRANCH   5  12
ENDBRANCH   1   9
BRANCH   2  20
ATOM     20  C   UNL     1       6.977   6.914  17.456  0.00  0.00    +0.000 A 
ATOM     21  C   UNL     1       5.669   6.746  17.876  0.00  0.00    +0.000 A 
ATOM     22  C   UNL     1       4.826   5.967  17.082  0.00  0.00    +0.000 A 
ATOM     23  C   UNL     1       5.332   5.322  15.952  0.00  0.00    +0.000 A 
ATOM     24  C   UNL     1       6.634   5.588  15.586  0.00  0.00    +0.000 A 
ATOM     25  N   UNL     1       7.458   6.367  16.308  0.00  0.00    +0.000 NA
BRANCH  22  26
ATOM     26  C   UNL     1       3.416   5.815  17.510  0.00  0.00    +0.000 C 
ATOM     27  O   UNL     1       2.683   6.786  17.317  0.00  0.00    +0.000 OA
ATOM     28  N   UNL     1       2.970   4.626  18.085  0.00  0.00    +0.000 N 
ATOM     29  C   UNL     1       3.689   3.351  18.152  0.00  0.00    +0.000 C 
ATOM     30  C   UNL     1       3.706   2.862  19.600  0.00  0.00    +0.000 C 
ATOM     31  C   UNL     1       2.267   2.676  20.108  0.00  0.00    +0.000 C 
ATOM     32  C   UNL     1       2.250   2.238  21.574  0.00  0.00    +0.000 C 
ATOM     33  C   UNL     1       1.462   3.973  19.922  0.00  0.00    +0.000 C 
ATOM     34  C   UNL     1       1.569   4.522  18.498  0.00  0.00    +0.000 C 
BRANCH  31  35
ATOM     35  O   UNL     1       1.639   1.641  19.344  0.00  0.00    +0.000 OA
ATOM     36  H   UNL     1       0.969   2.050  18.769  0.00  0.00    +0.000 HD
ENDBRANCH  31  35
ENDBRANCH  22  26
ENDBRANCH   2  20
TORSDOF 7
ENDMDL
MODEL 6
REMARK VINA RESULT:      -8.4      3.596      5.060
REMARK  Name = 
REMARK  10 active torsions:
REMARK  status: ('A' for Active; 'I' for Inactive)
REMARK    1  A    between atoms: C_1  and  C_2
REMARK    2  A    between atoms: C_2  and  C_3
REMARK    3  A    between atoms: C_2  and  C_10
REMARK    4  A    between atoms: C_3  and  C_4
REMARK    5  A    between atoms: N_8  and  C_9
REMARK    6  A    between atoms: C_14  and  N_15
REMARK    7  A    between atoms: C_16  and  C_18
REMARK    8  A    between atoms: C_20  and  C_21
REMARK    9  A    between atoms: C_26  and  C_27
REMARK   10  A    between atoms: C_26  and  O_28
REMARK                            x       y       z     vdW  Elec       q    Type
REMARK                         _______ _______ _______ _____ _____    ______ ____
ROOT
ATOM      1  N   UNL     1       1.872   8.411  18.454  0.00  0.00    +0.000 N 
ATOM      2  C   UNL     1       1.256   9.125  19.481  0.00  0.00    +0.000 C 
ATOM      3  O   UNL     1       1.337   8.859  20.677  0.00  0.00    +0.000 OA
ATOM      4  H   UNL     1       1.940   8.850  17.542  0.00  0.00    +0.000 HD
ENDROOT
BRANCH   1   9
ATOM      5  C   UNL     1       4.201   5.594  17.698  0.00  0.00    +0.000 A 
ATOM      6  C   UNL     1       4.083   4.843  18.875  0.00  0.00    +0.000 A 
ATOM      7  C   UNL     1       3.218   5.240  19.894  0.00  0.00    +0.000 A 
ATOM      8  C   UNL     1       2.478   6.412  19.767  0.00  0.00    +0.000 A 
ATOM      9  C   UNL     1       2.583   7.195  18.621  0.00  0.00    +0.000 A 
ATOM     10  C   UNL     1       3.419   6.765  17.579  0.00  0.00    +0.000 A 
BRANCH   5  12
ATOM     11  C   UNL     1       4.697   3.929  15.801  0.00  0.00    +0.000 C 
ATOM     12  C   UNL     1       5.145   5.195  16.558  0.00  0.00    +0.000 C 
BRANCH  12  13
ATOM     13  C   UNL     1       6.590   5.037  17.095  0.00  0.00    +0.000 C 
BRANCH  13  14
ATOM     14  C   UNL     1       7.204   6.336  17.497  0.00  0.00    +0.000 A 
ATOM     15  N   UNL     1       7.217   7.448  16.789  0.00  0.00    +0.000 NA
ATOM     16  N   UNL     1       7.932   8.393  17.486  0.00  0.00    +0.000 NA
ATOM     17  C   UNL     1       8.328   7.844  18.609  0.00  0.00    +0.000 A 
ATOM     18  N   UNL     1       7.878   6.563  18.670  0.00  0.00    +0.000 N 
ATOM     19  C   UNL     1       8.078   5.645  19.758  0.00  0.00    +0.000 C 
ENDBRANCH  13  14
ENDBRANCH  12  13
ENDBRANCH   5  12
ENDBRANCH   1   9
BRANCH   2  20
ATOM     20  C   UNL     1       0.471  10.336  19.078  0.00  0.00    +0.000 A 
ATOM     21  C   UNL     1      -0.672  10.244  18.301  0.00  0.00    +0.000 A 
ATOM     22  C   UNL     1      -1.365  11.424  18.024  0.00  0.00    +0.000 A 
ATOM     23  C   UNL     1      -0.857  12.650  18.456  0.00  0.00    +0.000 A 
ATOM     24  C   UNL     1       0.260  12.637  19.264  0.00  0.00    +0.000 A 
ATOM     25  N   UNL     1       0.926  11.513  19.583  0.00  0.00    +0.000 NA
BRANCH  22  26
ATOM     26  C   UNL     1      -2.608  11.324  17.223  0.00  0.00    +0.000 C 
ATOM     27  O   UNL     1      -2.466  11.034  16.035  0.00  0.00    +0.000 OA
ATOM     28  N   UNL     1      -3.853  11.539  17.812  0.00  0.00    +0.000 N 
ATOM     29  C   UNL     1      -4.147  11.663  19.242  0.00  0.00    +0.000 C 
ATOM     30  C   UNL     1      -4.943  12.947  19.479  0.00  0.00    +0.000 C 
ATOM     31  C   UNL     1      -6.256  12.906  18.680  0.00  0.00    +0.000 C 
ATOM     32  C   UNL     1      -7.050  14.202  18.855  0.00  0.00    +0.000 C 
ATOM     33  C   UNL     1      -5.967  12.645  17.192  0.00  0.00    +0.000 C 
ATOM     34  C   UNL     1      -5.055  11.435  16.982  0.00  0.00    +0.000 C 
BRANCH  31  35
ATOM     35  O   UNL     1      -7.065  11.836  19.178  0.00  0.00    +0.000 OA
ATOM     36  H   UNL     1      -6.622  11.456  19.956  0.00  0.00    +0.000 HD
ENDBRANCH  31  35
ENDBRANCH  22  26
ENDBRANCH   2  20
TORSDOF 7
ENDMDL
MODEL 7
REMARK VINA RESULT:      -8.3      3.704      5.302
REMARK  Name = 
REMARK  10 active torsions:
REMARK  status: ('A' for Active; 'I' for Inactive)
REMARK    1  A    between atoms: C_1  and  C_2
REMARK    2  A    between atoms: C_2  and  C_3
REMARK    3  A    between atoms: C_2  and  C_10
REMARK    4  A    between atoms: C_3  and  C_4
REMARK    5  A    between atoms: N_8  and  C_9
REMARK    6  A    between atoms: C_14  and  N_15
REMARK    7  A    between atoms: C_16  and  C_18
REMARK    8  A    between atoms: C_20  and  C_21
REMARK    9  A    between atoms: C_26  and  C_27
REMARK   10  A    between atoms: C_26  and  O_28
REMARK                            x       y       z     vdW  Elec       q    Type
REMARK                         _______ _______ _______ _____ _____    ______ ____
ROOT
ATOM      1  N   UNL     1       2.031   6.412  20.802  0.00  0.00    +0.000 N 
ATOM      2  C   UNL     1       1.801   7.635  20.174  0.00  0.00    +0.000 C 
ATOM      3  O   UNL     1       2.132   7.914  19.024  0.00  0.00    +0.000 OA
ATOM      4  H   UNL     1       1.511   6.206  21.649  0.00  0.00    +0.000 HD
ENDROOT
BRANCH   1   9
ATOM      5  C   UNL     1       4.860   4.633  19.141  0.00  0.00    +0.000 A 
ATOM      6  C   UNL     1       4.405   3.309  19.212  0.00  0.00    +0.000 A 
ATOM      7  C   UNL     1       3.163   3.008  19.768  0.00  0.00    +0.000 A 
ATOM      8  C   UNL     1       2.366   4.022  20.293  0.00  0.00    +0.000 A 
ATOM      9  C   UNL     1       2.793   5.347  20.258  0.00  0.00    +0.000 A 
ATOM     10  C   UNL     1       4.022   5.649  19.653  0.00  0.00    +0.000 A 
BRANCH   5  12
ATOM     11  C   UNL     1       7.231   5.525  19.583  0.00  0.00    +0.000 C 
ATOM     12  C   UNL     1       6.221   5.005  18.542  0.00  0.00    +0.000 C 
BRANCH  12  13
ATOM     13  C   UNL     1       6.034   6.026  17.391  0.00  0.00    +0.000 C 
BRANCH  13  14
ATOM     14  C   UNL     1       6.492   5.502  16.071  0.00  0.00    +0.000 A 
ATOM     15  N   UNL     1       7.605   5.826  15.444  0.00  0.00    +0.000 NA
ATOM     16  N   UNL     1       7.623   5.172  14.235  0.00  0.00    +0.000 NA
ATOM     17  C   UNL     1       6.529   4.453  14.154  0.00  0.00    +0.000 A 
ATOM     18  N   UNL     1       5.800   4.611  15.291  0.00  0.00    +0.000 N 
ATOM     19  C   UNL     1       4.553   3.963  15.595  0.00  0.00    +0.000 C 
ENDBRANCH  13  14
ENDBRANCH  12  13
ENDBRANCH   5  12
ENDBRANCH   1   9
BRANCH   2  20
ATOM     20  C   UNL     1       1.050   8.664  20.963  0.00  0.00    +0.000 A 
ATOM     21  C   UNL     1       0.157   9.537  20.365  0.00  0.00    +0.000 A 
ATOM     22  C   UNL     1      -0.536  10.424  21.192  0.00  0.00    +0.000 A 
ATOM     23  C   UNL     1      -0.257  10.466  22.558  0.00  0.00    +0.000 A 
ATOM     24  C   UNL     1       0.612   9.525  23.069  0.00  0.00    +0.000 A 
ATOM     25  N   UNL     1       1.262   8.631  22.305  0.00  0.00    +0.000 NA
BRANCH  22  26
ATOM     26  C   UNL     1      -1.519  11.334  20.559  0.00  0.00    +0.000 C 
ATOM     27  O   UNL     1      -2.144  12.071  21.322  0.00  0.00    +0.000 OA
ATOM     28  N   UNL     1      -1.696  11.343  19.177  0.00  0.00    +0.000 N 
ATOM     29  C   UNL     1      -0.858  10.681  18.173  0.00  0.00    +0.000 C 
ATOM     30  C   UNL     1      -1.744   9.829  17.264  0.00  0.00    +0.000 C 
ATOM     31  C   UNL     1      -2.788  10.717  16.567  0.00  0.00    +0.000 C 
ATOM     32  C   UNL     1      -3.726   9.884  15.691  0.00  0.00    +0.000 C 
ATOM     33  C   UNL     1      -3.589  11.518  17.608  0.00  0.00    +0.000 C 
ATOM     34  C   UNL     1      -2.682  12.255  18.594  0.00  0.00    +0.000 C 
BRANCH  31  35
ATOM     35  O   UNL     1      -2.108  11.641  15.711  0.00  0.00    +0.000 OA
ATOM     36  H   UNL     1      -1.672  12.309  16.269  0.00  0.00    +0.000 HD
ENDBRANCH  31  35
ENDBRANCH  22  26
ENDBRANCH   2  20
TORSDOF 7
ENDMDL
MODEL 8
REMARK VINA RESULT:      -8.3      3.867      6.578
REMARK  Name = 
REMARK  10 active torsions:
REMARK  status: ('A' for Active; 'I' for Inactive)
REMARK    1  A    between atoms: C_1  and  C_2
REMARK    2  A    between atoms: C_2  and  C_3
REMARK    3  A    between atoms: C_2  and  C_10
REMARK    4  A    between atoms: C_3  and  C_4
REMARK    5  A    between atoms: N_8  and  C_9
REMARK    6  A    between atoms: C_14  and  N_15
REMARK    7  A    between atoms: C_16  and  C_18
REMARK    8  A    between atoms: C_20  and  C_21
REMARK    9  A    between atoms: C_26  and  C_27
REMARK   10  A    between atoms: C_26  and  O_28
REMARK                            x       y       z     vdW  Elec       q    Type
REMARK                         _______ _______ _______ _____ _____    ______ ____
ROOT
ATOM      1  N   UNL     1       2.371   6.488  19.202  0.00  0.00    +0.000 N 
ATOM      2  C   UNL     1       2.098   7.789  18.783  0.00  0.00    +0.000 C 
ATOM      3  O   UNL     1       2.264   8.217  17.643  0.00  0.00    +0.000 OA
ATOM      4  H   UNL     1       1.976   6.179  20.084  0.00  0.00    +0.000 HD
ENDROOT
BRANCH   1   9
ATOM      5  C   UNL     1       4.659   4.960  16.681  0.00  0.00    +0.000 A 
ATOM      6  C   UNL     1       4.352   3.603  16.848  0.00  0.00    +0.000 A 
ATOM      7  C   UNL     1       3.376   3.197  17.756  0.00  0.00    +0.000 A 
ATOM      8  C   UNL     1       2.710   4.138  18.536  0.00  0.00    +0.000 A 
ATOM      9  C   UNL     1       3.001   5.494  18.413  0.00  0.00    +0.000 A 
ATOM     10  C   UNL     1       3.951   5.900  17.462  0.00  0.00    +0.000 A 
BRANCH   5  12
ATOM     11  C   UNL     1       5.409   5.122  14.226  0.00  0.00    +0.000 C 
ATOM     12  C   UNL     1       5.729   5.447  15.698  0.00  0.00    +0.000 C 
BRANCH  12  13
ATOM     13  C   UNL     1       7.116   4.884  16.101  0.00  0.00    +0.000 C 
BRANCH  13  14
ATOM     14  C   UNL     1       7.515   5.263  17.487  0.00  0.00    +0.000 A 
ATOM     15  N   UNL     1       7.785   4.436  18.478  0.00  0.00    +0.000 NA
ATOM     16  N   UNL     1       8.052   5.182  19.601  0.00  0.00    +0.000 NA
ATOM     17  C   UNL     1       7.953   6.448  19.271  0.00  0.00    +0.000 A 
ATOM     18  N   UNL     1       7.639   6.548  17.952  0.00  0.00    +0.000 N 
ATOM     19  C   UNL     1       7.476   7.768  17.209  0.00  0.00    +0.000 C 
ENDBRANCH  13  14
ENDBRANCH  12  13
ENDBRANCH   5  12
ENDBRANCH   1   9
BRANCH   2  20
ATOM     20  C   UNL     1       1.513   8.716  19.806  0.00  0.00    +0.000 A 
ATOM     21  C   UNL     1       0.958   9.935  19.458  0.00  0.00    +0.000 A 
ATOM     22  C   UNL     1       0.389  10.704  20.475  0.00  0.00    +0.000 A 
ATOM     23  C   UNL     1       0.465  10.273  21.801  0.00  0.00    +0.000 A 
ATOM     24  C   UNL     1       0.994   9.023  22.044  0.00  0.00    +0.000 A 
ATOM     25  N   UNL     1       1.511   8.242  21.080  0.00  0.00    +0.000 NA
BRANCH  22  26
ATOM     26  C   UNL     1      -0.238  11.993  20.101  0.00  0.00    +0.000 C 
ATOM     27  O   UNL     1      -1.434  11.950  19.812  0.00  0.00    +0.000 OA
ATOM     28  N   UNL     1       0.505  13.172  20.097  0.00  0.00    +0.000 N 
ATOM     29  C   UNL     1       1.854  13.371  20.634  0.00  0.00    +0.000 C 
ATOM     30  C   UNL     1       2.733  14.005  19.556  0.00  0.00    +0.000 C 
ATOM     31  C   UNL     1       2.140  15.357  19.124  0.00  0.00    +0.000 C 
ATOM     32  C   UNL     1       2.970  15.992  18.007  0.00  0.00    +0.000 C 
ATOM     33  C   UNL     1       0.679  15.182  18.680  0.00  0.00    +0.000 C 
ATOM     34  C   UNL     1      -0.154  14.422  19.715  0.00  0.00    +0.000 C 
BRANCH  31  35
ATOM     35  O   UNL     1       2.170  16.250  20.242  0.00  0.00    +0.000 OA
ATOM     36  H   UNL     1       2.258  15.720  21.054  0.00  0.00    +0.000 HD
ENDBRANCH  31  35
ENDBRANCH  22  26
ENDBRANCH   2  20
TORSDOF 7
ENDMDL
MODEL 9
REMARK VINA RESULT:      -8.3      4.262      6.814
REMARK  Name = 
REMARK  10 active torsions:
REMARK  status: ('A' for Active; 'I' for Inactive)
REMARK    1  A    between atoms: C_1  and  C_2
REMARK    2  A    between atoms: C_2  and  C_3
REMARK    3  A    between atoms: C_2  and  C_10
REMARK    4  A    between atoms: C_3  and  C_4
REMARK    5  A    between atoms: N_8  and  C_9
REMARK    6  A    between atoms: C_14  and  N_15
REMARK    7  A    between atoms: C_16  and  C_18
REMARK    8  A    between atoms: C_20  and  C_21
REMARK    9  A    between atoms: C_26  and  C_27
REMARK   10  A    between atoms: C_26  and  O_28
REMARK                            x       y       z     vdW  Elec       q    Type
REMARK                         _______ _______ _______ _____ _____    ______ ____
ROOT
ATOM      1  N   UNL     1       2.193   6.995  18.836  0.00  0.00    +0.000 N 
ATOM      2  C   UNL     1       1.884   7.080  20.193  0.00  0.00    +0.000 C 
ATOM      3  O   UNL     1       2.071   6.191  21.019  0.00  0.00    +0.000 OA
ATOM      4  H   UNL     1       2.225   7.856  18.299  0.00  0.00    +0.000 HD
ENDROOT
BRANCH   1   9
ATOM      5  C   UNL     1       4.376   4.773  16.780  0.00  0.00    +0.000 A 
ATOM      6  C   UNL     1       3.679   3.562  16.888  0.00  0.00    +0.000 A 
ATOM      7  C   UNL     1       2.484   3.484  17.600  0.00  0.00    +0.000 A 
ATOM      8  C   UNL     1       1.978   4.610  18.244  0.00  0.00    +0.000 A 
ATOM      9  C   UNL     1       2.652   5.827  18.176  0.00  0.00    +0.000 A 
ATOM     10  C   UNL     1       3.829   5.909  17.417  0.00  0.00    +0.000 A 
BRANCH   5  12
ATOM     11  C   UNL     1       5.847   3.870  14.874  0.00  0.00    +0.000 C 
ATOM     12  C   UNL     1       5.696   4.898  16.012  0.00  0.00    +0.000 C 
BRANCH  12  13
ATOM     13  C   UNL     1       6.892   4.818  16.994  0.00  0.00    +0.000 C 
BRANCH  13  14
ATOM     14  C   UNL     1       7.375   6.160  17.430  0.00  0.00    +0.000 A 
ATOM     15  N   UNL     1       7.408   7.256  16.698  0.00  0.00    +0.000 NA
ATOM     16  N   UNL     1       7.976   8.258  17.449  0.00  0.00    +0.000 NA
ATOM     17  C   UNL     1       8.265   7.758  18.626  0.00  0.00    +0.000 A 
ATOM     18  N   UNL     1       7.887   6.452  18.668  0.00  0.00    +0.000 N 
ATOM     19  C   UNL     1       8.009   5.570  19.797  0.00  0.00    +0.000 C 
ENDBRANCH  13  14
ENDBRANCH  12  13
ENDBRANCH   5  12
ENDBRANCH   1   9
BRANCH   2  20
ATOM     20  C   UNL     1       1.321   8.383  20.673  0.00  0.00    +0.000 A 
ATOM     21  C   UNL     1       1.168   9.470  19.829  0.00  0.00    +0.000 A 
ATOM     22  C   UNL     1       0.583  10.624  20.355  0.00  0.00    +0.000 A 
ATOM     23  C   UNL     1       0.251  10.681  21.710  0.00  0.00    +0.000 A 
ATOM     24  C   UNL     1       0.395   9.533  22.459  0.00  0.00    +0.000 A 
ATOM     25  N   UNL     1       0.916   8.394  21.970  0.00  0.00    +0.000 NA
BRANCH  22  26
ATOM     26  C   UNL     1       0.385  11.776  19.446  0.00  0.00    +0.000 C 
ATOM     27  O   UNL     1      -0.363  11.587  18.487  0.00  0.00    +0.000 OA
ATOM     28  N   UNL     1       1.012  12.996  19.693  0.00  0.00    +0.000 N 
ATOM     29  C   UNL     1       1.730  13.392  20.909  0.00  0.00    +0.000 C 
ATOM     30  C   UNL     1       3.116  13.909  20.525  0.00  0.00    +0.000 C 
ATOM     31  C   UNL     1       2.983  15.116  19.582  0.00  0.00    +0.000 C 
ATOM     32  C   UNL     1       4.356  15.624  19.137  0.00  0.00    +0.000 C 
ATOM     33  C   UNL     1       2.121  14.750  18.363  0.00  0.00    +0.000 C 
ATOM     34  C   UNL     1       0.793  14.107  18.766  0.00  0.00    +0.000 C 
BRANCH  31  35
ATOM     35  O   UNL     1       2.339  16.183  20.288  0.00  0.00    +0.000 OA
ATOM     36  H   UNL     1       1.505  16.389  19.832  0.00  0.00    +0.000 HD
ENDBRANCH  31  35
ENDBRANCH  22  26
ENDBRANCH   2  20
TORSDOF 7
ENDMDL
