MODEL 1
REMARK VINA RESULT:      -8.6      0.000      0.000
REMARK  Name = 
REMARK  11 active torsions:
REMARK  status: ('A' for Active; 'I' for Inactive)
REMARK    1  A    between atoms: C_1  and  C_2
REMARK    2  A    between atoms: C_2  and  C_3
REMARK    3  A    between atoms: C_2  and  C_10
REMARK    4  A    between atoms: C_3  and  C_4
REMARK    5  A    between atoms: N_8  and  C_9
REMARK    6  A    between atoms: C_14  and  N_15
REMARK    7  A    between atoms: C_16  and  C_18
REMARK    8  A    between atoms: C_20  and  C_21
REMARK    9  A    between atoms: C_26  and  O_27
REMARK   10  A    between atoms: C_28  and  C_29
REMARK   11  A    between atoms: C_28  and  C_30
REMARK                            x       y       z     vdW  Elec       q    Type
REMARK                         _______ _______ _______ _____ _____    ______ ____
ROOT
ATOM      1  N   UNL     1       0.591   7.544  21.122  0.00  0.00    +0.000 N 
ATOM      2  C   UNL     1       1.648   7.195  20.305  0.00  0.00    +0.000 C 
ATOM      3  O   UNL     1       2.384   7.984  19.715  0.00  0.00    +0.000 OA
ATOM      4  H   UNL     1       0.175   6.785  21.651  0.00  0.00    +0.000 HD
ENDROOT
BRANCH   1   9
ATOM      5  C   UNL     1      -0.821  10.890  20.278  0.00  0.00    +0.000 A 
ATOM      6  C   UNL     1      -0.823  11.498  21.547  0.00  0.00    +0.000 A 
ATOM      7  C   UNL     1      -0.372  10.810  22.661  0.00  0.00    +0.000 A 
ATOM      8  C   UNL     1       0.098   9.505  22.540  0.00  0.00    +0.000 A 
ATOM      9  C   UNL     1       0.099   8.858  21.302  0.00  0.00    +0.000 A 
ATOM     10  C   UNL     1      -0.366   9.558  20.176  0.00  0.00    +0.000 A 
BRANCH   5  12
ATOM     11  C   UNL     1      -1.027  13.153  19.178  0.00  0.00    +0.000 C 
ATOM     12  C   UNL     1      -1.272  11.641  19.026  0.00  0.00    +0.000 C 
BRANCH  12  13
ATOM     13  C   UNL     1      -2.728  11.262  18.672  0.00  0.00    +0.000 C 
BRANCH  13  14
ATOM     14  C   UNL     1      -2.952  10.900  17.241  0.00  0.00    +0.000 A 
ATOM     15  N   UNL     1      -2.182  10.156  16.467  0.00  0.00    +0.000 NA
ATOM     16  N   UNL     1      -2.782  10.043  15.232  0.00  0.00    +0.000 NA
ATOM     17  C   UNL     1      -3.920  10.702  15.276  0.00  0.00    +0.000 A 
ATOM     18  N   UNL     1      -4.063  11.258  16.511  0.00  0.00    +0.000 N 
ATOM     19  C   UNL     1      -5.177  12.049  16.959  0.00  0.00    +0.000 C 
ENDBRANCH  13  14
ENDBRANCH  12  13
ENDBRANCH   5  12
ENDBRANCH   1   9
BRANCH   2  20
ATOM     20  C   UNL     1       1.949   5.732  20.208  0.00  0.00    +0.000 A 
ATOM     21  C   UNL     1       2.201   5.204  18.950  0.00  0.00    +0.000 A 
ATOM     22  C   UNL     1       2.855   3.997  18.845  0.00  0.00    +0.000 A 
ATOM     23  C   UNL     1       2.960   3.207  19.993  0.00  0.00    +0.000 A 
ATOM     24  C   UNL     1       2.514   3.743  21.197  0.00  0.00    +0.000 A 
ATOM     25  N   UNL     1       2.078   5.017  21.350  0.00  0.00    +0.000 NA
BRANCH  22  26
ATOM     26  C   UNL     1       3.386   3.535  17.535  0.00  0.00    +0.000 C 
ATOM     27  O   UNL     1       2.822   2.563  17.037  0.00  0.00    +0.000 OA
ATOM     28  N   UNL     1       4.474   4.173  16.910  0.00  0.00    +0.000 N 
ATOM     29  C   UNL     1       4.759   3.799  15.528  0.00  0.00    +0.000 C 
ATOM     30  C   UNL     1       6.267   3.785  15.413  0.00  0.00    +0.000 C 
ATOM     31  C   UNL     1       6.730   4.867  16.372  0.00  0.00    +0.000 C 
ATOM     32  C   UNL     1       5.602   5.009  17.458  0.00  0.00    +0.000 C 
ATOM     33  C   UNL     1       5.330   6.527  17.497  0.00  0.00    +0.000 C 
ATOM     34  C   UNL     1       6.068   4.508  18.834  0.00  0.00    +0.000 C 
BRANCH  31  35
ATOM     35  O   UNL     1       8.014   4.545  16.895  0.00  0.00    +0.000 OA
ATOM     36  H   UNL     1       8.343   3.759  16.426  0.00  0.00    +0.000 HD
ENDBRANCH  31  35
ENDBRANCH  22  26
ENDBRANCH   2  20
TORSDOF 7
ENDMDL
MODEL 2
REMARK VINA RESULT:      -8.5      5.803      8.542
REMARK  Name = 
REMARK  11 active torsions:
REMARK  status: ('A' for Active; 'I' for Inactive)
REMARK    1  A    between atoms: C_1  and  C_2
REMARK    2  A    between atoms: C_2  and  C_3
REMARK    3  A    between atoms: C_2  and  C_10
REMARK    4  A    between atoms: C_3  and  C_4
REMARK    5  A    between atoms: N_8  and  C_9
REMARK    6  A    between atoms: C_14  and  N_15
REMARK    7  A    between atoms: C_16  and  C_18
REMARK    8  A    between atoms: C_20  and  C_21
REMARK    9  A    between atoms: C_26  and  O_27
REMARK   10  A    between atoms: C_28  and  C_29
REMARK   11  A    between atoms: C_28  and  C_30
REMARK                            x       y       z     vdW  Elec       q    Type
REMARK                         _______ _______ _______ _____ _____    ______ ____
ROOT
ATOM      1  N   UNL     1       7.843   8.893  17.835  0.00  0.00    +0.000 N 
ATOM      2  C   UNL     1       7.933   7.556  18.171  0.00  0.00    +0.000 C 
ATOM      3  O   UNL     1       8.634   7.092  19.067  0.00  0.00    +0.000 OA
ATOM      4  H   UNL     1       7.113   9.132  17.174  0.00  0.00    +0.000 HD
ENDROOT
BRANCH   1   9
ATOM      5  C   UNL     1       9.639  12.151  18.091  0.00  0.00    +0.000 A 
ATOM      6  C   UNL     1      10.281  11.996  19.333  0.00  0.00    +0.000 A 
ATOM      7  C   UNL     1      10.116  10.837  20.074  0.00  0.00    +0.000 A 
ATOM      8  C   UNL     1       9.316   9.804  19.596  0.00  0.00    +0.000 A 
ATOM      9  C   UNL     1       8.645   9.924  18.377  0.00  0.00    +0.000 A 
ATOM     10  C   UNL     1       8.811  11.104  17.632  0.00  0.00    +0.000 A 
BRANCH   5  12
ATOM     11  C   UNL     1      11.255  13.429  16.633  0.00  0.00    +0.000 C 
ATOM     12  C   UNL     1       9.838  13.400  17.233  0.00  0.00    +0.000 C 
BRANCH  12  13
ATOM     13  C   UNL     1       9.456  14.664  18.035  0.00  0.00    +0.000 C 
BRANCH  13  14
ATOM     14  C   UNL     1       7.996  14.972  18.064  0.00  0.00    +0.000 A 
ATOM     15  N   UNL     1       7.007  14.236  17.587  0.00  0.00    +0.000 NA
ATOM     16  N   UNL     1       5.817  14.873  17.861  0.00  0.00    +0.000 NA
ATOM     17  C   UNL     1       6.094  15.979  18.519  0.00  0.00    +0.000 A 
ATOM     18  N   UNL     1       7.444  16.082  18.662  0.00  0.00    +0.000 N 
ATOM     19  C   UNL     1       8.144  17.144  19.332  0.00  0.00    +0.000 C 
ENDBRANCH  13  14
ENDBRANCH  12  13
ENDBRANCH   5  12
ENDBRANCH   1   9
BRANCH   2  20
ATOM     20  C   UNL     1       7.034   6.627  17.416  0.00  0.00    +0.000 A 
ATOM     21  C   UNL     1       5.798   6.328  17.969  0.00  0.00    +0.000 A 
ATOM     22  C   UNL     1       4.804   5.822  17.161  0.00  0.00    +0.000 A 
ATOM     23  C   UNL     1       5.167   5.337  15.902  0.00  0.00    +0.000 A 
ATOM     24  C   UNL     1       6.483   5.515  15.489  0.00  0.00    +0.000 A 
ATOM     25  N   UNL     1       7.413   6.214  16.183  0.00  0.00    +0.000 NA
BRANCH  22  26
ATOM     26  C   UNL     1       3.400   5.751  17.645  0.00  0.00    +0.000 C 
ATOM     27  O   UNL     1       2.768   6.805  17.625  0.00  0.00    +0.000 OA
ATOM     28  N   UNL     1       2.834   4.547  18.104  0.00  0.00    +0.000 N 
ATOM     29  C   UNL     1       1.391   4.531  18.326  0.00  0.00    +0.000 C 
ATOM     30  C   UNL     1       1.178   3.689  19.563  0.00  0.00    +0.000 C 
ATOM     31  C   UNL     1       2.289   2.655  19.513  0.00  0.00    +0.000 C 
ATOM     32  C   UNL     1       3.453   3.295  18.672  0.00  0.00    +0.000 C 
ATOM     33  C   UNL     1       3.790   2.204  17.635  0.00  0.00    +0.000 C 
ATOM     34  C   UNL     1       4.680   3.609  19.543  0.00  0.00    +0.000 C 
BRANCH  31  35
ATOM     35  O   UNL     1       2.659   2.265  20.831  0.00  0.00    +0.000 OA
ATOM     36  H   UNL     1       3.622   2.373  20.919  0.00  0.00    +0.000 HD
ENDBRANCH  31  35
ENDBRANCH  22  26
ENDBRANCH   2  20
TORSDOF 7
ENDMDL
MODEL 3
REMARK VINA RESULT:      -8.4      1.502      2.175
REMARK  Name = 
REMARK  11 active torsions:
REMARK  status: ('A' for Active; 'I' for Inactive)
REMARK    1  A    between atoms: C_1  and  C_2
REMARK    2  A    between atoms: C_2  and  C_3
REMARK    3  A    between atoms: C_2  and  C_10
REMARK    4  A    between atoms: C_3  and  C_4
REMARK    5  A    between atoms: N_8  and  C_9
REMARK    6  A    between atoms: C_14  and  N_15
REMARK    7  A    between atoms: C_16  and  C_18
REMARK    8  A    between atoms: C_20  and  C_21
REMARK    9  A    between atoms: C_26  and  O_27
REMARK   10  A    between atoms: C_28  and  C_29
REMARK   11  A    between atoms: C_28  and  C_30
REMARK                            x       y       z     vdW  Elec       q    Type
REMARK                         _______ _______ _______ _____ _____    ______ ____
ROOT
ATOM      1  N   UNL     1       1.555   8.622  18.786  0.00  0.00    +0.000 N 
ATOM      2  C   UNL     1       1.762   7.950  19.975  0.00  0.00    +0.000 C 
ATOM      3  O   UNL     1       1.776   8.464  21.091  0.00  0.00    +0.000 OA
ATOM      4  H   UNL     1       1.426   8.038  17.968  0.00  0.00    +0.000 HD
ENDROOT
BRANCH   1   9
ATOM      5  C   UNL     1       0.075  12.044  18.826  0.00  0.00    +0.000 A 
ATOM      6  C   UNL     1       1.158  12.801  18.340  0.00  0.00    +0.000 A 
ATOM      7  C   UNL     1       2.357  12.188  18.013  0.00  0.00    +0.000 A 
ATOM      8  C   UNL     1       2.506  10.812  18.154  0.00  0.00    +0.000 A 
ATOM      9  C   UNL     1       1.463  10.026  18.650  0.00  0.00    +0.000 A 
ATOM     10  C   UNL     1       0.251  10.653  18.987  0.00  0.00    +0.000 A 
BRANCH   5  12
ATOM     11  C   UNL     1      -1.126  13.707  20.297  0.00  0.00    +0.000 C 
ATOM     12  C   UNL     1      -1.271  12.688  19.153  0.00  0.00    +0.000 C 
BRANCH  12  13
ATOM     13  C   UNL     1      -2.338  11.597  19.400  0.00  0.00    +0.000 C 
BRANCH  13  14
ATOM     14  C   UNL     1      -3.532  11.672  18.508  0.00  0.00    +0.000 A 
ATOM     15  N   UNL     1      -4.717  12.188  18.789  0.00  0.00    +0.000 NA
ATOM     16  N   UNL     1      -5.513  12.087  17.670  0.00  0.00    +0.000 NA
ATOM     17  C   UNL     1      -4.797  11.531  16.714  0.00  0.00    +0.000 A 
ATOM     18  N   UNL     1      -3.556  11.251  17.198  0.00  0.00    +0.000 N 
ATOM     19  C   UNL     1      -2.478  10.648  16.462  0.00  0.00    +0.000 C 
ENDBRANCH  13  14
ENDBRANCH  12  13
ENDBRANCH   5  12
ENDBRANCH   1   9
BRANCH   2  20
ATOM     20  C   UNL     1       1.903   6.463  19.874  0.00  0.00    +0.000 A 
ATOM     21  C   UNL     1       2.190   5.922  18.629  0.00  0.00    +0.000 A 
ATOM     22  C   UNL     1       2.710   4.649  18.553  0.00  0.00    +0.000 A 
ATOM     23  C   UNL     1       2.635   3.841  19.690  0.00  0.00    +0.000 A 
ATOM     24  C   UNL     1       2.161   4.413  20.866  0.00  0.00    +0.000 A 
ATOM     25  N   UNL     1       1.860   5.727  21.009  0.00  0.00    +0.000 NA
BRANCH  22  26
ATOM     26  C   UNL     1       3.285   4.143  17.278  0.00  0.00    +0.000 C 
ATOM     27  O   UNL     1       2.629   3.282  16.695  0.00  0.00    +0.000 OA
ATOM     28  N   UNL     1       4.512   4.618  16.778  0.00  0.00    +0.000 N 
ATOM     29  C   UNL     1       4.866   4.238  15.414  0.00  0.00    +0.000 C 
ATOM     30  C   UNL     1       6.358   3.992  15.434  0.00  0.00    +0.000 C 
ATOM     31  C   UNL     1       6.888   4.966  16.472  0.00  0.00    +0.000 C 
ATOM     32  C   UNL     1       5.697   5.255  17.457  0.00  0.00    +0.000 C 
ATOM     33  C   UNL     1       5.658   6.796  17.531  0.00  0.00    +0.000 C 
ATOM     34  C   UNL     1       5.949   4.655  18.849  0.00  0.00    +0.000 C 
BRANCH  31  35
ATOM     35  O   UNL     1       8.053   4.436  17.095  0.00  0.00    +0.000 OA
ATOM     36  H   UNL     1       8.825   4.915  16.748  0.00  0.00    +0.000 HD
ENDBRANCH  31  35
ENDBRANCH  22  26
ENDBRANCH   2  20
TORSDOF 7
ENDMDL
MODEL 4
REMARK VINA RESULT:      -8.4      1.504      1.981
REMARK  Name = 
REMARK  11 active torsions:
REMARK  status: ('A' for Active; 'I' for Inactive)
REMARK    1  A    between atoms: C_1  and  C_2
REMARK    2  A    between atoms: C_2  and  C_3
REMARK    3  A    between atoms: C_2  and  C_10
REMARK    4  A    between atoms: C_3  and  C_4
REMARK    5  A    between atoms: N_8  and  C_9
REMARK    6  A    between atoms: C_14  and  N_15
REMARK    7  A    between atoms: C_16  and  C_18
REMARK    8  A    between atoms: C_20  and  C_21
REMARK    9  A    between atoms: C_26  and  O_27
REMARK   10  A    between atoms: C_28  and  C_29
REMARK   11  A    between atoms: C_28  and  C_30
REMARK                            x       y       z     vdW  Elec       q    Type
REMARK                         _______ _______ _______ _____ _____    ______ ____
ROOT
ATOM      1  N   UNL     1       1.619   8.602  18.774  0.00  0.00    +0.000 N 
ATOM      2  C   UNL     1       1.760   7.926  19.971  0.00  0.00    +0.000 C 
ATOM      3  O   UNL     1       1.715   8.438  21.088  0.00  0.00    +0.000 OA
ATOM      4  H   UNL     1       1.533   8.019  17.949  0.00  0.00    +0.000 HD
ENDROOT
BRANCH   1   9
ATOM      5  C   UNL     1       0.189  12.043  18.885  0.00  0.00    +0.000 A 
ATOM      6  C   UNL     1       1.250  12.783  18.332  0.00  0.00    +0.000 A 
ATOM      7  C   UNL     1       2.419  12.153  17.936  0.00  0.00    +0.000 A 
ATOM      8  C   UNL     1       2.559  10.776  18.075  0.00  0.00    +0.000 A 
ATOM      9  C   UNL     1       1.537  10.006  18.637  0.00  0.00    +0.000 A 
ATOM     10  C   UNL     1       0.355  10.651  19.043  0.00  0.00    +0.000 A 
BRANCH   5  12
ATOM     11  C   UNL     1      -0.947  13.545  20.566  0.00  0.00    +0.000 C 
ATOM     12  C   UNL     1      -1.128  12.706  19.289  0.00  0.00    +0.000 C 
BRANCH  12  13
ATOM     13  C   UNL     1      -2.253  11.650  19.371  0.00  0.00    +0.000 C 
BRANCH  13  14
ATOM     14  C   UNL     1      -3.126  11.567  18.162  0.00  0.00    +0.000 A 
ATOM     15  N   UNL     1      -2.780  11.189  16.943  0.00  0.00    +0.000 NA
ATOM     16  N   UNL     1      -3.900  11.219  16.143  0.00  0.00    +0.000 NA
ATOM     17  C   UNL     1      -4.918  11.595  16.889  0.00  0.00    +0.000 A 
ATOM     18  N   UNL     1      -4.477  11.827  18.155  0.00  0.00    +0.000 N 
ATOM     19  C   UNL     1      -5.284  12.245  19.269  0.00  0.00    +0.000 C 
ENDBRANCH  13  14
ENDBRANCH  12  13
ENDBRANCH   5  12
ENDBRANCH   1   9
BRANCH   2  20
ATOM     20  C   UNL     1       1.902   6.439  19.874  0.00  0.00    +0.000 A 
ATOM     21  C   UNL     1       2.188   5.895  18.630  0.00  0.00    +0.000 A 
ATOM     22  C   UNL     1       2.710   4.623  18.557  0.00  0.00    +0.000 A 
ATOM     23  C   UNL     1       2.639   3.818  19.697  0.00  0.00    +0.000 A 
ATOM     24  C   UNL     1       2.166   4.393  20.872  0.00  0.00    +0.000 A 
ATOM     25  N   UNL     1       1.864   5.706  21.012  0.00  0.00    +0.000 NA
BRANCH  22  26
ATOM     26  C   UNL     1       3.284   4.113  17.283  0.00  0.00    +0.000 C 
ATOM     27  O   UNL     1       2.631   3.245  16.706  0.00  0.00    +0.000 OA
ATOM     28  N   UNL     1       4.505   4.594  16.775  0.00  0.00    +0.000 N 
ATOM     29  C   UNL     1       4.856   4.210  15.411  0.00  0.00    +0.000 C 
ATOM     30  C   UNL     1       6.350   3.974  15.426  0.00  0.00    +0.000 C 
ATOM     31  C   UNL     1       6.877   4.956  16.457  0.00  0.00    +0.000 C 
ATOM     32  C   UNL     1       5.689   5.243  17.445  0.00  0.00    +0.000 C 
ATOM     33  C   UNL     1       5.639   6.784  17.511  0.00  0.00    +0.000 C 
ATOM     34  C   UNL     1       5.951   4.652  18.840  0.00  0.00    +0.000 C 
BRANCH  31  35
ATOM     35  O   UNL     1       8.049   4.438  17.078  0.00  0.00    +0.000 OA
ATOM     36  H   UNL     1       8.509   3.875  16.432  0.00  0.00    +0.000 HD
ENDBRANCH  31  35
ENDBRANCH  22  26
ENDBRANCH   2  20
TORSDOF 7
ENDMDL
MODEL 5
REMARK VINA RESULT:      -8.3      2.381      3.445
REMARK  Name = 
REMARK  11 active torsions:
REMARK  status: ('A' for Active; 'I' for Inactive)
REMARK    1  A    between atoms: C_1  and  C_2
REMARK    2  A    between atoms: C_2  and  C_3
REMARK    3  A    between atoms: C_2  and  C_10
REMARK    4  A    between atoms: C_3  and  C_4
REMARK    5  A    between atoms: N_8  and  C_9
REMARK    6  A    between atoms: C_14  and  N_15
REMARK    7  A    between atoms: C_16  and  C_18
REMARK    8  A    between atoms: C_20  and  C_21
REMARK    9  A    between atoms: C_26  and  O_27
REMARK   10  A    between atoms: C_28  and  C_29
REMARK   11  A    between atoms: C_28  and  C_30
REMARK                            x       y       z     vdW  Elec       q    Type
REMARK                         _______ _______ _______ _____ _____    ______ ____
ROOT
ATOM      1  N   UNL     1       0.546   7.498  21.244  0.00  0.00    +0.000 N 
ATOM      2  C   UNL     1       1.568   7.211  20.361  0.00  0.00    +0.000 C 
ATOM      3  O   UNL     1       2.278   8.042  19.798  0.00  0.00    +0.000 OA
ATOM      4  H   UNL     1       0.153   6.702  21.735  0.00  0.00    +0.000 HD
ENDROOT
BRANCH   1   9
ATOM      5  C   UNL     1      -0.453  11.053  20.724  0.00  0.00    +0.000 A 
ATOM      6  C   UNL     1      -0.812  11.415  22.036  0.00  0.00    +0.000 A 
ATOM      7  C   UNL     1      -0.731  10.497  23.070  0.00  0.00    +0.000 A 
ATOM      8  C   UNL     1      -0.286   9.201  22.828  0.00  0.00    +0.000 A 
ATOM      9  C   UNL     1       0.063   8.794  21.538  0.00  0.00    +0.000 A 
ATOM     10  C   UNL     1      -0.028   9.727  20.490  0.00  0.00    +0.000 A 
BRANCH   5  12
ATOM     11  C   UNL     1      -1.345  11.522  18.411  0.00  0.00    +0.000 C 
ATOM     12  C   UNL     1      -0.491  12.057  19.573  0.00  0.00    +0.000 C 
BRANCH  12  13
ATOM     13  C   UNL     1       0.945  12.469  19.177  0.00  0.00    +0.000 C 
BRANCH  13  14
ATOM     14  C   UNL     1       1.607  13.422  20.116  0.00  0.00    +0.000 A 
ATOM     15  N   UNL     1       2.349  13.131  21.170  0.00  0.00    +0.000 NA
ATOM     16  N   UNL     1       2.795  14.308  21.728  0.00  0.00    +0.000 NA
ATOM     17  C   UNL     1       2.337  15.301  20.995  0.00  0.00    +0.000 A 
ATOM     18  N   UNL     1       1.585  14.791  19.981  0.00  0.00    +0.000 N 
ATOM     19  C   UNL     1       0.918  15.552  18.960  0.00  0.00    +0.000 C 
ENDBRANCH  13  14
ENDBRANCH  12  13
ENDBRANCH   5  12
ENDBRANCH   1   9
BRANCH   2  20
ATOM     20  C   UNL     1       1.865   5.759  20.147  0.00  0.00    +0.000 A 
ATOM     21  C   UNL     1       2.119   5.333  18.851  0.00  0.00    +0.000 A 
ATOM     22  C   UNL     1       2.770   4.136  18.653  0.00  0.00    +0.000 A 
ATOM     23  C   UNL     1       2.868   3.256  19.733  0.00  0.00    +0.000 A 
ATOM     24  C   UNL     1       2.420   3.696  20.975  0.00  0.00    +0.000 A 
ATOM     25  N   UNL     1       1.987   4.954  21.228  0.00  0.00    +0.000 NA
BRANCH  22  26
ATOM     26  C   UNL     1       3.303   3.779  17.311  0.00  0.00    +0.000 C 
ATOM     27  O   UNL     1       2.682   2.914  16.696  0.00  0.00    +0.000 OA
ATOM     28  N   UNL     1       4.454   4.393  16.784  0.00  0.00    +0.000 N 
ATOM     29  C   UNL     1       4.752   4.150  15.375  0.00  0.00    +0.000 C 
ATOM     30  C   UNL     1       6.258   4.029  15.292  0.00  0.00    +0.000 C 
ATOM     31  C   UNL     1       6.772   4.961  16.375  0.00  0.00    +0.000 C 
ATOM     32  C   UNL     1       5.626   5.072  17.445  0.00  0.00    +0.000 C 
ATOM     33  C   UNL     1       5.470   6.594  17.647  0.00  0.00    +0.000 C 
ATOM     34  C   UNL     1       6.011   4.390  18.768  0.00  0.00    +0.000 C 
BRANCH  31  35
ATOM     35  O   UNL     1       8.012   4.483  16.888  0.00  0.00    +0.000 OA
ATOM     36  H   UNL     1       8.718   4.765  16.280  0.00  0.00    +0.000 HD
ENDBRANCH  31  35
ENDBRANCH  22  26
ENDBRANCH   2  20
TORSDOF 7
ENDMDL
MODEL 6
REMARK VINA RESULT:      -8.3      3.227      9.675
REMARK  Name = 
REMARK  11 active torsions:
REMARK  status: ('A' for Active; 'I' for Inactive)
REMARK    1  A    between atoms: C_1  and  C_2
REMARK    2  A    between atoms: C_2  and  C_3
REMARK    3  A    between atoms: C_2  and  C_10
REMARK    4  A    between atoms: C_3  and  C_4
REMARK    5  A    between atoms: N_8  and  C_9
REMARK    6  A    between atoms: C_14  and  N_15
REMARK    7  A    between atoms: C_16  and  C_18
REMARK    8  A    between atoms: C_20  and  C_21
REMARK    9  A    between atoms: C_26  and  O_27
REMARK   10  A    between atoms: C_28  and  C_29
REMARK   11  A    between atoms: C_28  and  C_30
REMARK                            x       y       z     vdW  Elec       q    Type
REMARK                         _______ _______ _______ _____ _____    ______ ____
ROOT
ATOM      1  N   UNL     1       2.129   6.809  19.279  0.00  0.00    +0.000 N 
ATOM      2  C   UNL     1       1.808   8.053  18.771  0.00  0.00    +0.000 C 
ATOM      3  O   UNL     1       1.759   8.345  17.578  0.00  0.00    +0.000 OA
ATOM      4  H   UNL     1       1.983   6.690  20.275  0.00  0.00    +0.000 HD
ENDROOT
BRANCH   1   9
ATOM      5  C   UNL     1       4.241   4.821  16.935  0.00  0.00    +0.000 A 
ATOM      6  C   UNL     1       3.525   3.610  16.904  0.00  0.00    +0.000 A 
ATOM      7  C   UNL     1       2.368   3.455  17.651  0.00  0.00    +0.000 A 
ATOM      8  C   UNL     1       1.894   4.498  18.440  0.00  0.00    +0.000 A 
ATOM      9  C   UNL     1       2.584   5.710  18.514  0.00  0.00    +0.000 A 
ATOM     10  C   UNL     1       3.761   5.861  17.760  0.00  0.00    +0.000 A 
BRANCH   5  12
ATOM     11  C   UNL     1       5.497   4.096  14.869  0.00  0.00    +0.000 C 
ATOM     12  C   UNL     1       5.495   5.035  16.088  0.00  0.00    +0.000 C 
BRANCH  12  13
ATOM     13  C   UNL     1       6.759   4.939  16.973  0.00  0.00    +0.000 C 
BRANCH  13  14
ATOM     14  C   UNL     1       7.339   6.252  17.385  0.00  0.00    +0.000 A 
ATOM     15  N   UNL     1       7.373   7.372  16.684  0.00  0.00    +0.000 NA
ATOM     16  N   UNL     1       7.961   8.350  17.455  0.00  0.00    +0.000 NA
ATOM     17  C   UNL     1       8.258   7.819  18.623  0.00  0.00    +0.000 A 
ATOM     18  N   UNL     1       7.891   6.508  18.619  0.00  0.00    +0.000 N 
ATOM     19  C   UNL     1       8.039   5.585  19.711  0.00  0.00    +0.000 C 
ENDBRANCH  13  14
ENDBRANCH  12  13
ENDBRANCH   5  12
ENDBRANCH   1   9
BRANCH   2  20
ATOM     20  C   UNL     1       1.420   9.093  19.775  0.00  0.00    +0.000 A 
ATOM     21  C   UNL     1       0.987  10.322  19.301  0.00  0.00    +0.000 A 
ATOM     22  C   UNL     1       0.261  11.146  20.132  0.00  0.00    +0.000 A 
ATOM     23  C   UNL     1       0.257  10.859  21.500  0.00  0.00    +0.000 A 
ATOM     24  C   UNL     1       0.876   9.686  21.921  0.00  0.00    +0.000 A 
ATOM     25  N   UNL     1       1.396   8.754  21.086  0.00  0.00    +0.000 NA
BRANCH  22  26
ATOM     26  C   UNL     1      -0.452  12.332  19.587  0.00  0.00    +0.000 C 
ATOM     27  O   UNL     1      -1.495  12.103  18.980  0.00  0.00    +0.000 OA
ATOM     28  N   UNL     1       0.047  13.638  19.754  0.00  0.00    +0.000 N 
ATOM     29  C   UNL     1      -0.840  14.740  19.396  0.00  0.00    +0.000 C 
ATOM     30  C   UNL     1       0.046  15.787  18.759  0.00  0.00    +0.000 C 
ATOM     31  C   UNL     1       1.377  15.641  19.475  0.00  0.00    +0.000 C 
ATOM     32  C   UNL     1       1.440  14.160  19.997  0.00  0.00    +0.000 C 
ATOM     33  C   UNL     1       1.828  14.319  21.482  0.00  0.00    +0.000 C 
ATOM     34  C   UNL     1       2.499  13.335  19.249  0.00  0.00    +0.000 C 
BRANCH  31  35
ATOM     35  O   UNL     1       2.446  16.006  18.607  0.00  0.00    +0.000 OA
ATOM     36  H   UNL     1       3.120  16.467  19.136  0.00  0.00    +0.000 HD
ENDBRANCH  31  35
ENDBRANCH  22  26
ENDBRANCH   2  20
TORSDOF 7
ENDMDL
MODEL 7
REMARK VINA RESULT:      -8.3      6.648     10.649
REMARK  Name = 
REMARK  11 active torsions:
REMARK  status: ('A' for Active; 'I' for Inactive)
REMARK    1  A    between atoms: C_1  and  C_2
REMARK    2  A    between atoms: C_2  and  C_3
REMARK    3  A    between atoms: C_2  and  C_10
REMARK    4  A    between atoms: C_3  and  C_4
REMARK    5  A    between atoms: N_8  and  C_9
REMARK    6  A    between atoms: C_14  and  N_15
REMARK    7  A    between atoms: C_16  and  C_18
REMARK    8  A    between atoms: C_20  and  C_21
REMARK    9  A    between atoms: C_26  and  O_27
REMARK   10  A    between atoms: C_28  and  C_29
REMARK   11  A    between atoms: C_28  and  C_30
REMARK                            x       y       z     vdW  Elec       q    Type
REMARK                         _______ _______ _______ _____ _____    ______ ____
ROOT
ATOM      1  N   UNL     1       8.369   9.143  17.669  0.00  0.00    +0.000 N 
ATOM      2  C   UNL     1       8.936  10.000  18.592  0.00  0.00    +0.000 C 
ATOM      3  O   UNL     1       9.135   9.741  19.777  0.00  0.00    +0.000 OA
ATOM      4  H   UNL     1       8.409   9.449  16.703  0.00  0.00    +0.000 HD
ENDROOT
BRANCH   1   9
ATOM      5  C   UNL     1       5.919   6.332  17.685  0.00  0.00    +0.000 A 
ATOM      6  C   UNL     1       6.556   5.438  18.566  0.00  0.00    +0.000 A 
ATOM      7  C   UNL     1       7.776   5.759  19.137  0.00  0.00    +0.000 A 
ATOM      8  C   UNL     1       8.389   6.975  18.853  0.00  0.00    +0.000 A 
ATOM      9  C   UNL     1       7.800   7.884  17.970  0.00  0.00    +0.000 A 
ATOM     10  C   UNL     1       6.565   7.551  17.387  0.00  0.00    +0.000 A 
BRANCH   5  12
ATOM     11  C   UNL     1       3.428   6.689  17.887  0.00  0.00    +0.000 C 
ATOM     12  C   UNL     1       4.553   6.023  17.075  0.00  0.00    +0.000 C 
BRANCH  12  13
ATOM     13  C   UNL     1       4.387   4.498  16.883  0.00  0.00    +0.000 C 
BRANCH  13  14
ATOM     14  C   UNL     1       3.192   3.907  17.556  0.00  0.00    +0.000 A 
ATOM     15  N   UNL     1       1.945   3.893  17.118  0.00  0.00    +0.000 NA
ATOM     16  N   UNL     1       1.170   3.210  18.029  0.00  0.00    +0.000 NA
ATOM     17  C   UNL     1       1.959   2.798  19.000  0.00  0.00    +0.000 A 
ATOM     18  N   UNL     1       3.229   3.217  18.746  0.00  0.00    +0.000 N 
ATOM     19  C   UNL     1       4.382   2.962  19.565  0.00  0.00    +0.000 C 
ENDBRANCH  13  14
ENDBRANCH  12  13
ENDBRANCH   5  12
ENDBRANCH   1   9
BRANCH   2  20
ATOM     20  C   UNL     1       9.410  11.318  18.062  0.00  0.00    +0.000 A 
ATOM     21  C   UNL     1       8.580  12.418  18.224  0.00  0.00    +0.000 A 
ATOM     22  C   UNL     1       9.113  13.683  18.123  0.00  0.00    +0.000 A 
ATOM     23  C   UNL     1      10.383  13.816  17.557  0.00  0.00    +0.000 A 
ATOM     24  C   UNL     1      11.086  12.654  17.252  0.00  0.00    +0.000 A 
ATOM     25  N   UNL     1      10.663  11.404  17.557  0.00  0.00    +0.000 NA
BRANCH  22  26
ATOM     26  C   UNL     1       8.330  14.870  18.559  0.00  0.00    +0.000 C 
ATOM     27  O   UNL     1       7.984  15.644  17.669  0.00  0.00    +0.000 OA
ATOM     28  N   UNL     1       8.014  15.094  19.912  0.00  0.00    +0.000 N 
ATOM     29  C   UNL     1       7.047  16.147  20.204  0.00  0.00    +0.000 C 
ATOM     30  C   UNL     1       7.541  16.815  21.468  0.00  0.00    +0.000 C 
ATOM     31  C   UNL     1       8.213  15.699  22.247  0.00  0.00    +0.000 C 
ATOM     32  C   UNL     1       8.668  14.630  21.188  0.00  0.00    +0.000 C 
ATOM     33  C   UNL     1       8.121  13.304  21.758  0.00  0.00    +0.000 C 
ATOM     34  C   UNL     1      10.198  14.570  21.058  0.00  0.00    +0.000 C 
BRANCH  31  35
ATOM     35  O   UNL     1       9.269  16.223  23.047  0.00  0.00    +0.000 OA
ATOM     36  H   UNL     1      10.100  16.126  22.551  0.00  0.00    +0.000 HD
ENDBRANCH  31  35
ENDBRANCH  22  26
ENDBRANCH   2  20
TORSDOF 7
ENDMDL
MODEL 8
REMARK VINA RESULT:      -8.2      1.087      1.240
REMARK  Name = 
REMARK  11 active torsions:
REMARK  status: ('A' for Active; 'I' for Inactive)
REMARK    1  A    between atoms: C_1  and  C_2
REMARK    2  A    between atoms: C_2  and  C_3
REMARK    3  A    between atoms: C_2  and  C_10
REMARK    4  A    between atoms: C_3  and  C_4
REMARK    5  A    between atoms: N_8  and  C_9
REMARK    6  A    between atoms: C_14  and  N_15
REMARK    7  A    between atoms: C_16  and  C_18
REMARK    8  A    between atoms: C_20  and  C_21
REMARK    9  A    between atoms: C_26  and  O_27
REMARK   10  A    between atoms: C_28  and  C_29
REMARK   11  A    between atoms: C_28  and  C_30
REMARK                            x       y       z     vdW  Elec       q    Type
REMARK                         _______ _______ _______ _____ _____    ______ ____
ROOT
ATOM      1  N   UNL     1       0.949   8.873  20.375  0.00  0.00    +0.000 N 
ATOM      2  C   UNL     1       1.702   8.270  19.387  0.00  0.00    +0.000 C 
ATOM      3  O   UNL     1       2.272   8.855  18.468  0.00  0.00    +0.000 OA
ATOM      4  H   UNL     1       0.668   8.271  21.142  0.00  0.00    +0.000 HD
ENDROOT
BRANCH   1   9
ATOM      5  C   UNL     1      -1.075  11.973  19.929  0.00  0.00    +0.000 A 
ATOM      6  C   UNL     1      -0.160  12.946  20.373  0.00  0.00    +0.000 A 
ATOM      7  C   UNL     1       1.100  12.579  20.817  0.00  0.00    +0.000 A 
ATOM      8  C   UNL     1       1.483  11.242  20.825  0.00  0.00    +0.000 A 
ATOM      9  C   UNL     1       0.599  10.242  20.411  0.00  0.00    +0.000 A 
ATOM     10  C   UNL     1      -0.681  10.618  19.968  0.00  0.00    +0.000 A 
BRANCH   5  12
ATOM     11  C   UNL     1      -3.245  13.155  20.442  0.00  0.00    +0.000 C 
ATOM     12  C   UNL     1      -2.454  12.352  19.394  0.00  0.00    +0.000 C 
BRANCH  12  13
ATOM     13  C   UNL     1      -3.185  11.098  18.864  0.00  0.00    +0.000 C 
BRANCH  13  14
ATOM     14  C   UNL     1      -3.185  10.952  17.378  0.00  0.00    +0.000 A 
ATOM     15  N   UNL     1      -2.284  10.342  16.628  0.00  0.00    +0.000 NA
ATOM     16  N   UNL     1      -2.693  10.407  15.314  0.00  0.00    +0.000 NA
ATOM     17  C   UNL     1      -3.849  11.036  15.283  0.00  0.00    +0.000 A 
ATOM     18  N   UNL     1      -4.190  11.399  16.551  0.00  0.00    +0.000 N 
ATOM     19  C   UNL     1      -5.385  12.097  16.937  0.00  0.00    +0.000 C 
ENDBRANCH  13  14
ENDBRANCH  12  13
ENDBRANCH   5  12
ENDBRANCH   1   9
BRANCH   2  20
ATOM     20  C   UNL     1       1.887   6.789  19.511  0.00  0.00    +0.000 A 
ATOM     21  C   UNL     1       2.193   6.075  18.362  0.00  0.00    +0.000 A 
ATOM     22  C   UNL     1       2.750   4.822  18.477  0.00  0.00    +0.000 A 
ATOM     23  C   UNL     1       2.696   4.193  19.724  0.00  0.00    +0.000 A 
ATOM     24  C   UNL     1       2.203   4.922  20.801  0.00  0.00    +0.000 A 
ATOM     25  N   UNL     1       1.864   6.233  20.745  0.00  0.00    +0.000 NA
BRANCH  22  26
ATOM     26  C   UNL     1       3.342   4.145  17.293  0.00  0.00    +0.000 C 
ATOM     27  O   UNL     1       2.697   3.209  16.827  0.00  0.00    +0.000 OA
ATOM     28  N   UNL     1       4.573   4.553  16.745  0.00  0.00    +0.000 N 
ATOM     29  C   UNL     1       4.946   3.988  15.451  0.00  0.00    +0.000 C 
ATOM     30  C   UNL     1       6.438   3.755  15.523  0.00  0.00    +0.000 C 
ATOM     31  C   UNL     1       6.952   4.866  16.421  0.00  0.00    +0.000 C 
ATOM     32  C   UNL     1       5.748   5.284  17.342  0.00  0.00    +0.000 C 
ATOM     33  C   UNL     1       5.703   6.820  17.201  0.00  0.00    +0.000 C 
ATOM     34  C   UNL     1       5.985   4.885  18.808  0.00  0.00    +0.000 C 
BRANCH  31  35
ATOM     35  O   UNL     1       8.111   4.434  17.126  0.00  0.00    +0.000 OA
ATOM     36  H   UNL     1       8.354   3.552  16.796  0.00  0.00    +0.000 HD
ENDBRANCH  31  35
ENDBRANCH  22  26
ENDBRANCH   2  20
TORSDOF 7
ENDMDL
MODEL 9
REMARK VINA RESULT:      -8.2      1.395      1.747
REMARK  Name = 
REMARK  11 active torsions:
REMARK  status: ('A' for Active; 'I' for Inactive)
REMARK    1  A    between atoms: C_1  and  C_2
REMARK    2  A    between atoms: C_2  and  C_3
REMARK    3  A    between atoms: C_2  and  C_10
REMARK    4  A    between atoms: C_3  and  C_4
REMARK    5  A    between atoms: N_8  and  C_9
REMARK    6  A    between atoms: C_14  and  N_15
REMARK    7  A    between atoms: C_16  and  C_18
REMARK    8  A    between atoms: C_20  and  C_21
REMARK    9  A    between atoms: C_26  and  O_27
REMARK   10  A    between atoms: C_28  and  C_29
REMARK   11  A    between atoms: C_28  and  C_30
REMARK                            x       y       z     vdW  Elec       q    Type
REMARK                         _______ _______ _______ _____ _____    ______ ____
ROOT
ATOM      1  N   UNL     1       0.610   7.369  21.344  0.00  0.00    +0.000 N 
ATOM      2  C   UNL     1       1.584   7.042  20.420  0.00  0.00    +0.000 C 
ATOM      3  O   UNL     1       2.220   7.846  19.742  0.00  0.00    +0.000 OA
ATOM      4  H   UNL     1       0.283   6.605  21.926  0.00  0.00    +0.000 HD
ENDROOT
BRANCH   1   9
ATOM      5  C   UNL     1      -0.655  10.793  20.584  0.00  0.00    +0.000 A 
ATOM      6  C   UNL     1      -0.863  11.287  21.885  0.00  0.00    +0.000 A 
ATOM      7  C   UNL     1      -0.596  10.498  22.991  0.00  0.00    +0.000 A 
ATOM      8  C   UNL     1      -0.110   9.203  22.832  0.00  0.00    +0.000 A 
ATOM      9  C   UNL     1       0.093   8.667  21.558  0.00  0.00    +0.000 A 
ATOM     10  C   UNL     1      -0.186   9.470  20.439  0.00  0.00    +0.000 A 
BRANCH   5  12
ATOM     11  C   UNL     1       0.422  12.244  18.821  0.00  0.00    +0.000 C 
ATOM     12  C   UNL     1      -0.900  11.657  19.347  0.00  0.00    +0.000 C 
BRANCH  12  13
ATOM     13  C   UNL     1      -1.996  12.706  19.639  0.00  0.00    +0.000 C 
BRANCH  13  14
ATOM     14  C   UNL     1      -3.387  12.267  19.319  0.00  0.00    +0.000 A 
ATOM     15  N   UNL     1      -3.804  11.636  18.235  0.00  0.00    +0.000 NA
ATOM     16  N   UNL     1      -5.152  11.386  18.367  0.00  0.00    +0.000 NA
ATOM     17  C   UNL     1      -5.535  11.849  19.539  0.00  0.00    +0.000 A 
ATOM     18  N   UNL     1      -4.464  12.413  20.163  0.00  0.00    +0.000 N 
ATOM     19  C   UNL     1      -4.469  13.021  21.466  0.00  0.00    +0.000 C 
ENDBRANCH  13  14
ENDBRANCH  12  13
ENDBRANCH   5  12
ENDBRANCH   1   9
BRANCH   2  20
ATOM     20  C   UNL     1       1.926   5.589  20.311  0.00  0.00    +0.000 A 
ATOM     21  C   UNL     1       2.331   5.110  19.073  0.00  0.00    +0.000 A 
ATOM     22  C   UNL     1       3.019   3.919  19.006  0.00  0.00    +0.000 A 
ATOM     23  C   UNL     1       3.010   3.092  20.132  0.00  0.00    +0.000 A 
ATOM     24  C   UNL     1       2.419   3.578  21.293  0.00  0.00    +0.000 A 
ATOM     25  N   UNL     1       1.940   4.838  21.437  0.00  0.00    +0.000 NA
BRANCH  22  26
ATOM     26  C   UNL     1       3.705   3.513  17.751  0.00  0.00    +0.000 C 
ATOM     27  O   UNL     1       3.468   2.375  17.351  0.00  0.00    +0.000 OA
ATOM     28  N   UNL     1       4.579   4.380  17.069  0.00  0.00    +0.000 N 
ATOM     29  C   UNL     1       5.007   3.979  15.733  0.00  0.00    +0.000 C 
ATOM     30  C   UNL     1       6.456   4.399  15.626  0.00  0.00    +0.000 C 
ATOM     31  C   UNL     1       6.549   5.655  16.474  0.00  0.00    +0.000 C 
ATOM     32  C   UNL     1       5.393   5.560  17.535  0.00  0.00    +0.000 C 
ATOM     33  C   UNL     1       4.688   6.927  17.421  0.00  0.00    +0.000 C 
ATOM     34  C   UNL     1       5.939   5.352  18.957  0.00  0.00    +0.000 C 
BRANCH  31  35
ATOM     35  O   UNL     1       7.853   5.777  17.032  0.00  0.00    +0.000 OA
ATOM     36  H   UNL     1       8.416   5.089  16.637  0.00  0.00    +0.000 HD
ENDBRANCH  31  35
ENDBRANCH  22  26
ENDBRANCH   2  20
TORSDOF 7
ENDMDL
