MODEL 1
REMARK VINA RESULT:      -9.4      0.000      0.000
REMARK  Name = 
REMARK  11 active torsions:
REMARK  status: ('A' for Active; 'I' for Inactive)
REMARK    1  A    between atoms: C_1  and  C_2
REMARK    2  A    between atoms: C_2  and  C_3
REMARK    3  A    between atoms: C_2  and  C_10
REMARK    4  A    between atoms: C_3  and  C_4
REMARK    5  A    between atoms: N_8  and  C_9
REMARK    6  A    between atoms: C_14  and  N_15
REMARK    7  A    between atoms: C_20  and  C_21
REMARK    8  A    between atoms: C_21  and  C_22
REMARK    9  A    between atoms: C_21  and  C_23
REMARK   10  A    between atoms: C_21  and  O_24
REMARK   11  A    between atoms: C_26  and  C_27
REMARK                            x       y       z     vdW  Elec       q    Type
REMARK                         _______ _______ _______ _____ _____    ______ ____
ROOT
ATOM      1  N   UNL     1       1.978   7.880  19.515  0.00  0.00    +0.000 N 
ATOM      2  C   UNL     1       1.452   8.292  20.787  0.00  0.00    +0.000 C 
ATOM      3  C   UNL     1       0.798   9.584  20.543  0.00  0.00    +0.000 A 
ATOM      4  C   UNL     1       1.108  10.051  19.274  0.00  0.00    +0.000 A 
ATOM      5  C   UNL     1       0.675  11.323  18.897  0.00  0.00    +0.000 A 
ATOM      6  C   UNL     1      -0.114  12.095  19.801  0.00  0.00    +0.000 A 
ATOM      7  C   UNL     1      -0.463  11.521  21.058  0.00  0.00    +0.000 A 
ATOM      8  C   UNL     1      -0.017  10.261  21.445  0.00  0.00    +0.000 A 
ATOM      9  C   UNL     1       1.836   8.923  18.557  0.00  0.00    +0.000 C 
ATOM     10  O   UNL     1       2.175   8.963  17.389  0.00  0.00    +0.000 OA
ENDROOT
BRANCH   1  15
ATOM     11  C   UNL     1       3.939   4.954  18.159  0.00  0.00    +0.000 A 
ATOM     12  C   UNL     1       3.652   3.976  19.103  0.00  0.00    +0.000 A 
ATOM     13  C   UNL     1       2.802   4.269  20.184  0.00  0.00    +0.000 A 
ATOM     14  C   UNL     1       2.220   5.545  20.353  0.00  0.00    +0.000 A 
ATOM     15  C   UNL     1       2.491   6.550  19.442  0.00  0.00    +0.000 A 
ATOM     16  C   UNL     1       3.357   6.217  18.360  0.00  0.00    +0.000 A 
BRANCH  11  18
ATOM     17  C   UNL     1       4.350   3.372  16.230  0.00  0.00    +0.000 C 
ATOM     18  C   UNL     1       4.801   4.673  16.919  0.00  0.00    +0.000 C 
BRANCH  18  19
ATOM     19  C   UNL     1       6.297   4.706  17.317  0.00  0.00    +0.000 C 
BRANCH  19  20
ATOM     20  C   UNL     1       6.895   6.065  17.533  0.00  0.00    +0.000 A 
ATOM     21  N   UNL     1       6.840   7.085  16.699  0.00  0.00    +0.000 NA
ATOM     22  N   UNL     1       7.640   8.092  17.188  0.00  0.00    +0.000 NA
ATOM     23  C   UNL     1       8.171   7.670  18.311  0.00  0.00    +0.000 A 
ATOM     24  N   UNL     1       7.711   6.415  18.580  0.00  0.00    +0.000 N 
ATOM     25  C   UNL     1       8.028   5.638  19.747  0.00  0.00    +0.000 C 
ENDBRANCH  19  20
ENDBRANCH  18  19
ENDBRANCH  11  18
ENDBRANCH   1  15
BRANCH   8  26
ATOM     26  C   UNL     1      -0.433   9.658  22.765  0.00  0.00    +0.000 C 
ATOM     27  F   UNL     1       0.578   9.487  23.647  0.00  0.00    +0.000 F 
ATOM     28  F   UNL     1      -1.357  10.418  23.411  0.00  0.00    +0.000 F 
ATOM     29  F   UNL     1      -0.993   8.422  22.611  0.00  0.00    +0.000 F 
ENDBRANCH   8  26
BRANCH   6  30
ATOM     30  C   UNL     1      -0.711  13.477  19.495  0.00  0.00    +0.000 C 
ATOM     31  C   UNL     1      -1.846  13.910  20.423  0.00  0.00    +0.000 C 
ATOM     32  C   UNL     1       0.401  14.536  19.473  0.00  0.00    +0.000 C 
BRANCH  30  33
ATOM     33  O   UNL     1      -1.248  13.473  18.159  0.00  0.00    +0.000 OA
ATOM     34  H   UNL     1      -2.080  13.975  18.164  0.00  0.00    +0.000 HD
ENDBRANCH  30  33
ENDBRANCH   6  30
TORSDOF 7
ENDMDL
MODEL 2
REMARK VINA RESULT:      -9.3      1.476      2.347
REMARK  Name = 
REMARK  11 active torsions:
REMARK  status: ('A' for Active; 'I' for Inactive)
REMARK    1  A    between atoms: C_1  and  C_2
REMARK    2  A    between atoms: C_2  and  C_3
REMARK    3  A    between atoms: C_2  and  C_10
REMARK    4  A    between atoms: C_3  and  C_4
REMARK    5  A    between atoms: N_8  and  C_9
REMARK    6  A    between atoms: C_14  and  N_15
REMARK    7  A    between atoms: C_20  and  C_21
REMARK    8  A    between atoms: C_21  and  C_22
REMARK    9  A    between atoms: C_21  and  C_23
REMARK   10  A    between atoms: C_21  and  O_24
REMARK   11  A    between atoms: C_26  and  C_27
REMARK                            x       y       z     vdW  Elec       q    Type
REMARK                         _______ _______ _______ _____ _____    ______ ____
ROOT
ATOM      1  N   UNL     1       2.170   7.518  19.432  0.00  0.00    +0.000 N 
ATOM      2  C   UNL     1       1.609   7.994  20.667  0.00  0.00    +0.000 C 
ATOM      3  C   UNL     1       0.937   9.256  20.334  0.00  0.00    +0.000 A 
ATOM      4  C   UNL     1       1.264   9.654  19.047  0.00  0.00    +0.000 A 
ATOM      5  C   UNL     1       0.816  10.892  18.587  0.00  0.00    +0.000 A 
ATOM      6  C   UNL     1      -0.007  11.701  19.428  0.00  0.00    +0.000 A 
ATOM      7  C   UNL     1      -0.370  11.194  20.710  0.00  0.00    +0.000 A 
ATOM      8  C   UNL     1       0.090   9.968  21.179  0.00  0.00    +0.000 A 
ATOM      9  C   UNL     1       2.028   8.500  18.412  0.00  0.00    +0.000 C 
ATOM     10  O   UNL     1       2.391   8.479  17.250  0.00  0.00    +0.000 OA
ENDROOT
BRANCH   1  15
ATOM     11  C   UNL     1       4.475   4.668  18.536  0.00  0.00    +0.000 A 
ATOM     12  C   UNL     1       3.967   3.649  19.333  0.00  0.00    +0.000 A 
ATOM     13  C   UNL     1       2.856   3.889  20.160  0.00  0.00    +0.000 A 
ATOM     14  C   UNL     1       2.225   5.152  20.215  0.00  0.00    +0.000 A 
ATOM     15  C   UNL     1       2.709   6.197  19.448  0.00  0.00    +0.000 A 
ATOM     16  C   UNL     1       3.837   5.916  18.623  0.00  0.00    +0.000 A 
BRANCH  11  18
ATOM     17  C   UNL     1       6.944   5.035  18.132  0.00  0.00    +0.000 C 
ATOM     18  C   UNL     1       5.640   4.446  17.561  0.00  0.00    +0.000 C 
BRANCH  18  19
ATOM     19  C   UNL     1       5.249   4.985  16.163  0.00  0.00    +0.000 C 
BRANCH  19  20
ATOM     20  C   UNL     1       6.338   5.001  15.132  0.00  0.00    +0.000 A 
ATOM     21  N   UNL     1       7.480   5.656  15.210  0.00  0.00    +0.000 NA
ATOM     22  N   UNL     1       8.131   5.546  14.003  0.00  0.00    +0.000 NA
ATOM     23  C   UNL     1       7.375   4.827  13.207  0.00  0.00    +0.000 A 
ATOM     24  N   UNL     1       6.254   4.442  13.880  0.00  0.00    +0.000 N 
ATOM     25  C   UNL     1       5.210   3.604  13.360  0.00  0.00    +0.000 C 
ENDBRANCH  19  20
ENDBRANCH  18  19
ENDBRANCH  11  18
ENDBRANCH   1  15
BRANCH   8  26
ATOM     26  C   UNL     1      -0.342   9.436  22.524  0.00  0.00    +0.000 C 
ATOM     27  F   UNL     1      -0.972   8.240  22.478  0.00  0.00    +0.000 F 
ATOM     28  F   UNL     1       0.705   9.264  23.372  0.00  0.00    +0.000 F 
ATOM     29  F   UNL     1      -1.212  10.279  23.154  0.00  0.00    +0.000 F 
ENDBRANCH   8  26
BRANCH   6  30
ATOM     30  C   UNL     1      -0.623  13.050  19.029  0.00  0.00    +0.000 C 
ATOM     31  C   UNL     1      -1.818  13.490  19.876  0.00  0.00    +0.000 C 
ATOM     32  C   UNL     1       0.460  14.139  19.019  0.00  0.00    +0.000 C 
BRANCH  30  33
ATOM     33  O   UNL     1      -1.086  12.972  17.668  0.00  0.00    +0.000 OA
ATOM     34  H   UNL     1      -1.403  13.853  17.404  0.00  0.00    +0.000 HD
ENDBRANCH  30  33
ENDBRANCH   6  30
TORSDOF 7
ENDMDL
MODEL 3
REMARK VINA RESULT:      -9.1      0.630      1.116
REMARK  Name = 
REMARK  11 active torsions:
REMARK  status: ('A' for Active; 'I' for Inactive)
REMARK    1  A    between atoms: C_1  and  C_2
REMARK    2  A    between atoms: C_2  and  C_3
REMARK    3  A    between atoms: C_2  and  C_10
REMARK    4  A    between atoms: C_3  and  C_4
REMARK    5  A    between atoms: N_8  and  C_9
REMARK    6  A    between atoms: C_14  and  N_15
REMARK    7  A    between atoms: C_20  and  C_21
REMARK    8  A    between atoms: C_21  and  C_22
REMARK    9  A    between atoms: C_21  and  C_23
REMARK   10  A    between atoms: C_21  and  O_24
REMARK   11  A    between atoms: C_26  and  C_27
REMARK                            x       y       z     vdW  Elec       q    Type
REMARK                         _______ _______ _______ _____ _____    ______ ____
ROOT
ATOM      1  N   UNL     1       1.966   8.000  19.324  0.00  0.00    +0.000 N 
ATOM      2  C   UNL     1       1.480   8.347  20.631  0.00  0.00    +0.000 C 
ATOM      3  C   UNL     1       0.801   9.638  20.469  0.00  0.00    +0.000 A 
ATOM      4  C   UNL     1       1.057  10.166  19.213  0.00  0.00    +0.000 A 
ATOM      5  C   UNL     1       0.593  11.446  18.910  0.00  0.00    +0.000 A 
ATOM      6  C   UNL     1      -0.174  12.165  19.876  0.00  0.00    +0.000 A 
ATOM      7  C   UNL     1      -0.468  11.529  21.117  0.00  0.00    +0.000 A 
ATOM      8  C   UNL     1       0.009  10.261  21.430  0.00  0.00    +0.000 A 
ATOM      9  C   UNL     1       1.775   9.083  18.420  0.00  0.00    +0.000 C 
ATOM     10  O   UNL     1       2.070   9.181  17.244  0.00  0.00    +0.000 OA
ENDROOT
BRANCH   1  15
ATOM     11  C   UNL     1       3.882   5.158  17.745  0.00  0.00    +0.000 A 
ATOM     12  C   UNL     1       3.673   4.144  18.671  0.00  0.00    +0.000 A 
ATOM     13  C   UNL     1       2.891   4.384  19.814  0.00  0.00    +0.000 A 
ATOM     14  C   UNL     1       2.299   5.643  20.063  0.00  0.00    +0.000 A 
ATOM     15  C   UNL     1       2.495   6.684  19.172  0.00  0.00    +0.000 A 
ATOM     16  C   UNL     1       3.294   6.402  18.026  0.00  0.00    +0.000 A 
BRANCH  11  18
ATOM     17  C   UNL     1       5.030   3.447  16.279  0.00  0.00    +0.000 C 
ATOM     18  C   UNL     1       4.667   4.935  16.443  0.00  0.00    +0.000 C 
BRANCH  18  19
ATOM     19  C   UNL     1       5.875   5.901  16.401  0.00  0.00    +0.000 C 
BRANCH  19  20
ATOM     20  C   UNL     1       6.859   5.780  17.527  0.00  0.00    +0.000 A 
ATOM     21  N   UNL     1       7.106   4.696  18.237  0.00  0.00    +0.000 NA
ATOM     22  N   UNL     1       7.949   5.035  19.271  0.00  0.00    +0.000 NA
ATOM     23  C   UNL     1       8.201   6.319  19.177  0.00  0.00    +0.000 A 
ATOM     24  N   UNL     1       7.560   6.822  18.083  0.00  0.00    +0.000 N 
ATOM     25  C   UNL     1       7.633   8.180  17.620  0.00  0.00    +0.000 C 
ENDBRANCH  19  20
ENDBRANCH  18  19
ENDBRANCH  11  18
ENDBRANCH   1  15
BRANCH   8  26
ATOM     26  C   UNL     1      -0.351   9.593  22.736  0.00  0.00    +0.000 C 
ATOM     27  F   UNL     1       0.696   9.388  23.569  0.00  0.00    +0.000 F 
ATOM     28  F   UNL     1      -1.253  10.312  23.453  0.00  0.00    +0.000 F 
ATOM     29  F   UNL     1      -0.907   8.360  22.545  0.00  0.00    +0.000 F 
ENDBRANCH   8  26
BRANCH   6  30
ATOM     30  C   UNL     1      -0.801  13.550  19.655  0.00  0.00    +0.000 C 
ATOM     31  C   UNL     1      -2.088  13.808  20.438  0.00  0.00    +0.000 C 
ATOM     32  C   UNL     1       0.234  14.647  19.942  0.00  0.00    +0.000 C 
BRANCH  30  33
ATOM     33  O   UNL     1      -1.127  13.701  18.260  0.00  0.00    +0.000 OA
ATOM     34  H   UNL     1      -0.833  12.902  17.791  0.00  0.00    +0.000 HD
ENDBRANCH  30  33
ENDBRANCH   6  30
TORSDOF 7
ENDMDL
MODEL 4
REMARK VINA RESULT:      -8.9      0.926      1.302
REMARK  Name = 
REMARK  11 active torsions:
REMARK  status: ('A' for Active; 'I' for Inactive)
REMARK    1  A    between atoms: C_1  and  C_2
REMARK    2  A    between atoms: C_2  and  C_3
REMARK    3  A    between atoms: C_2  and  C_10
REMARK    4  A    between atoms: C_3  and  C_4
REMARK    5  A    between atoms: N_8  and  C_9
REMARK    6  A    between atoms: C_14  and  N_15
REMARK    7  A    between atoms: C_20  and  C_21
REMARK    8  A    between atoms: C_21  and  C_22
REMARK    9  A    between atoms: C_21  and  C_23
REMARK   10  A    between atoms: C_21  and  O_24
REMARK   11  A    between atoms: C_26  and  C_27
REMARK                            x       y       z     vdW  Elec       q    Type
REMARK                         _______ _______ _______ _____ _____    ______ ____
ROOT
ATOM      1  N   UNL     1       1.845   7.531  19.749  0.00  0.00    +0.000 N 
ATOM      2  C   UNL     1       1.343   8.126  20.957  0.00  0.00    +0.000 C 
ATOM      3  C   UNL     1       0.839   9.448  20.565  0.00  0.00    +0.000 A 
ATOM      4  C   UNL     1       1.222   9.746  19.266  0.00  0.00    +0.000 A 
ATOM      5  C   UNL     1       0.938  11.011  18.751  0.00  0.00    +0.000 A 
ATOM      6  C   UNL     1       0.220  11.952  19.549  0.00  0.00    +0.000 A 
ATOM      7  C   UNL     1      -0.213  11.551  20.846  0.00  0.00    +0.000 A 
ATOM      8  C   UNL     1       0.085  10.297  21.371  0.00  0.00    +0.000 A 
ATOM      9  C   UNL     1       1.836   8.479  18.688  0.00  0.00    +0.000 C 
ATOM     10  O   UNL     1       2.199   8.362  17.532  0.00  0.00    +0.000 OA
ENDROOT
BRANCH   1  15
ATOM     11  C   UNL     1       3.143   4.185  18.583  0.00  0.00    +0.000 A 
ATOM     12  C   UNL     1       3.031   3.431  19.745  0.00  0.00    +0.000 A 
ATOM     13  C   UNL     1       2.516   4.015  20.916  0.00  0.00    +0.000 A 
ATOM     14  C   UNL     1       2.103   5.366  20.958  0.00  0.00    +0.000 A 
ATOM     15  C   UNL     1       2.212   6.154  19.825  0.00  0.00    +0.000 A 
ATOM     16  C   UNL     1       2.738   5.527  18.658  0.00  0.00    +0.000 A 
BRANCH  11  18
ATOM     17  C   UNL     1       2.863   2.286  16.937  0.00  0.00    +0.000 C 
ATOM     18  C   UNL     1       3.630   3.583  17.256  0.00  0.00    +0.000 C 
BRANCH  18  19
ATOM     19  C   UNL     1       5.169   3.427  17.298  0.00  0.00    +0.000 C 
BRANCH  19  20
ATOM     20  C   UNL     1       5.968   4.657  16.984  0.00  0.00    +0.000 A 
ATOM     21  N   UNL     1       6.325   5.073  15.785  0.00  0.00    +0.000 NA
ATOM     22  N   UNL     1       7.178   6.143  15.929  0.00  0.00    +0.000 NA
ATOM     23  C   UNL     1       7.329   6.362  17.214  0.00  0.00    +0.000 A 
ATOM     24  N   UNL     1       6.569   5.472  17.913  0.00  0.00    +0.000 N 
ATOM     25  C   UNL     1       6.433   5.425  19.342  0.00  0.00    +0.000 C 
ENDBRANCH  19  20
ENDBRANCH  18  19
ENDBRANCH  11  18
ENDBRANCH   1  15
BRANCH   8  26
ATOM     26  C   UNL     1      -0.420   9.881  22.731  0.00  0.00    +0.000 C 
ATOM     27  F   UNL     1      -1.126   8.727  22.740  0.00  0.00    +0.000 F 
ATOM     28  F   UNL     1       0.590   9.698  23.622  0.00  0.00    +0.000 F 
ATOM     29  F   UNL     1      -1.250  10.817  23.278  0.00  0.00    +0.000 F 
ENDBRANCH   8  26
BRANCH   6  30
ATOM     30  C   UNL     1      -0.217  13.351  19.088  0.00  0.00    +0.000 C 
ATOM     31  C   UNL     1      -1.217  14.051  20.008  0.00  0.00    +0.000 C 
ATOM     32  C   UNL     1       1.017  14.237  18.860  0.00  0.00    +0.000 C 
BRANCH  30  33
ATOM     33  O   UNL     1      -0.845  13.247  17.796  0.00  0.00    +0.000 OA
ATOM     34  H   UNL     1      -0.416  13.882  17.198  0.00  0.00    +0.000 HD
ENDBRANCH  30  33
ENDBRANCH   6  30
TORSDOF 7
ENDMDL
MODEL 5
REMARK VINA RESULT:      -8.9      1.559      2.062
REMARK  Name = 
REMARK  11 active torsions:
REMARK  status: ('A' for Active; 'I' for Inactive)
REMARK    1  A    between atoms: C_1  and  C_2
REMARK    2  A    between atoms: C_2  and  C_3
REMARK    3  A    between atoms: C_2  and  C_10
REMARK    4  A    between atoms: C_3  and  C_4
REMARK    5  A    between atoms: N_8  and  C_9
REMARK    6  A    between atoms: C_14  and  N_15
REMARK    7  A    between atoms: C_20  and  C_21
REMARK    8  A    between atoms: C_21  and  C_22
REMARK    9  A    between atoms: C_21  and  C_23
REMARK   10  A    between atoms: C_21  and  O_24
REMARK   11  A    between atoms: C_26  and  C_27
REMARK                            x       y       z     vdW  Elec       q    Type
REMARK                         _______ _______ _______ _____ _____    ______ ____
ROOT
ATOM      1  N   UNL     1       1.791   7.242  19.964  0.00  0.00    +0.000 N 
ATOM      2  C   UNL     1       1.294   7.883  21.150  0.00  0.00    +0.000 C 
ATOM      3  C   UNL     1       0.963   9.256  20.747  0.00  0.00    +0.000 A 
ATOM      4  C   UNL     1       1.446   9.516  19.474  0.00  0.00    +0.000 A 
ATOM      5  C   UNL     1       1.333  10.808  18.959  0.00  0.00    +0.000 A 
ATOM      6  C   UNL     1       0.683  11.819  19.728  0.00  0.00    +0.000 A 
ATOM      7  C   UNL     1       0.139  11.462  20.996  0.00  0.00    +0.000 A 
ATOM      8  C   UNL     1       0.266  10.180  21.521  0.00  0.00    +0.000 A 
ATOM      9  C   UNL     1       1.945   8.191  18.914  0.00  0.00    +0.000 C 
ATOM     10  O   UNL     1       2.355   8.041  17.779  0.00  0.00    +0.000 OA
ENDROOT
BRANCH   1  15
ATOM     11  C   UNL     1       2.733   3.772  18.819  0.00  0.00    +0.000 A 
ATOM     12  C   UNL     1       2.504   3.035  19.974  0.00  0.00    +0.000 A 
ATOM     13  C   UNL     1       2.026   3.672  21.132  0.00  0.00    +0.000 A 
ATOM     14  C   UNL     1       1.767   5.061  21.169  0.00  0.00    +0.000 A 
ATOM     15  C   UNL     1       1.996   5.833  20.044  0.00  0.00    +0.000 A 
ATOM     16  C   UNL     1       2.481   5.152  18.889  0.00  0.00    +0.000 A 
BRANCH  11  18
ATOM     17  C   UNL     1       3.791   1.730  17.769  0.00  0.00    +0.000 C 
ATOM     18  C   UNL     1       3.186   3.121  17.503  0.00  0.00    +0.000 C 
BRANCH  18  19
ATOM     19  C   UNL     1       4.118   4.094  16.743  0.00  0.00    +0.000 C 
BRANCH  19  20
ATOM     20  C   UNL     1       5.526   4.196  17.253  0.00  0.00    +0.000 A 
ATOM     21  N   UNL     1       5.897   4.279  18.515  0.00  0.00    +0.000 NA
ATOM     22  N   UNL     1       7.251   4.517  18.558  0.00  0.00    +0.000 NA
ATOM     23  C   UNL     1       7.685   4.576  17.321  0.00  0.00    +0.000 A 
ATOM     24  N   UNL     1       6.643   4.354  16.470  0.00  0.00    +0.000 N 
ATOM     25  C   UNL     1       6.729   4.293  15.037  0.00  0.00    +0.000 C 
ENDBRANCH  19  20
ENDBRANCH  18  19
ENDBRANCH  11  18
ENDBRANCH   1  15
BRANCH   8  26
ATOM     26  C   UNL     1      -0.355   9.816  22.848  0.00  0.00    +0.000 C 
ATOM     27  F   UNL     1       0.536   9.582  23.839  0.00  0.00    +0.000 F 
ATOM     28  F   UNL     1      -1.176  10.791  23.319  0.00  0.00    +0.000 F 
ATOM     29  F   UNL     1      -1.111   8.682  22.767  0.00  0.00    +0.000 F 
ENDBRANCH   8  26
BRANCH   6  30
ATOM     30  C   UNL     1       0.431  13.261  19.261  0.00  0.00    +0.000 C 
ATOM     31  C   UNL     1       1.668  14.000  18.750  0.00  0.00    +0.000 C 
ATOM     32  C   UNL     1      -0.684  13.283  18.205  0.00  0.00    +0.000 C 
BRANCH  30  33
ATOM     33  O   UNL     1      -0.085  14.030  20.363  0.00  0.00    +0.000 OA
ATOM     34  H   UNL     1      -0.996  14.293  20.150  0.00  0.00    +0.000 HD
ENDBRANCH  30  33
ENDBRANCH   6  30
TORSDOF 7
ENDMDL
MODEL 6
REMARK VINA RESULT:      -8.8      1.405      1.834
REMARK  Name = 
REMARK  11 active torsions:
REMARK  status: ('A' for Active; 'I' for Inactive)
REMARK    1  A    between atoms: C_1  and  C_2
REMARK    2  A    between atoms: C_2  and  C_3
REMARK    3  A    between atoms: C_2  and  C_10
REMARK    4  A    between atoms: C_3  and  C_4
REMARK    5  A    between atoms: N_8  and  C_9
REMARK    6  A    between atoms: C_14  and  N_15
REMARK    7  A    between atoms: C_20  and  C_21
REMARK    8  A    between atoms: C_21  and  C_22
REMARK    9  A    between atoms: C_21  and  C_23
REMARK   10  A    between atoms: C_21  and  O_24
REMARK   11  A    between atoms: C_26  and  C_27
REMARK                            x       y       z     vdW  Elec       q    Type
REMARK                         _______ _______ _______ _____ _____    ______ ____
ROOT
ATOM      1  N   UNL     1       1.797   7.378  19.867  0.00  0.00    +0.000 N 
ATOM      2  C   UNL     1       1.308   8.033  21.049  0.00  0.00    +0.000 C 
ATOM      3  C   UNL     1       0.849   9.356  20.605  0.00  0.00    +0.000 A 
ATOM      4  C   UNL     1       1.248   9.593  19.299  0.00  0.00    +0.000 A 
ATOM      5  C   UNL     1       1.008  10.847  18.736  0.00  0.00    +0.000 A 
ATOM      6  C   UNL     1       0.317  11.839  19.494  0.00  0.00    +0.000 A 
ATOM      7  C   UNL     1      -0.136  11.500  20.802  0.00  0.00    +0.000 A 
ATOM      8  C   UNL     1       0.119  10.257  21.374  0.00  0.00    +0.000 A 
ATOM      9  C   UNL     1       1.825   8.287  18.771  0.00  0.00    +0.000 C 
ATOM     10  O   UNL     1       2.190   8.116  17.623  0.00  0.00    +0.000 OA
ENDROOT
BRANCH   1  15
ATOM     11  C   UNL     1       3.219   4.013  18.923  0.00  0.00    +0.000 A 
ATOM     12  C   UNL     1       2.888   3.256  20.040  0.00  0.00    +0.000 A 
ATOM     13  C   UNL     1       2.185   3.845  21.106  0.00  0.00    +0.000 A 
ATOM     14  C   UNL     1       1.796   5.203  21.084  0.00  0.00    +0.000 A 
ATOM     15  C   UNL     1       2.119   5.994  19.995  0.00  0.00    +0.000 A 
ATOM     16  C   UNL     1       2.832   5.362  18.936  0.00  0.00    +0.000 A 
BRANCH  11  18
ATOM     17  C   UNL     1       3.765   1.875  17.687  0.00  0.00    +0.000 C 
ATOM     18  C   UNL     1       3.922   3.407  17.698  0.00  0.00    +0.000 C 
BRANCH  18  19
ATOM     19  C   UNL     1       5.387   3.904  17.651  0.00  0.00    +0.000 C 
BRANCH  19  20
ATOM     20  C   UNL     1       5.925   4.249  16.293  0.00  0.00    +0.000 A 
ATOM     21  N   UNL     1       5.774   3.544  15.189  0.00  0.00    +0.000 NA
ATOM     22  N   UNL     1       6.546   4.108  14.201  0.00  0.00    +0.000 NA
ATOM     23  C   UNL     1       7.158   5.148  14.718  0.00  0.00    +0.000 A 
ATOM     24  N   UNL     1       6.778   5.290  16.019  0.00  0.00    +0.000 N 
ATOM     25  C   UNL     1       7.197   6.341  16.905  0.00  0.00    +0.000 C 
ENDBRANCH  19  20
ENDBRANCH  18  19
ENDBRANCH  11  18
ENDBRANCH   1  15
BRANCH   8  26
ATOM     26  C   UNL     1      -0.407   9.908  22.746  0.00  0.00    +0.000 C 
ATOM     27  F   UNL     1       0.552   9.708  23.679  0.00  0.00    +0.000 F 
ATOM     28  F   UNL     1      -1.213  10.877  23.252  0.00  0.00    +0.000 F 
ATOM     29  F   UNL     1      -1.146   8.760  22.735  0.00  0.00    +0.000 F 
ENDBRANCH   8  26
BRANCH   6  30
ATOM     30  C   UNL     1      -0.072  13.234  18.979  0.00  0.00    +0.000 C 
ATOM     31  C   UNL     1      -0.971  14.040  19.916  0.00  0.00    +0.000 C 
ATOM     32  C   UNL     1       1.190  14.032  18.623  0.00  0.00    +0.000 C 
BRANCH  30  33
ATOM     33  O   UNL     1      -0.787  13.094  17.737  0.00  0.00    +0.000 OA
ATOM     34  H   UNL     1      -1.732  12.988  17.941  0.00  0.00    +0.000 HD
ENDBRANCH  30  33
ENDBRANCH   6  30
TORSDOF 7
ENDMDL
MODEL 7
REMARK VINA RESULT:      -8.8      0.895      1.568
REMARK  Name = 
REMARK  11 active torsions:
REMARK  status: ('A' for Active; 'I' for Inactive)
REMARK    1  A    between atoms: C_1  and  C_2
REMARK    2  A    between atoms: C_2  and  C_3
REMARK    3  A    between atoms: C_2  and  C_10
REMARK    4  A    between atoms: C_3  and  C_4
REMARK    5  A    between atoms: N_8  and  C_9
REMARK    6  A    between atoms: C_14  and  N_15
REMARK    7  A    between atoms: C_20  and  C_21
REMARK    8  A    between atoms: C_21  and  C_22
REMARK    9  A    between atoms: C_21  and  C_23
REMARK   10  A    between atoms: C_21  and  O_24
REMARK   11  A    between atoms: C_26  and  C_27
REMARK                            x       y       z     vdW  Elec       q    Type
REMARK                         _______ _______ _______ _____ _____    ______ ____
ROOT
ATOM      1  N   UNL     1       1.927   8.102  19.371  0.00  0.00    +0.000 N 
ATOM      2  C   UNL     1       1.434   8.393  20.690  0.00  0.00    +0.000 C 
ATOM      3  C   UNL     1       0.814   9.721  20.594  0.00  0.00    +0.000 A 
ATOM      4  C   UNL     1       1.115  10.310  19.376  0.00  0.00    +0.000 A 
ATOM      5  C   UNL     1       0.713  11.625  19.142  0.00  0.00    +0.000 A 
ATOM      6  C   UNL     1      -0.038  12.319  20.138  0.00  0.00    +0.000 A 
ATOM      7  C   UNL     1      -0.382  11.626  21.334  0.00  0.00    +0.000 A 
ATOM      8  C   UNL     1       0.033  10.321  21.579  0.00  0.00    +0.000 A 
ATOM      9  C   UNL     1       1.799   9.243  18.530  0.00  0.00    +0.000 C 
ATOM     10  O   UNL     1       2.119   9.397  17.366  0.00  0.00    +0.000 OA
ENDROOT
BRANCH   1  15
ATOM     11  C   UNL     1       3.780   5.284  17.680  0.00  0.00    +0.000 A 
ATOM     12  C   UNL     1       3.480   4.220  18.522  0.00  0.00    +0.000 A 
ATOM     13  C   UNL     1       2.657   4.420  19.643  0.00  0.00    +0.000 A 
ATOM     14  C   UNL     1       2.114   5.686  19.955  0.00  0.00    +0.000 A 
ATOM     15  C   UNL     1       2.400   6.774  19.150  0.00  0.00    +0.000 A 
ATOM     16  C   UNL     1       3.238   6.533  18.023  0.00  0.00    +0.000 A 
BRANCH  11  18
ATOM     17  C   UNL     1       4.996   3.633  16.200  0.00  0.00    +0.000 C 
ATOM     18  C   UNL     1       4.614   5.112  16.401  0.00  0.00    +0.000 C 
BRANCH  18  19
ATOM     19  C   UNL     1       5.814   6.088  16.437  0.00  0.00    +0.000 C 
BRANCH  19  20
ATOM     20  C   UNL     1       6.804   5.879  17.545  0.00  0.00    +0.000 A 
ATOM     21  N   UNL     1       6.987   4.769  18.232  0.00  0.00    +0.000 NA
ATOM     22  N   UNL     1       7.866   5.030  19.259  0.00  0.00    +0.000 NA
ATOM     23  C   UNL     1       8.203   6.296  19.182  0.00  0.00    +0.000 A 
ATOM     24  N   UNL     1       7.583   6.861  18.108  0.00  0.00    +0.000 N 
ATOM     25  C   UNL     1       7.741   8.219  17.667  0.00  0.00    +0.000 C 
ENDBRANCH  19  20
ENDBRANCH  18  19
ENDBRANCH  11  18
ENDBRANCH   1  15
BRANCH   8  26
ATOM     26  C   UNL     1      -0.378   9.594  22.837  0.00  0.00    +0.000 C 
ATOM     27  F   UNL     1      -0.953   8.388  22.626  0.00  0.00    +0.000 F 
ATOM     28  F   UNL     1       0.674   9.358  23.664  0.00  0.00    +0.000 F 
ATOM     29  F   UNL     1      -1.287  10.306  23.566  0.00  0.00    +0.000 F 
ENDBRANCH   8  26
BRANCH   6  30
ATOM     30  C   UNL     1      -0.600  13.741  19.989  0.00  0.00    +0.000 C 
ATOM     31  C   UNL     1      -0.315  14.411  18.645  0.00  0.00    +0.000 C 
ATOM     32  C   UNL     1      -2.107  13.743  20.284  0.00  0.00    +0.000 C 
BRANCH  30  33
ATOM     33  O   UNL     1      -0.021  14.585  21.003  0.00  0.00    +0.000 OA
ATOM     34  H   UNL     1       0.892  14.792  20.741  0.00  0.00    +0.000 HD
ENDBRANCH  30  33
ENDBRANCH   6  30
TORSDOF 7
ENDMDL
MODEL 8
REMARK VINA RESULT:      -8.7      1.284      2.154
REMARK  Name = 
REMARK  11 active torsions:
REMARK  status: ('A' for Active; 'I' for Inactive)
REMARK    1  A    between atoms: C_1  and  C_2
REMARK    2  A    between atoms: C_2  and  C_3
REMARK    3  A    between atoms: C_2  and  C_10
REMARK    4  A    between atoms: C_3  and  C_4
REMARK    5  A    between atoms: N_8  and  C_9
REMARK    6  A    between atoms: C_14  and  N_15
REMARK    7  A    between atoms: C_20  and  C_21
REMARK    8  A    between atoms: C_21  and  C_22
REMARK    9  A    between atoms: C_21  and  C_23
REMARK   10  A    between atoms: C_21  and  O_24
REMARK   11  A    between atoms: C_26  and  C_27
REMARK                            x       y       z     vdW  Elec       q    Type
REMARK                         _______ _______ _______ _____ _____    ______ ____
ROOT
ATOM      1  N   UNL     1       2.281   7.713  19.401  0.00  0.00    +0.000 N 
ATOM      2  C   UNL     1       1.710   8.129  20.653  0.00  0.00    +0.000 C 
ATOM      3  C   UNL     1       0.842   9.269  20.330  0.00  0.00    +0.000 A 
ATOM      4  C   UNL     1       1.050   9.680  19.022  0.00  0.00    +0.000 A 
ATOM      5  C   UNL     1       0.401  10.826  18.562  0.00  0.00    +0.000 A 
ATOM      6  C   UNL     1      -0.496  11.523  19.427  0.00  0.00    +0.000 A 
ATOM      7  C   UNL     1      -0.724  10.998  20.732  0.00  0.00    +0.000 A 
ATOM      8  C   UNL     1      -0.065   9.867  21.200  0.00  0.00    +0.000 A 
ATOM      9  C   UNL     1       1.950   8.638  18.372  0.00  0.00    +0.000 C 
ATOM     10  O   UNL     1       2.260   8.642  17.195  0.00  0.00    +0.000 OA
ENDROOT
BRANCH   1  15
ATOM     11  C   UNL     1       5.242   5.400  19.045  0.00  0.00    +0.000 A 
ATOM     12  C   UNL     1       4.676   4.181  19.396  0.00  0.00    +0.000 A 
ATOM     13  C   UNL     1       3.315   4.109  19.739  0.00  0.00    +0.000 A 
ATOM     14  C   UNL     1       2.484   5.252  19.744  0.00  0.00    +0.000 A 
ATOM     15  C   UNL     1       3.013   6.488  19.415  0.00  0.00    +0.000 A 
ATOM     16  C   UNL     1       4.396   6.521  19.073  0.00  0.00    +0.000 A 
BRANCH  11  18
ATOM     17  C   UNL     1       6.958   6.914  17.969  0.00  0.00    +0.000 C 
ATOM     18  C   UNL     1       6.704   5.529  18.592  0.00  0.00    +0.000 C 
BRANCH  18  19
ATOM     19  C   UNL     1       7.063   4.335  17.674  0.00  0.00    +0.000 C 
BRANCH  19  20
ATOM     20  C   UNL     1       6.814   4.529  16.208  0.00  0.00    +0.000 A 
ATOM     21  N   UNL     1       7.630   5.102  15.344  0.00  0.00    +0.000 NA
ATOM     22  N   UNL     1       6.974   5.229  14.141  0.00  0.00    +0.000 NA
ATOM     23  C   UNL     1       5.768   4.733  14.290  0.00  0.00    +0.000 A 
ATOM     24  N   UNL     1       5.632   4.259  15.561  0.00  0.00    +0.000 N 
ATOM     25  C   UNL     1       4.471   3.599  16.091  0.00  0.00    +0.000 C 
ENDBRANCH  19  20
ENDBRANCH  18  19
ENDBRANCH  11  18
ENDBRANCH   1  15
BRANCH   8  26
ATOM     26  C   UNL     1      -0.353   9.308  22.573  0.00  0.00    +0.000 C 
ATOM     27  F   UNL     1       0.735   9.179  23.367  0.00  0.00    +0.000 F 
ATOM     28  F   UNL     1      -1.226  10.081  23.272  0.00  0.00    +0.000 F 
ATOM     29  F   UNL     1      -0.907   8.061  22.513  0.00  0.00    +0.000 F 
ENDBRANCH   8  26
BRANCH   6  30
ATOM     30  C   UNL     1      -1.325  12.755  19.033  0.00  0.00    +0.000 C 
ATOM     31  C   UNL     1      -2.367  13.188  20.064  0.00  0.00    +0.000 C 
ATOM     32  C   UNL     1      -0.393  13.925  18.685  0.00  0.00    +0.000 C 
BRANCH  30  33
ATOM     33  O   UNL     1      -2.039  12.473  17.815  0.00  0.00    +0.000 OA
ATOM     34  H   UNL     1      -1.679  11.654  17.435  0.00  0.00    +0.000 HD
ENDBRANCH  30  33
ENDBRANCH   6  30
TORSDOF 7
ENDMDL
MODEL 9
REMARK VINA RESULT:      -8.6      1.980      2.743
REMARK  Name = 
REMARK  11 active torsions:
REMARK  status: ('A' for Active; 'I' for Inactive)
REMARK    1  A    between atoms: C_1  and  C_2
REMARK    2  A    between atoms: C_2  and  C_3
REMARK    3  A    between atoms: C_2  and  C_10
REMARK    4  A    between atoms: C_3  and  C_4
REMARK    5  A    between atoms: N_8  and  C_9
REMARK    6  A    between atoms: C_14  and  N_15
REMARK    7  A    between atoms: C_20  and  C_21
REMARK    8  A    between atoms: C_21  and  C_22
REMARK    9  A    between atoms: C_21  and  C_23
REMARK   10  A    between atoms: C_21  and  O_24
REMARK   11  A    between atoms: C_26  and  C_27
REMARK                            x       y       z     vdW  Elec       q    Type
REMARK                         _______ _______ _______ _____ _____    ______ ____
ROOT
ATOM      1  N   UNL     1       2.411   7.208  18.765  0.00  0.00    +0.000 N 
ATOM      2  C   UNL     1       1.828   7.583  20.024  0.00  0.00    +0.000 C 
ATOM      3  C   UNL     1       1.382   8.971  19.853  0.00  0.00    +0.000 A 
ATOM      4  C   UNL     1       1.869   9.494  18.665  0.00  0.00    +0.000 A 
ATOM      5  C   UNL     1       1.650  10.841  18.379  0.00  0.00    +0.000 A 
ATOM      6  C   UNL     1       0.891  11.641  19.287  0.00  0.00    +0.000 A 
ATOM      7  C   UNL     1       0.352  11.018  20.450  0.00  0.00    +0.000 A 
ATOM      8  C   UNL     1       0.584   9.679  20.748  0.00  0.00    +0.000 A 
ATOM      9  C   UNL     1       2.502   8.337  17.904  0.00  0.00    +0.000 C 
ATOM     10  O   UNL     1       2.951   8.426  16.777  0.00  0.00    +0.000 OA
ENDROOT
BRANCH   1  15
ATOM     11  C   UNL     1       4.355   4.188  17.607  0.00  0.00    +0.000 A 
ATOM     12  C   UNL     1       3.616   3.157  18.175  0.00  0.00    +0.000 A 
ATOM     13  C   UNL     1       2.467   3.448  18.931  0.00  0.00    +0.000 A 
ATOM     14  C   UNL     1       2.028   4.774  19.143  0.00  0.00    +0.000 A 
ATOM     15  C   UNL     1       2.744   5.829  18.606  0.00  0.00    +0.000 A 
ATOM     16  C   UNL     1       3.903   5.495  17.846  0.00  0.00    +0.000 A 
BRANCH  11  18
ATOM     17  C   UNL     1       6.849   4.516  17.350  0.00  0.00    +0.000 C 
ATOM     18  C   UNL     1       5.576   3.928  16.712  0.00  0.00    +0.000 C 
BRANCH  18  19
ATOM     19  C   UNL     1       5.280   4.436  15.281  0.00  0.00    +0.000 C 
BRANCH  19  20
ATOM     20  C   UNL     1       6.475   4.719  14.419  0.00  0.00    +0.000 A 
ATOM     21  N   UNL     1       7.467   5.540  14.702  0.00  0.00    +0.000 NA
ATOM     22  N   UNL     1       8.278   5.643  13.595  0.00  0.00    +0.000 NA
ATOM     23  C   UNL     1       7.767   4.885  12.654  0.00  0.00    +0.000 A 
ATOM     24  N   UNL     1       6.651   4.266  13.134  0.00  0.00    +0.000 N 
ATOM     25  C   UNL     1       5.843   3.320  12.416  0.00  0.00    +0.000 C 
ENDBRANCH  19  20
ENDBRANCH  18  19
ENDBRANCH  11  18
ENDBRANCH   1  15
BRANCH   8  26
ATOM     26  C   UNL     1      -0.033   9.033  21.966  0.00  0.00    +0.000 C 
ATOM     27  F   UNL     1       0.859   8.643  22.905  0.00  0.00    +0.000 F 
ATOM     28  F   UNL     1      -0.899   9.861  22.606  0.00  0.00    +0.000 F 
ATOM     29  F   UNL     1      -0.739   7.909  21.647  0.00  0.00    +0.000 F 
ENDBRANCH   8  26
BRANCH   6  30
ATOM     30  C   UNL     1       0.518  13.115  19.068  0.00  0.00    +0.000 C 
ATOM     31  C   UNL     1       1.653  13.997  18.548  0.00  0.00    +0.000 C 
ATOM     32  C   UNL     1      -0.707  13.215  18.148  0.00  0.00    +0.000 C 
BRANCH  30  33
ATOM     33  O   UNL     1       0.092  13.684  20.320  0.00  0.00    +0.000 OA
ATOM     34  H   UNL     1       0.375  13.089  21.036  0.00  0.00    +0.000 HD
ENDBRANCH  30  33
ENDBRANCH   6  30
TORSDOF 7
ENDMDL
