MODEL 1
REMARK VINA RESULT:      -8.7      0.000      0.000
REMARK  Name = 
REMARK  7 active torsions:
REMARK  status: ('A' for Active; 'I' for Inactive)
REMARK    1  A    between atoms: C_1  and  C_2
REMARK    2  A    between atoms: C_2  and  S_3
REMARK    3  A    between atoms: C_2  and  C_10
REMARK    4  A    between atoms: S_3  and  C_4
REMARK    5  A    between atoms: N_8  and  C_9
REMARK    6  A    between atoms: C_14  and  N_15
REMARK    7  A    between atoms: C_16  and  C_18
REMARK                            x       y       z     vdW  Elec       q    Type
REMARK                         _______ _______ _______ _____ _____    ______ ____
ROOT
ATOM      1  C   UNL     1       4.914   4.924  17.358  0.00  0.00    +0.000 A 
ATOM      2  C   UNL     1       5.487   4.050  16.422  0.00  0.00    +0.000 A 
ATOM      3  C   UNL     1       6.608   4.422  15.687  0.00  0.00    +0.000 A 
ATOM      4  C   UNL     1       7.175   5.678  15.866  0.00  0.00    +0.000 A 
ATOM      5  C   UNL     1       6.642   6.589  16.784  0.00  0.00    +0.000 A 
ATOM      6  C   UNL     1       5.509   6.201  17.522  0.00  0.00    +0.000 A 
ENDROOT
BRANCH   5   7
ATOM      7  N   UNL     1       7.194   7.881  17.021  0.00  0.00    +0.000 N 
ATOM      8  C   UNL     1       8.053   8.186  18.065  0.00  0.00    +0.000 C 
ATOM      9  O   UNL     1       8.517   7.397  18.876  0.00  0.00    +0.000 OA
ATOM     10  H   UNL     1       6.920   8.644  16.426  0.00  0.00    +0.000 HD
BRANCH   8  11
ATOM     11  C   UNL     1       8.455   9.627  18.204  0.00  0.00    +0.000 A 
ATOM     12  C   UNL     1       9.447   9.900  19.141  0.00  0.00    +0.000 A 
ATOM     13  C   UNL     1      10.004  11.169  19.187  0.00  0.00    +0.000 A 
ATOM     14  C   UNL     1      11.169  11.409  19.929  0.00  0.00    +0.000 A 
ATOM     15  C   UNL     1      11.706  12.690  20.004  0.00  0.00    +0.000 A 
ATOM     16  C   UNL     1      11.034  13.752  19.408  0.00  0.00    +0.000 A 
ATOM     17  C   UNL     1       9.893  13.517  18.631  0.00  0.00    +0.000 A 
ATOM     18  C   UNL     1       9.407  12.203  18.450  0.00  0.00    +0.000 A 
ATOM     19  C   UNL     1       8.370  11.832  17.571  0.00  0.00    +0.000 A 
ATOM     20  N   UNL     1       7.901  10.565  17.394  0.00  0.00    +0.000 NA
ENDBRANCH   8  11
ENDBRANCH   5   7
BRANCH   1  22
ATOM     21  C   UNL     1       3.447   5.453  19.413  0.00  0.00    +0.000 C 
ATOM     22  C   UNL     1       3.720   4.506  18.229  0.00  0.00    +0.000 C 
BRANCH  22  23
ATOM     23  S   UNL     1       3.973   2.799  18.869  0.00  0.00    +0.000 S 
BRANCH  23  24
ATOM     24  C   UNL     1       2.889   2.754  20.212  0.00  0.00    +0.000 A 
ATOM     25  N   UNL     1       3.195   2.687  21.487  0.00  0.00    +0.000 NA
ATOM     26  N   UNL     1       2.014   2.605  22.195  0.00  0.00    +0.000 NA
ATOM     27  C   UNL     1       1.028   2.636  21.327  0.00  0.00    +0.000 A 
ATOM     28  N   UNL     1       1.533   2.734  20.067  0.00  0.00    +0.000 N 
ATOM     29  C   UNL     1       0.776   2.773  18.845  0.00  0.00    +0.000 C 
ENDBRANCH  23  24
ENDBRANCH  22  23
ENDBRANCH   1  22
TORSDOF 5
ENDMDL
MODEL 2
REMARK VINA RESULT:      -8.6      5.235      8.367
REMARK  Name = 
REMARK  7 active torsions:
REMARK  status: ('A' for Active; 'I' for Inactive)
REMARK    1  A    between atoms: C_1  and  C_2
REMARK    2  A    between atoms: C_2  and  S_3
REMARK    3  A    between atoms: C_2  and  C_10
REMARK    4  A    between atoms: S_3  and  C_4
REMARK    5  A    between atoms: N_8  and  C_9
REMARK    6  A    between atoms: C_14  and  N_15
REMARK    7  A    between atoms: C_16  and  C_18
REMARK                            x       y       z     vdW  Elec       q    Type
REMARK                         _______ _______ _______ _____ _____    ______ ____
ROOT
ATOM      1  C   UNL     1       4.715   4.906  18.033  0.00  0.00    +0.000 A 
ATOM      2  C   UNL     1       4.620   3.566  18.438  0.00  0.00    +0.000 A 
ATOM      3  C   UNL     1       3.785   3.190  19.485  0.00  0.00    +0.000 A 
ATOM      4  C   UNL     1       3.032   4.148  20.155  0.00  0.00    +0.000 A 
ATOM      5  C   UNL     1       3.091   5.498  19.794  0.00  0.00    +0.000 A 
ATOM      6  C   UNL     1       3.939   5.865  18.732  0.00  0.00    +0.000 A 
ENDROOT
BRANCH   5   7
ATOM      7  N   UNL     1       2.327   6.517  20.433  0.00  0.00    +0.000 N 
ATOM      8  C   UNL     1       1.914   7.688  19.818  0.00  0.00    +0.000 C 
ATOM      9  O   UNL     1       2.070   7.983  18.642  0.00  0.00    +0.000 OA
ATOM     10  H   UNL     1       2.101   6.416  21.408  0.00  0.00    +0.000 HD
BRANCH   8  11
ATOM     11  C   UNL     1       1.197   8.684  20.684  0.00  0.00    +0.000 A 
ATOM     12  C   UNL     1       0.531   9.709  20.019  0.00  0.00    +0.000 A 
ATOM     13  C   UNL     1      -0.309  10.548  20.737  0.00  0.00    +0.000 A 
ATOM     14  C   UNL     1      -1.186  11.416  20.071  0.00  0.00    +0.000 A 
ATOM     15  C   UNL     1      -2.002  12.282  20.791  0.00  0.00    +0.000 A 
ATOM     16  C   UNL     1      -1.883  12.346  22.176  0.00  0.00    +0.000 A 
ATOM     17  C   UNL     1      -1.040  11.455  22.852  0.00  0.00    +0.000 A 
ATOM     18  C   UNL     1      -0.296  10.490  22.138  0.00  0.00    +0.000 A 
ATOM     19  C   UNL     1       0.457   9.449  22.719  0.00  0.00    +0.000 A 
ATOM     20  N   UNL     1       1.174   8.516  22.031  0.00  0.00    +0.000 NA
ENDBRANCH   8  11
ENDBRANCH   5   7
BRANCH   1  22
ATOM     21  C   UNL     1       5.039   6.559  16.080  0.00  0.00    +0.000 C 
ATOM     22  C   UNL     1       5.577   5.329  16.835  0.00  0.00    +0.000 C 
BRANCH  22  23
ATOM     23  S   UNL     1       5.750   3.927  15.655  0.00  0.00    +0.000 S 
BRANCH  23  24
ATOM     24  C   UNL     1       6.832   4.577  14.479  0.00  0.00    +0.000 A 
ATOM     25  N   UNL     1       7.778   5.470  14.666  0.00  0.00    +0.000 NA
ATOM     26  N   UNL     1       8.344   5.740  13.438  0.00  0.00    +0.000 NA
ATOM     27  C   UNL     1       7.731   4.996  12.545  0.00  0.00    +0.000 A 
ATOM     28  N   UNL     1       6.775   4.245  13.157  0.00  0.00    +0.000 N 
ATOM     29  C   UNL     1       5.878   3.320  12.518  0.00  0.00    +0.000 C 
ENDBRANCH  23  24
ENDBRANCH  22  23
ENDBRANCH   1  22
TORSDOF 5
ENDMDL
MODEL 3
REMARK VINA RESULT:      -8.2      4.530      7.775
REMARK  Name = 
REMARK  7 active torsions:
REMARK  status: ('A' for Active; 'I' for Inactive)
REMARK    1  A    between atoms: C_1  and  C_2
REMARK    2  A    between atoms: C_2  and  S_3
REMARK    3  A    between atoms: C_2  and  C_10
REMARK    4  A    between atoms: S_3  and  C_4
REMARK    5  A    between atoms: N_8  and  C_9
REMARK    6  A    between atoms: C_14  and  N_15
REMARK    7  A    between atoms: C_16  and  C_18
REMARK                            x       y       z     vdW  Elec       q    Type
REMARK                         _______ _______ _______ _____ _____    ______ ____
ROOT
ATOM      1  C   UNL     1       4.416   4.776  16.736  0.00  0.00    +0.000 A 
ATOM      2  C   UNL     1       3.649   3.601  16.771  0.00  0.00    +0.000 A 
ATOM      3  C   UNL     1       2.446   3.550  17.466  0.00  0.00    +0.000 A 
ATOM      4  C   UNL     1       1.986   4.670  18.149  0.00  0.00    +0.000 A 
ATOM      5  C   UNL     1       2.712   5.866  18.149  0.00  0.00    +0.000 A 
ATOM      6  C   UNL     1       3.928   5.905  17.442  0.00  0.00    +0.000 A 
ENDROOT
BRANCH   5   7
ATOM      7  N   UNL     1       2.279   7.049  18.815  0.00  0.00    +0.000 N 
ATOM      8  C   UNL     1       1.816   7.088  20.120  0.00  0.00    +0.000 C 
ATOM      9  O   UNL     1       1.781   6.151  20.905  0.00  0.00    +0.000 OA
ATOM     10  H   UNL     1       2.261   7.916  18.304  0.00  0.00    +0.000 HD
BRANCH   8  11
ATOM     11  C   UNL     1       1.316   8.416  20.616  0.00  0.00    +0.000 A 
ATOM     12  C   UNL     1       0.947   9.336  19.640  0.00  0.00    +0.000 A 
ATOM     13  C   UNL     1       0.299  10.502  20.020  0.00  0.00    +0.000 A 
ATOM     14  C   UNL     1      -0.313  11.321  19.061  0.00  0.00    +0.000 A 
ATOM     15  C   UNL     1      -0.932  12.508  19.439  0.00  0.00    +0.000 A 
ATOM     16  C   UNL     1      -0.867  12.925  20.765  0.00  0.00    +0.000 A 
ATOM     17  C   UNL     1      -0.294  12.094  21.736  0.00  0.00    +0.000 A 
ATOM     18  C   UNL     1       0.231  10.832  21.382  0.00  0.00    +0.000 A 
ATOM     19  C   UNL     1       0.685   9.854  22.290  0.00  0.00    +0.000 A 
ATOM     20  N   UNL     1       1.190   8.635  21.949  0.00  0.00    +0.000 NA
ENDBRANCH   8  11
ENDBRANCH   5   7
BRANCH   1  22
ATOM     21  C   UNL     1       5.782   3.884  14.738  0.00  0.00    +0.000 C 
ATOM     22  C   UNL     1       5.711   4.872  15.918  0.00  0.00    +0.000 C 
BRANCH  22  23
ATOM     23  S   UNL     1       7.169   4.610  17.010  0.00  0.00    +0.000 S 
BRANCH  23  24
ATOM     24  C   UNL     1       7.576   6.226  17.462  0.00  0.00    +0.000 A 
ATOM     25  N   UNL     1       7.589   7.293  16.695  0.00  0.00    +0.000 NA
ATOM     26  N   UNL     1       8.039   8.348  17.461  0.00  0.00    +0.000 NA
ATOM     27  C   UNL     1       8.274   7.891  18.670  0.00  0.00    +0.000 A 
ATOM     28  N   UNL     1       7.991   6.560  18.717  0.00  0.00    +0.000 N 
ATOM     29  C   UNL     1       8.138   5.697  19.857  0.00  0.00    +0.000 C 
ENDBRANCH  23  24
ENDBRANCH  22  23
ENDBRANCH   1  22
TORSDOF 5
ENDMDL
MODEL 4
REMARK VINA RESULT:      -8.2      1.199      1.960
REMARK  Name = 
REMARK  7 active torsions:
REMARK  status: ('A' for Active; 'I' for Inactive)
REMARK    1  A    between atoms: C_1  and  C_2
REMARK    2  A    between atoms: C_2  and  S_3
REMARK    3  A    between atoms: C_2  and  C_10
REMARK    4  A    between atoms: S_3  and  C_4
REMARK    5  A    between atoms: N_8  and  C_9
REMARK    6  A    between atoms: C_14  and  N_15
REMARK    7  A    between atoms: C_16  and  C_18
REMARK                            x       y       z     vdW  Elec       q    Type
REMARK                         _______ _______ _______ _____ _____    ______ ____
ROOT
ATOM      1  C   UNL     1       4.289   5.515  17.091  0.00  0.00    +0.000 A 
ATOM      2  C   UNL     1       4.873   4.505  16.311  0.00  0.00    +0.000 A 
ATOM      3  C   UNL     1       6.162   4.642  15.808  0.00  0.00    +0.000 A 
ATOM      4  C   UNL     1       6.894   5.795  16.068  0.00  0.00    +0.000 A 
ATOM      5  C   UNL     1       6.360   6.833  16.838  0.00  0.00    +0.000 A 
ATOM      6  C   UNL     1       5.054   6.682  17.341  0.00  0.00    +0.000 A 
ENDROOT
BRANCH   5   7
ATOM      7  N   UNL     1       7.072   8.027  17.151  0.00  0.00    +0.000 N 
ATOM      8  C   UNL     1       8.027   8.131  18.149  0.00  0.00    +0.000 C 
ATOM      9  O   UNL     1       8.450   7.218  18.845  0.00  0.00    +0.000 OA
ATOM     10  H   UNL     1       6.847   8.872  16.653  0.00  0.00    +0.000 HD
BRANCH   8  11
ATOM     11  C   UNL     1       8.601   9.498  18.390  0.00  0.00    +0.000 A 
ATOM     12  C   UNL     1       8.121  10.518  17.575  0.00  0.00    +0.000 A 
ATOM     13  C   UNL     1       8.458  11.832  17.865  0.00  0.00    +0.000 A 
ATOM     14  C   UNL     1       7.793  12.893  17.235  0.00  0.00    +0.000 A 
ATOM     15  C   UNL     1       8.156  14.209  17.500  0.00  0.00    +0.000 A 
ATOM     16  C   UNL     1       9.242  14.468  18.330  0.00  0.00    +0.000 A 
ATOM     17  C   UNL     1       9.885  13.417  18.997  0.00  0.00    +0.000 A 
ATOM     18  C   UNL     1       9.447  12.086  18.827  0.00  0.00    +0.000 A 
ATOM     19  C   UNL     1       9.912  10.975  19.561  0.00  0.00    +0.000 A 
ATOM     20  N   UNL     1       9.489   9.690  19.399  0.00  0.00    +0.000 NA
ENDBRANCH   8  11
ENDBRANCH   5   7
BRANCH   1  22
ATOM     21  C   UNL     1       2.777   5.914  19.142  0.00  0.00    +0.000 C 
ATOM     22  C   UNL     1       2.895   5.352  17.713  0.00  0.00    +0.000 C 
BRANCH  22  23
ATOM     23  S   UNL     1       2.411   3.576  17.722  0.00  0.00    +0.000 S 
BRANCH  23  24
ATOM     24  C   UNL     1       3.192   2.998  19.148  0.00  0.00    +0.000 A 
ATOM     25  N   UNL     1       4.458   2.680  19.296  0.00  0.00    +0.000 NA
ATOM     26  N   UNL     1       4.620   2.203  20.580  0.00  0.00    +0.000 NA
ATOM     27  C   UNL     1       3.450   2.258  21.175  0.00  0.00    +0.000 A 
ATOM     28  N   UNL     1       2.523   2.756  20.312  0.00  0.00    +0.000 N 
ATOM     29  C   UNL     1       1.124   2.949  20.581  0.00  0.00    +0.000 C 
ENDBRANCH  23  24
ENDBRANCH  22  23
ENDBRANCH   1  22
TORSDOF 5
ENDMDL
MODEL 5
REMARK VINA RESULT:      -8.2      4.753      7.808
REMARK  Name = 
REMARK  7 active torsions:
REMARK  status: ('A' for Active; 'I' for Inactive)
REMARK    1  A    between atoms: C_1  and  C_2
REMARK    2  A    between atoms: C_2  and  S_3
REMARK    3  A    between atoms: C_2  and  C_10
REMARK    4  A    between atoms: S_3  and  C_4
REMARK    5  A    between atoms: N_8  and  C_9
REMARK    6  A    between atoms: C_14  and  N_15
REMARK    7  A    between atoms: C_16  and  C_18
REMARK                            x       y       z     vdW  Elec       q    Type
REMARK                         _______ _______ _______ _____ _____    ______ ____
ROOT
ATOM      1  C   UNL     1       5.338   4.822  19.123  0.00  0.00    +0.000 A 
ATOM      2  C   UNL     1       4.904   3.523  19.426  0.00  0.00    +0.000 A 
ATOM      3  C   UNL     1       3.636   3.293  19.949  0.00  0.00    +0.000 A 
ATOM      4  C   UNL     1       2.776   4.358  20.187  0.00  0.00    +0.000 A 
ATOM      5  C   UNL     1       3.158   5.674  19.906  0.00  0.00    +0.000 A 
ATOM      6  C   UNL     1       4.444   5.893  19.377  0.00  0.00    +0.000 A 
ENDROOT
BRANCH   5   7
ATOM      7  N   UNL     1       2.311   6.801  20.112  0.00  0.00    +0.000 N 
ATOM      8  C   UNL     1       2.120   7.817  19.190  0.00  0.00    +0.000 C 
ATOM      9  O   UNL     1       2.577   7.862  18.057  0.00  0.00    +0.000 OA
ATOM     10  H   UNL     1       1.845   6.903  20.999  0.00  0.00    +0.000 HD
BRANCH   8  11
ATOM     11  C   UNL     1       1.259   8.968  19.628  0.00  0.00    +0.000 A 
ATOM     12  C   UNL     1       0.571   8.800  20.826  0.00  0.00    +0.000 A 
ATOM     13  C   UNL     1      -0.084   9.885  21.388  0.00  0.00    +0.000 A 
ATOM     14  C   UNL     1      -0.562   9.824  22.704  0.00  0.00    +0.000 A 
ATOM     15  C   UNL     1      -1.251  10.900  23.255  0.00  0.00    +0.000 A 
ATOM     16  C   UNL     1      -1.541  12.008  22.464  0.00  0.00    +0.000 A 
ATOM     17  C   UNL     1      -1.032  12.095  21.162  0.00  0.00    +0.000 A 
ATOM     18  C   UNL     1      -0.230  11.059  20.634  0.00  0.00    +0.000 A 
ATOM     19  C   UNL     1       0.460  11.109  19.406  0.00  0.00    +0.000 A 
ATOM     20  N   UNL     1       1.236  10.111  18.896  0.00  0.00    +0.000 NA
ENDBRANCH   8  11
ENDBRANCH   5   7
BRANCH   1  22
ATOM     21  C   UNL     1       7.791   5.533  19.481  0.00  0.00    +0.000 C 
ATOM     22  C   UNL     1       6.707   5.089  18.482  0.00  0.00    +0.000 C 
BRANCH  22  23
ATOM     23  S   UNL     1       6.547   6.362  17.162  0.00  0.00    +0.000 S 
BRANCH  23  24
ATOM     24  C   UNL     1       6.610   5.404  15.728  0.00  0.00    +0.000 A 
ATOM     25  N   UNL     1       7.575   5.357  14.837  0.00  0.00    +0.000 NA
ATOM     26  N   UNL     1       7.168   4.508  13.828  0.00  0.00    +0.000 NA
ATOM     27  C   UNL     1       5.975   4.058  14.143  0.00  0.00    +0.000 A 
ATOM     28  N   UNL     1       5.587   4.593  15.334  0.00  0.00    +0.000 N 
ATOM     29  C   UNL     1       4.336   4.362  16.005  0.00  0.00    +0.000 C 
ENDBRANCH  23  24
ENDBRANCH  22  23
ENDBRANCH   1  22
TORSDOF 5
ENDMDL
MODEL 6
REMARK VINA RESULT:      -8.1      1.811      2.360
REMARK  Name = 
REMARK  7 active torsions:
REMARK  status: ('A' for Active; 'I' for Inactive)
REMARK    1  A    between atoms: C_1  and  C_2
REMARK    2  A    between atoms: C_2  and  S_3
REMARK    3  A    between atoms: C_2  and  C_10
REMARK    4  A    between atoms: S_3  and  C_4
REMARK    5  A    between atoms: N_8  and  C_9
REMARK    6  A    between atoms: C_14  and  N_15
REMARK    7  A    between atoms: C_16  and  C_18
REMARK                            x       y       z     vdW  Elec       q    Type
REMARK                         _______ _______ _______ _____ _____    ______ ____
ROOT
ATOM      1  C   UNL     1       5.110   4.854  17.701  0.00  0.00    +0.000 A 
ATOM      2  C   UNL     1       5.566   4.033  16.658  0.00  0.00    +0.000 A 
ATOM      3  C   UNL     1       6.550   4.471  15.779  0.00  0.00    +0.000 A 
ATOM      4  C   UNL     1       7.095   5.743  15.918  0.00  0.00    +0.000 A 
ATOM      5  C   UNL     1       6.675   6.602  16.939  0.00  0.00    +0.000 A 
ATOM      6  C   UNL     1       5.678   6.147  17.822  0.00  0.00    +0.000 A 
ENDROOT
BRANCH   5   7
ATOM      7  N   UNL     1       7.212   7.907  17.139  0.00  0.00    +0.000 N 
ATOM      8  C   UNL     1       8.106   8.240  18.144  0.00  0.00    +0.000 C 
ATOM      9  O   UNL     1       8.618   7.469  18.943  0.00  0.00    +0.000 OA
ATOM     10  H   UNL     1       6.899   8.658  16.547  0.00  0.00    +0.000 HD
BRANCH   8  11
ATOM     11  C   UNL     1       8.487   9.689  18.250  0.00  0.00    +0.000 A 
ATOM     12  C   UNL     1       9.502   9.993  19.153  0.00  0.00    +0.000 A 
ATOM     13  C   UNL     1      10.037  11.272  19.164  0.00  0.00    +0.000 A 
ATOM     14  C   UNL     1      11.219  11.543  19.867  0.00  0.00    +0.000 A 
ATOM     15  C   UNL     1      11.736  12.834  19.907  0.00  0.00    +0.000 A 
ATOM     16  C   UNL     1      11.027  13.876  19.318  0.00  0.00    +0.000 A 
ATOM     17  C   UNL     1       9.867  13.609  18.579  0.00  0.00    +0.000 A 
ATOM     18  C   UNL     1       9.399  12.285  18.432  0.00  0.00    +0.000 A 
ATOM     19  C   UNL     1       8.343  11.883  17.590  0.00  0.00    +0.000 A 
ATOM     20  N   UNL     1       7.892  10.606  17.445  0.00  0.00    +0.000 NA
ENDBRANCH   8  11
ENDBRANCH   5   7
BRANCH   1  22
ATOM     21  C   UNL     1       4.067   2.835  18.922  0.00  0.00    +0.000 C 
ATOM     22  C   UNL     1       4.075   4.362  18.723  0.00  0.00    +0.000 C 
BRANCH  22  23
ATOM     23  S   UNL     1       2.390   4.913  18.230  0.00  0.00    +0.000 S 
BRANCH  23  24
ATOM     24  C   UNL     1       2.072   6.168  19.372  0.00  0.00    +0.000 A 
ATOM     25  N   UNL     1       1.642   6.037  20.607  0.00  0.00    +0.000 NA
ATOM     26  N   UNL     1       1.467   7.305  21.122  0.00  0.00    +0.000 NA
ATOM     27  C   UNL     1       1.807   8.165  20.188  0.00  0.00    +0.000 A 
ATOM     28  N   UNL     1       2.199   7.492  19.071  0.00  0.00    +0.000 N 
ATOM     29  C   UNL     1       2.624   8.077  17.829  0.00  0.00    +0.000 C 
ENDBRANCH  23  24
ENDBRANCH  22  23
ENDBRANCH   1  22
TORSDOF 5
ENDMDL
MODEL 7
REMARK VINA RESULT:      -8.0      1.981      3.082
REMARK  Name = 
REMARK  7 active torsions:
REMARK  status: ('A' for Active; 'I' for Inactive)
REMARK    1  A    between atoms: C_1  and  C_2
REMARK    2  A    between atoms: C_2  and  S_3
REMARK    3  A    between atoms: C_2  and  C_10
REMARK    4  A    between atoms: S_3  and  C_4
REMARK    5  A    between atoms: N_8  and  C_9
REMARK    6  A    between atoms: C_14  and  N_15
REMARK    7  A    between atoms: C_16  and  C_18
REMARK                            x       y       z     vdW  Elec       q    Type
REMARK                         _______ _______ _______ _____ _____    ______ ____
ROOT
ATOM      1  C   UNL     1       6.035   6.361  17.651  0.00  0.00    +0.000 A 
ATOM      2  C   UNL     1       6.605   5.491  18.594  0.00  0.00    +0.000 A 
ATOM      3  C   UNL     1       7.789   5.816  19.246  0.00  0.00    +0.000 A 
ATOM      4  C   UNL     1       8.435   7.014  18.964  0.00  0.00    +0.000 A 
ATOM      5  C   UNL     1       7.912   7.917  18.031  0.00  0.00    +0.000 A 
ATOM      6  C   UNL     1       6.713   7.576  17.378  0.00  0.00    +0.000 A 
ENDROOT
BRANCH   5   7
ATOM      7  N   UNL     1       8.522   9.166  17.718  0.00  0.00    +0.000 N 
ATOM      8  C   UNL     1       9.000  10.062  18.660  0.00  0.00    +0.000 C 
ATOM      9  O   UNL     1       9.043   9.887  19.870  0.00  0.00    +0.000 OA
ATOM     10  H   UNL     1       8.577   9.452  16.755  0.00  0.00    +0.000 HD
BRANCH   8  11
ATOM     11  C   UNL     1       9.526  11.369  18.138  0.00  0.00    +0.000 A 
ATOM     12  C   UNL     1       8.663  12.457  18.227  0.00  0.00    +0.000 A 
ATOM     13  C   UNL     1       9.144  13.727  17.946  0.00  0.00    +0.000 A 
ATOM     14  C   UNL     1       8.388  14.862  18.271  0.00  0.00    +0.000 A 
ATOM     15  C   UNL     1       8.856  16.134  17.957  0.00  0.00    +0.000 A 
ATOM     16  C   UNL     1      10.040  16.273  17.240  0.00  0.00    +0.000 A 
ATOM     17  C   UNL     1      10.822  15.148  16.947  0.00  0.00    +0.000 A 
ATOM     18  C   UNL     1      10.414  13.863  17.367  0.00  0.00    +0.000 A 
ATOM     19  C   UNL     1      11.190  12.689  17.268  0.00  0.00    +0.000 A 
ATOM     20  N   UNL     1      10.799  11.449  17.674  0.00  0.00    +0.000 NA
ENDBRANCH   8  11
ENDBRANCH   5   7
BRANCH   1  22
ATOM     21  C   UNL     1       3.462   6.431  17.818  0.00  0.00    +0.000 C 
ATOM     22  C   UNL     1       4.693   6.051  16.973  0.00  0.00    +0.000 C 
BRANCH  22  23
ATOM     23  S   UNL     1       4.600   4.264  16.544  0.00  0.00    +0.000 S 
BRANCH  23  24
ATOM     24  C   UNL     1       3.184   3.763  17.394  0.00  0.00    +0.000 A 
ATOM     25  N   UNL     1       1.934   3.864  17.000  0.00  0.00    +0.000 NA
ATOM     26  N   UNL     1       1.136   3.399  18.024  0.00  0.00    +0.000 NA
ATOM     27  C   UNL     1       1.926   3.019  19.003  0.00  0.00    +0.000 A 
ATOM     28  N   UNL     1       3.224   3.226  18.647  0.00  0.00    +0.000 N 
ATOM     29  C   UNL     1       4.383   2.957  19.455  0.00  0.00    +0.000 C 
ENDBRANCH  23  24
ENDBRANCH  22  23
ENDBRANCH   1  22
TORSDOF 5
ENDMDL
MODEL 8
REMARK VINA RESULT:      -8.0      4.780      8.065
REMARK  Name = 
REMARK  7 active torsions:
REMARK  status: ('A' for Active; 'I' for Inactive)
REMARK    1  A    between atoms: C_1  and  C_2
REMARK    2  A    between atoms: C_2  and  S_3
REMARK    3  A    between atoms: C_2  and  C_10
REMARK    4  A    between atoms: S_3  and  C_4
REMARK    5  A    between atoms: N_8  and  C_9
REMARK    6  A    between atoms: C_14  and  N_15
REMARK    7  A    between atoms: C_16  and  C_18
REMARK                            x       y       z     vdW  Elec       q    Type
REMARK                         _______ _______ _______ _____ _____    ______ ____
ROOT
ATOM      1  C   UNL     1       5.253   4.697  19.013  0.00  0.00    +0.000 A 
ATOM      2  C   UNL     1       4.798   3.370  19.020  0.00  0.00    +0.000 A 
ATOM      3  C   UNL     1       3.555   3.041  19.550  0.00  0.00    +0.000 A 
ATOM      4  C   UNL     1       2.742   4.030  20.091  0.00  0.00    +0.000 A 
ATOM      5  C   UNL     1       3.148   5.369  20.111  0.00  0.00    +0.000 A 
ATOM      6  C   UNL     1       4.408   5.689  19.573  0.00  0.00    +0.000 A 
ENDROOT
BRANCH   5   7
ATOM      7  N   UNL     1       2.349   6.425  20.636  0.00  0.00    +0.000 N 
ATOM      8  C   UNL     1       1.980   7.555  19.925  0.00  0.00    +0.000 C 
ATOM      9  O   UNL     1       2.213   7.777  18.745  0.00  0.00    +0.000 OA
ATOM     10  H   UNL     1       2.059   6.385  21.599  0.00  0.00    +0.000 HD
BRANCH   8  11
ATOM     11  C   UNL     1       1.211   8.603  20.679  0.00  0.00    +0.000 A 
ATOM     12  C   UNL     1       0.610   9.596  19.912  0.00  0.00    +0.000 A 
ATOM     13  C   UNL     1      -0.271  10.479  20.518  0.00  0.00    +0.000 A 
ATOM     14  C   UNL     1      -1.084  11.317  19.742  0.00  0.00    +0.000 A 
ATOM     15  C   UNL     1      -1.942  12.228  20.351  0.00  0.00    +0.000 A 
ATOM     16  C   UNL     1      -1.927  12.366  21.735  0.00  0.00    +0.000 A 
ATOM     17  C   UNL     1      -1.148  11.505  22.520  0.00  0.00    +0.000 A 
ATOM     18  C   UNL     1      -0.364  10.497  21.917  0.00  0.00    +0.000 A 
ATOM     19  C   UNL     1       0.330   9.483  22.608  0.00  0.00    +0.000 A 
ATOM     20  N   UNL     1       1.085   8.508  22.027  0.00  0.00    +0.000 NA
ENDBRANCH   8  11
ENDBRANCH   5   7
BRANCH   1  22
ATOM     21  C   UNL     1       7.633   5.625  19.370  0.00  0.00    +0.000 C 
ATOM     22  C   UNL     1       6.591   5.089  18.371  0.00  0.00    +0.000 C 
BRANCH  22  23
ATOM     23  S   UNL     1       6.315   6.349  17.057  0.00  0.00    +0.000 S 
BRANCH  23  24
ATOM     24  C   UNL     1       6.568   5.430  15.618  0.00  0.00    +0.000 A 
ATOM     25  N   UNL     1       7.596   5.488  14.801  0.00  0.00    +0.000 NA
ATOM     26  N   UNL     1       7.341   4.628  13.753  0.00  0.00    +0.000 NA
ATOM     27  C   UNL     1       6.173   4.068  13.972  0.00  0.00    +0.000 A 
ATOM     28  N   UNL     1       5.653   4.541  15.138  0.00  0.00    +0.000 N 
ATOM     29  C   UNL     1       4.383   4.186  15.711  0.00  0.00    +0.000 C 
ENDBRANCH  23  24
ENDBRANCH  22  23
ENDBRANCH   1  22
TORSDOF 5
ENDMDL
MODEL 9
REMARK VINA RESULT:      -8.0      6.545      9.278
REMARK  Name = 
REMARK  7 active torsions:
REMARK  status: ('A' for Active; 'I' for Inactive)
REMARK    1  A    between atoms: C_1  and  C_2
REMARK    2  A    between atoms: C_2  and  S_3
REMARK    3  A    between atoms: C_2  and  C_10
REMARK    4  A    between atoms: S_3  and  C_4
REMARK    5  A    between atoms: N_8  and  C_9
REMARK    6  A    between atoms: C_14  and  N_15
REMARK    7  A    between atoms: C_16  and  C_18
REMARK                            x       y       z     vdW  Elec       q    Type
REMARK                         _______ _______ _______ _____ _____    ______ ____
ROOT
ATOM      1  C   UNL     1      -0.245  10.985  20.448  0.00  0.00    +0.000 A 
ATOM      2  C   UNL     1      -0.468  10.817  21.823  0.00  0.00    +0.000 A 
ATOM      3  C   UNL     1       0.092   9.749  22.516  0.00  0.00    +0.000 A 
ATOM      4  C   UNL     1       0.881   8.821  21.847  0.00  0.00    +0.000 A 
ATOM      5  C   UNL     1       1.134   8.939  20.476  0.00  0.00    +0.000 A 
ATOM      6  C   UNL     1       0.561  10.024  19.787  0.00  0.00    +0.000 A 
ENDROOT
BRANCH   5   7
ATOM      7  N   UNL     1       1.951   8.028  19.745  0.00  0.00    +0.000 N 
ATOM      8  C   UNL     1       2.051   6.674  20.019  0.00  0.00    +0.000 C 
ATOM      9  O   UNL     1       1.412   6.055  20.858  0.00  0.00    +0.000 OA
ATOM     10  H   UNL     1       2.533   8.383  19.005  0.00  0.00    +0.000 HD
BRANCH   8  11
ATOM     11  C   UNL     1       3.036   5.894  19.195  0.00  0.00    +0.000 A 
ATOM     12  C   UNL     1       3.340   6.418  17.942  0.00  0.00    +0.000 A 
ATOM     13  C   UNL     1       4.379   5.862  17.210  0.00  0.00    +0.000 A 
ATOM     14  C   UNL     1       4.879   6.516  16.075  0.00  0.00    +0.000 A 
ATOM     15  C   UNL     1       5.897   5.941  15.321  0.00  0.00    +0.000 A 
ATOM     16  C   UNL     1       6.360   4.670  15.648  0.00  0.00    +0.000 A 
ATOM     17  C   UNL     1       5.895   4.027  16.803  0.00  0.00    +0.000 A 
ATOM     18  C   UNL     1       4.948   4.655  17.642  0.00  0.00    +0.000 A 
ATOM     19  C   UNL     1       4.531   4.176  18.900  0.00  0.00    +0.000 A 
ATOM     20  N   UNL     1       3.619   4.782  19.711  0.00  0.00    +0.000 NA
ENDBRANCH   8  11
ENDBRANCH   5   7
BRANCH   1  22
ATOM     21  C   UNL     1      -0.377  13.554  20.269  0.00  0.00    +0.000 C 
ATOM     22  C   UNL     1      -0.797  12.195  19.681  0.00  0.00    +0.000 C 
BRANCH  22  23
ATOM     23  S   UNL     1      -2.635  12.112  19.610  0.00  0.00    +0.000 S 
BRANCH  23  24
ATOM     24  C   UNL     1      -2.909  11.571  17.994  0.00  0.00    +0.000 A 
ATOM     25  N   UNL     1      -2.012  11.180  17.116  0.00  0.00    +0.000 NA
ATOM     26  N   UNL     1      -2.676  10.903  15.939  0.00  0.00    +0.000 NA
ATOM     27  C   UNL     1      -3.955  11.124  16.142  0.00  0.00    +0.000 A 
ATOM     28  N   UNL     1      -4.147  11.542  17.423  0.00  0.00    +0.000 N 
ATOM     29  C   UNL     1      -5.403  11.904  18.023  0.00  0.00    +0.000 C 
ENDBRANCH  23  24
ENDBRANCH  22  23
ENDBRANCH   1  22
TORSDOF 5
ENDMDL
