MODEL 1
REMARK VINA RESULT:     -10.6      0.000      0.000
REMARK  Name = 
REMARK  10 active torsions:
REMARK  status: ('A' for Active; 'I' for Inactive)
REMARK    1  A    between atoms: C_1  and  C_2
REMARK    2  A    between atoms: C_2  and  C_3
REMARK    3  A    between atoms: C_2  and  N_35
REMARK    4  A    between atoms: C_7  and  C_8
REMARK    5  A    between atoms: N_14  and  C_15
REMARK    6  A    between atoms: C_19  and  C_20
REMARK    7  A    between atoms: C_20  and  C_21
REMARK    8  A    between atoms: C_20  and  C_23
REMARK    9  A    between atoms: C_23  and  C_26
REMARK   10  A    between atoms: N_30  and  C_31
REMARK                            x       y       z     vdW  Elec       q    Type
REMARK                         _______ _______ _______ _____ _____    ______ ____
ROOT
ATOM      1  C   UNL     1      -0.492  11.429  19.463  0.00  0.00    +0.000 A 
ATOM      2  C   UNL     1       0.351  10.709  18.607  0.00  0.00    +0.000 A 
ATOM      3  C   UNL     1       0.958   9.572  19.104  0.00  0.00    +0.000 A 
ATOM      4  C   UNL     1       0.795   9.127  20.413  0.00  0.00    +0.000 A 
ATOM      5  C   UNL     1      -0.002   9.840  21.301  0.00  0.00    +0.000 A 
ATOM      6  C   UNL     1      -0.658  10.984  20.798  0.00  0.00    +0.000 A 
ATOM      7  C   UNL     1       1.557   7.854  20.599  0.00  0.00    +0.000 C 
ATOM      8  N   UNL     1       2.178   7.637  19.298  0.00  0.00    +0.000 N 
ATOM      9  C   UNL     1       1.824   8.635  18.388  0.00  0.00    +0.000 C 
ATOM     10  O   UNL     1       2.104   8.797  17.216  0.00  0.00    +0.000 OA
ENDROOT
BRANCH   8  11
ATOM     11  C   UNL     1       3.050   6.546  19.045  0.00  0.00    +0.000 A 
ATOM     12  C   UNL     1       3.210   5.517  19.981  0.00  0.00    +0.000 A 
ATOM     13  C   UNL     1       4.042   4.428  19.721  0.00  0.00    +0.000 A 
ATOM     14  C   UNL     1       4.744   4.357  18.522  0.00  0.00    +0.000 A 
ATOM     15  C   UNL     1       4.630   5.376  17.567  0.00  0.00    +0.000 A 
ATOM     16  C   UNL     1       3.766   6.459  17.841  0.00  0.00    +0.000 A 
BRANCH  15  17
ATOM     17  C   UNL     1       5.437   5.355  16.267  0.00  0.00    +0.000 C 
ATOM     18  C   UNL     1       5.075   4.093  15.470  0.00  0.00    +0.000 C 
ATOM     19  F   UNL     1       5.087   6.400  15.436  0.00  0.00    +0.000 F 
BRANCH  17  20
ATOM     20  C   UNL     1       6.972   5.420  16.508  0.00  0.00    +0.000 C 
ATOM     21  F   UNL     1       7.389   4.285  17.152  0.00  0.00    +0.000 F 
ATOM     22  F   UNL     1       7.615   5.367  15.298  0.00  0.00    +0.000 F 
BRANCH  20  23
ATOM     23  C   UNL     1       7.442   6.628  17.252  0.00  0.00    +0.000 A 
ATOM     24  N   UNL     1       7.489   7.883  16.838  0.00  0.00    +0.000 NA
ATOM     25  N   UNL     1       8.014   8.653  17.846  0.00  0.00    +0.000 NA
ATOM     26  C   UNL     1       8.286   7.859  18.853  0.00  0.00    +0.000 A 
ATOM     27  N   UNL     1       7.939   6.584  18.530  0.00  0.00    +0.000 N 
ATOM     28  C   UNL     1       8.084   5.428  19.375  0.00  0.00    +0.000 C 
ENDBRANCH  20  23
ENDBRANCH  17  20
ENDBRANCH  15  17
ENDBRANCH   8  11
BRANCH   5  29
ATOM     29  C   UNL     1      -0.193   9.444  22.740  0.00  0.00    +0.000 C 
ATOM     30  F   UNL     1      -0.834   8.252  22.896  0.00  0.00    +0.000 F 
ATOM     31  F   UNL     1       0.991   9.312  23.401  0.00  0.00    +0.000 F 
ATOM     32  F   UNL     1      -0.920  10.353  23.443  0.00  0.00    +0.000 F 
ENDBRANCH   5  29
BRANCH   1  34
ATOM     33  C   UNL     1      -0.278  13.512  18.172  0.00  0.00    +0.000 C 
ATOM     34  C   UNL     1      -1.290  12.608  18.900  0.00  0.00    +0.000 C 
BRANCH  34  35
ATOM     35  N   UNL     1      -2.405  12.174  18.041  0.00  0.00    +0.000 NA
ATOM     36  C   UNL     1      -2.109  10.984  17.225  0.00  0.00    +0.000 C 
ATOM     37  C   UNL     1      -3.201   9.964  17.507  0.00  0.00    +0.000 C 
ATOM     38  C   UNL     1      -4.360  10.809  17.973  0.00  0.00    +0.000 C 
ATOM     39  F   UNL     1      -5.013  11.315  16.895  0.00  0.00    +0.000 F 
ATOM     40  C   UNL     1      -3.675  11.929  18.743  0.00  0.00    +0.000 C 
ENDBRANCH  34  35
ENDBRANCH   1  34
TORSDOF 7
ENDMDL
MODEL 2
REMARK VINA RESULT:     -10.4      2.225      3.598
REMARK  Name = 
REMARK  10 active torsions:
REMARK  status: ('A' for Active; 'I' for Inactive)
REMARK    1  A    between atoms: C_1  and  C_2
REMARK    2  A    between atoms: C_2  and  C_3
REMARK    3  A    between atoms: C_2  and  N_35
REMARK    4  A    between atoms: C_7  and  C_8
REMARK    5  A    between atoms: N_14  and  C_15
REMARK    6  A    between atoms: C_19  and  C_20
REMARK    7  A    between atoms: C_20  and  C_21
REMARK    8  A    between atoms: C_20  and  C_23
REMARK    9  A    between atoms: C_23  and  C_26
REMARK   10  A    between atoms: N_30  and  C_31
REMARK                            x       y       z     vdW  Elec       q    Type
REMARK                         _______ _______ _______ _____ _____    ______ ____
ROOT
ATOM      1  C   UNL     1       0.106  11.430  19.327  0.00  0.00    +0.000 A 
ATOM      2  C   UNL     1       0.918  10.610  18.535  0.00  0.00    +0.000 A 
ATOM      3  C   UNL     1       1.344   9.410  19.070  0.00  0.00    +0.000 A 
ATOM      4  C   UNL     1       1.029   8.993  20.359  0.00  0.00    +0.000 A 
ATOM      5  C   UNL     1       0.258   9.800  21.189  0.00  0.00    +0.000 A 
ATOM      6  C   UNL     1      -0.215  11.013  20.643  0.00  0.00    +0.000 A 
ATOM      7  C   UNL     1       1.615   7.638  20.597  0.00  0.00    +0.000 C 
ATOM      8  N   UNL     1       2.303   7.342  19.345  0.00  0.00    +0.000 N 
ATOM      9  C   UNL     1       2.143   8.373  18.417  0.00  0.00    +0.000 C 
ATOM     10  O   UNL     1       2.530   8.495  17.271  0.00  0.00    +0.000 OA
ENDROOT
BRANCH   8  11
ATOM     11  C   UNL     1       3.054   6.153  19.154  0.00  0.00    +0.000 A 
ATOM     12  C   UNL     1       2.722   4.972  19.830  0.00  0.00    +0.000 A 
ATOM     13  C   UNL     1       3.439   3.795  19.619  0.00  0.00    +0.000 A 
ATOM     14  C   UNL     1       4.515   3.781  18.737  0.00  0.00    +0.000 A 
ATOM     15  C   UNL     1       4.895   4.946  18.057  0.00  0.00    +0.000 A 
ATOM     16  C   UNL     1       4.143   6.123  18.269  0.00  0.00    +0.000 A 
BRANCH  15  17
ATOM     17  C   UNL     1       6.111   4.976  17.130  0.00  0.00    +0.000 C 
ATOM     18  C   UNL     1       6.561   6.432  16.936  0.00  0.00    +0.000 C 
ATOM     19  F   UNL     1       7.201   4.352  17.701  0.00  0.00    +0.000 F 
BRANCH  17  20
ATOM     20  C   UNL     1       5.837   4.308  15.752  0.00  0.00    +0.000 C 
ATOM     21  F   UNL     1       5.870   2.944  15.883  0.00  0.00    +0.000 F 
ATOM     22  F   UNL     1       4.543   4.571  15.380  0.00  0.00    +0.000 F 
BRANCH  20  23
ATOM     23  C   UNL     1       6.753   4.736  14.652  0.00  0.00    +0.000 A 
ATOM     24  N   UNL     1       7.782   5.562  14.713  0.00  0.00    +0.000 NA
ATOM     25  N   UNL     1       8.319   5.682  13.455  0.00  0.00    +0.000 NA
ATOM     26  C   UNL     1       7.605   4.937  12.646  0.00  0.00    +0.000 A 
ATOM     27  N   UNL     1       6.619   4.321  13.350  0.00  0.00    +0.000 N 
ATOM     28  C   UNL     1       5.631   3.421  12.815  0.00  0.00    +0.000 C 
ENDBRANCH  20  23
ENDBRANCH  17  20
ENDBRANCH  15  17
ENDBRANCH   8  11
BRANCH   5  29
ATOM     29  C   UNL     1      -0.089   9.435  22.606  0.00  0.00    +0.000 C 
ATOM     30  F   UNL     1      -0.824  10.384  23.249  0.00  0.00    +0.000 F 
ATOM     31  F   UNL     1      -0.825   8.291  22.679  0.00  0.00    +0.000 F 
ATOM     32  F   UNL     1       1.010   9.228  23.380  0.00  0.00    +0.000 F 
ENDBRANCH   5  29
BRANCH   1  34
ATOM     33  C   UNL     1      -2.005  12.658  19.033  0.00  0.00    +0.000 C 
ATOM     34  C   UNL     1      -0.498  12.694  18.712  0.00  0.00    +0.000 C 
BRANCH  34  35
ATOM     35  N   UNL     1       0.166  13.922  19.179  0.00  0.00    +0.000 NA
ATOM     36  C   UNL     1      -0.326  14.417  20.478  0.00  0.00    +0.000 C 
ATOM     37  C   UNL     1       0.884  14.570  21.386  0.00  0.00    +0.000 C 
ATOM     38  C   UNL     1       2.029  14.746  20.421  0.00  0.00    +0.000 C 
ATOM     39  F   UNL     1       2.082  16.041  20.014  0.00  0.00    +0.000 F 
ATOM     40  C   UNL     1       1.634  13.848  19.258  0.00  0.00    +0.000 C 
ENDBRANCH  34  35
ENDBRANCH   1  34
TORSDOF 7
ENDMDL
MODEL 3
REMARK VINA RESULT:     -10.3      1.901      2.821
REMARK  Name = 
REMARK  10 active torsions:
REMARK  status: ('A' for Active; 'I' for Inactive)
REMARK    1  A    between atoms: C_1  and  C_2
REMARK    2  A    between atoms: C_2  and  C_3
REMARK    3  A    between atoms: C_2  and  N_35
REMARK    4  A    between atoms: C_7  and  C_8
REMARK    5  A    between atoms: N_14  and  C_15
REMARK    6  A    between atoms: C_19  and  C_20
REMARK    7  A    between atoms: C_20  and  C_21
REMARK    8  A    between atoms: C_20  and  C_23
REMARK    9  A    between atoms: C_23  and  C_26
REMARK   10  A    between atoms: N_30  and  C_31
REMARK                            x       y       z     vdW  Elec       q    Type
REMARK                         _______ _______ _______ _____ _____    ______ ____
ROOT
ATOM      1  C   UNL     1       0.107  11.895  19.669  0.00  0.00    +0.000 A 
ATOM      2  C   UNL     1       0.865  11.093  18.808  0.00  0.00    +0.000 A 
ATOM      3  C   UNL     1       1.217   9.830  19.243  0.00  0.00    +0.000 A 
ATOM      4  C   UNL     1       0.879   9.331  20.497  0.00  0.00    +0.000 A 
ATOM      5  C   UNL     1       0.161  10.115  21.393  0.00  0.00    +0.000 A 
ATOM      6  C   UNL     1      -0.237  11.394  20.949  0.00  0.00    +0.000 A 
ATOM      7  C   UNL     1       1.381   7.928  20.621  0.00  0.00    +0.000 C 
ATOM      8  N   UNL     1       2.047   7.691  19.345  0.00  0.00    +0.000 N 
ATOM      9  C   UNL     1       1.949   8.801  18.504  0.00  0.00    +0.000 C 
ATOM     10  O   UNL     1       2.341   8.991  17.368  0.00  0.00    +0.000 OA
ENDROOT
BRANCH   8  11
ATOM     11  C   UNL     1       2.722   6.478  19.055  0.00  0.00    +0.000 A 
ATOM     12  C   UNL     1       2.541   5.341  19.852  0.00  0.00    +0.000 A 
ATOM     13  C   UNL     1       3.179   4.138  19.549  0.00  0.00    +0.000 A 
ATOM     14  C   UNL     1       4.027   4.056  18.448  0.00  0.00    +0.000 A 
ATOM     15  C   UNL     1       4.254   5.176  17.637  0.00  0.00    +0.000 A 
ATOM     16  C   UNL     1       3.582   6.378  17.949  0.00  0.00    +0.000 A 
BRANCH  15  17
ATOM     17  C   UNL     1       5.227   5.131  16.458  0.00  0.00    +0.000 C 
ATOM     18  C   UNL     1       4.897   3.917  15.578  0.00  0.00    +0.000 C 
ATOM     19  F   UNL     1       5.063   6.217  15.624  0.00  0.00    +0.000 F 
BRANCH  17  20
ATOM     20  C   UNL     1       6.716   5.084  16.905  0.00  0.00    +0.000 C 
ATOM     21  F   UNL     1       6.876   4.142  17.889  0.00  0.00    +0.000 F 
ATOM     22  F   UNL     1       7.477   4.609  15.868  0.00  0.00    +0.000 F 
BRANCH  20  23
ATOM     23  C   UNL     1       7.279   6.392  17.358  0.00  0.00    +0.000 A 
ATOM     24  N   UNL     1       7.356   7.530  16.690  0.00  0.00    +0.000 NA
ATOM     25  N   UNL     1       7.970   8.462  17.489  0.00  0.00    +0.000 NA
ATOM     26  C   UNL     1       8.266   7.879  18.626  0.00  0.00    +0.000 A 
ATOM     27  N   UNL     1       7.847   6.586  18.593  0.00  0.00    +0.000 N 
ATOM     28  C   UNL     1       7.991   5.622  19.652  0.00  0.00    +0.000 C 
ENDBRANCH  20  23
ENDBRANCH  17  20
ENDBRANCH  15  17
ENDBRANCH   8  11
BRANCH   5  29
ATOM     29  C   UNL     1      -0.205   9.659  22.780  0.00  0.00    +0.000 C 
ATOM     30  F   UNL     1      -0.942   8.514  22.799  0.00  0.00    +0.000 F 
ATOM     31  F   UNL     1       0.891   9.403  23.546  0.00  0.00    +0.000 F 
ATOM     32  F   UNL     1      -0.935  10.583  23.460  0.00  0.00    +0.000 F 
ENDBRANCH   5  29
BRANCH   1  34
ATOM     33  C   UNL     1      -1.542  13.661  20.127  0.00  0.00    +0.000 C 
ATOM     34  C   UNL     1      -0.420  13.239  19.160  0.00  0.00    +0.000 C 
BRANCH  34  35
ATOM     35  N   UNL     1       0.644  14.248  19.028  0.00  0.00    +0.000 NA
ATOM     36  C   UNL     1       0.161  15.586  18.643  0.00  0.00    +0.000 C 
ATOM     37  C   UNL     1       0.690  16.568  19.678  0.00  0.00    +0.000 C 
ATOM     38  C   UNL     1       1.910  15.874  20.229  0.00  0.00    +0.000 C 
ATOM     39  F   UNL     1       2.962  16.077  19.395  0.00  0.00    +0.000 F 
ATOM     40  C   UNL     1       1.504  14.408  20.212  0.00  0.00    +0.000 C 
ENDBRANCH  34  35
ENDBRANCH   1  34
TORSDOF 7
ENDMDL
MODEL 4
REMARK VINA RESULT:     -10.2      1.348      2.270
REMARK  Name = 
REMARK  10 active torsions:
REMARK  status: ('A' for Active; 'I' for Inactive)
REMARK    1  A    between atoms: C_1  and  C_2
REMARK    2  A    between atoms: C_2  and  C_3
REMARK    3  A    between atoms: C_2  and  N_35
REMARK    4  A    between atoms: C_7  and  C_8
REMARK    5  A    between atoms: N_14  and  C_15
REMARK    6  A    between atoms: C_19  and  C_20
REMARK    7  A    between atoms: C_20  and  C_21
REMARK    8  A    between atoms: C_20  and  C_23
REMARK    9  A    between atoms: C_23  and  C_26
REMARK   10  A    between atoms: N_30  and  C_31
REMARK                            x       y       z     vdW  Elec       q    Type
REMARK                         _______ _______ _______ _____ _____    ______ ____
ROOT
ATOM      1  C   UNL     1      -0.283  11.279  19.480  0.00  0.00    +0.000 A 
ATOM      2  C   UNL     1       0.575  10.464  18.732  0.00  0.00    +0.000 A 
ATOM      3  C   UNL     1       1.083   9.332  19.338  0.00  0.00    +0.000 A 
ATOM      4  C   UNL     1       0.808   8.981  20.656  0.00  0.00    +0.000 A 
ATOM      5  C   UNL     1      -0.007   9.788  21.441  0.00  0.00    +0.000 A 
ATOM      6  C   UNL     1      -0.565  10.929  20.824  0.00  0.00    +0.000 A 
ATOM      7  C   UNL     1       1.485   7.685  20.972  0.00  0.00    +0.000 C 
ATOM      8  N   UNL     1       2.180   7.354  19.734  0.00  0.00    +0.000 N 
ATOM      9  C   UNL     1       1.944   8.309  18.743  0.00  0.00    +0.000 C 
ATOM     10  O   UNL     1       2.312   8.382  17.586  0.00  0.00    +0.000 OA
ENDROOT
BRANCH   8  11
ATOM     11  C   UNL     1       3.006   6.207  19.610  0.00  0.00    +0.000 A 
ATOM     12  C   UNL     1       2.569   4.951  20.048  0.00  0.00    +0.000 A 
ATOM     13  C   UNL     1       3.366   3.816  19.899  0.00  0.00    +0.000 A 
ATOM     14  C   UNL     1       4.628   3.922  19.320  0.00  0.00    +0.000 A 
ATOM     15  C   UNL     1       5.113   5.163  18.888  0.00  0.00    +0.000 A 
ATOM     16  C   UNL     1       4.281   6.296  19.030  0.00  0.00    +0.000 A 
BRANCH  15  17
ATOM     17  C   UNL     1       6.518   5.319  18.305  0.00  0.00    +0.000 C 
ATOM     18  C   UNL     1       7.451   5.887  19.385  0.00  0.00    +0.000 C 
ATOM     19  F   UNL     1       7.071   4.098  17.979  0.00  0.00    +0.000 F 
BRANCH  17  20
ATOM     20  C   UNL     1       6.550   6.219  17.037  0.00  0.00    +0.000 C 
ATOM     21  F   UNL     1       5.427   7.003  16.996  0.00  0.00    +0.000 F 
ATOM     22  F   UNL     1       7.576   7.121  17.158  0.00  0.00    +0.000 F 
BRANCH  20  23
ATOM     23  C   UNL     1       6.704   5.482  15.746  0.00  0.00    +0.000 A 
ATOM     24  N   UNL     1       7.706   5.529  14.886  0.00  0.00    +0.000 NA
ATOM     25  N   UNL     1       7.410   4.706  13.828  0.00  0.00    +0.000 NA
ATOM     26  C   UNL     1       6.231   4.178  14.053  0.00  0.00    +0.000 A 
ATOM     27  N   UNL     1       5.754   4.629  15.244  0.00  0.00    +0.000 N 
ATOM     28  C   UNL     1       4.491   4.276  15.838  0.00  0.00    +0.000 C 
ENDBRANCH  20  23
ENDBRANCH  17  20
ENDBRANCH  15  17
ENDBRANCH   8  11
BRANCH   5  29
ATOM     29  C   UNL     1      -0.318   9.494  22.884  0.00  0.00    +0.000 C 
ATOM     30  F   UNL     1      -0.977   8.316  23.070  0.00  0.00    +0.000 F 
ATOM     31  F   UNL     1       0.807   9.408  23.647  0.00  0.00    +0.000 F 
ATOM     32  F   UNL     1      -1.094  10.450  23.459  0.00  0.00    +0.000 F 
ENDBRANCH   5  29
BRANCH   1  34
ATOM     33  C   UNL     1       0.116  13.202  17.999  0.00  0.00    +0.000 C 
ATOM     34  C   UNL     1      -0.975  12.458  18.792  0.00  0.00    +0.000 C 
BRANCH  34  35
ATOM     35  N   UNL     1      -2.114  12.036  17.959  0.00  0.00    +0.000 NA
ATOM     36  C   UNL     1      -1.825  10.886  17.084  0.00  0.00    +0.000 C 
ATOM     37  C   UNL     1      -2.885   9.832  17.365  0.00  0.00    +0.000 C 
ATOM     38  C   UNL     1      -4.041  10.631  17.910  0.00  0.00    +0.000 C 
ATOM     39  F   UNL     1      -4.747  11.166  16.879  0.00  0.00    +0.000 F 
ATOM     40  C   UNL     1      -3.350  11.734  18.698  0.00  0.00    +0.000 C 
ENDBRANCH  34  35
ENDBRANCH   1  34
TORSDOF 7
ENDMDL
MODEL 5
REMARK VINA RESULT:     -10.2      2.850      8.935
REMARK  Name = 
REMARK  10 active torsions:
REMARK  status: ('A' for Active; 'I' for Inactive)
REMARK    1  A    between atoms: C_1  and  C_2
REMARK    2  A    between atoms: C_2  and  C_3
REMARK    3  A    between atoms: C_2  and  N_35
REMARK    4  A    between atoms: C_7  and  C_8
REMARK    5  A    between atoms: N_14  and  C_15
REMARK    6  A    between atoms: C_19  and  C_20
REMARK    7  A    between atoms: C_20  and  C_21
REMARK    8  A    between atoms: C_20  and  C_23
REMARK    9  A    between atoms: C_23  and  C_26
REMARK   10  A    between atoms: N_30  and  C_31
REMARK                            x       y       z     vdW  Elec       q    Type
REMARK                         _______ _______ _______ _____ _____    ______ ____
ROOT
ATOM      1  C   UNL     1       4.033   5.039  18.000  0.00  0.00    +0.000 A 
ATOM      2  C   UNL     1       3.615   6.376  17.987  0.00  0.00    +0.000 A 
ATOM      3  C   UNL     1       2.713   6.781  18.951  0.00  0.00    +0.000 A 
ATOM      4  C   UNL     1       2.183   5.925  19.910  0.00  0.00    +0.000 A 
ATOM      5  C   UNL     1       2.544   4.582  19.928  0.00  0.00    +0.000 A 
ATOM      6  C   UNL     1       3.493   4.161  18.973  0.00  0.00    +0.000 A 
ATOM      7  C   UNL     1       1.275   6.698  20.814  0.00  0.00    +0.000 C 
ATOM      8  N   UNL     1       1.323   8.049  20.267  0.00  0.00    +0.000 N 
ATOM      9  C   UNL     1       2.183   8.127  19.170  0.00  0.00    +0.000 C 
ATOM     10  O   UNL     1       2.512   9.063  18.466  0.00  0.00    +0.000 OA
ENDROOT
BRANCH   8  11
ATOM     11  C   UNL     1       0.550   9.112  20.801  0.00  0.00    +0.000 A 
ATOM     12  C   UNL     1       0.369   9.250  22.183  0.00  0.00    +0.000 A 
ATOM     13  C   UNL     1      -0.364  10.312  22.712  0.00  0.00    +0.000 A 
ATOM     14  C   UNL     1      -0.945  11.250  21.864  0.00  0.00    +0.000 A 
ATOM     15  C   UNL     1      -0.807  11.137  20.474  0.00  0.00    +0.000 A 
ATOM     16  C   UNL     1      -0.043  10.066  19.960  0.00  0.00    +0.000 A 
BRANCH  15  17
ATOM     17  C   UNL     1      -1.485  12.117  19.516  0.00  0.00    +0.000 C 
ATOM     18  C   UNL     1      -1.537  11.495  18.112  0.00  0.00    +0.000 C 
ATOM     19  F   UNL     1      -2.808  12.322  19.851  0.00  0.00    +0.000 F 
BRANCH  17  20
ATOM     20  C   UNL     1      -0.778  13.501  19.466  0.00  0.00    +0.000 C 
ATOM     21  F   UNL     1      -0.542  13.856  18.163  0.00  0.00    +0.000 F 
ATOM     22  F   UNL     1      -1.647  14.462  19.916  0.00  0.00    +0.000 F 
BRANCH  20  23
ATOM     23  C   UNL     1       0.489  13.589  20.254  0.00  0.00    +0.000 A 
ATOM     24  N   UNL     1       0.663  14.034  21.486  0.00  0.00    +0.000 NA
ATOM     25  N   UNL     1       1.998  13.952  21.794  0.00  0.00    +0.000 NA
ATOM     26  C   UNL     1       2.619  13.468  20.745  0.00  0.00    +0.000 A 
ATOM     27  N   UNL     1       1.715  13.220  19.760  0.00  0.00    +0.000 N 
ATOM     28  C   UNL     1       2.010  12.684  18.457  0.00  0.00    +0.000 C 
ENDBRANCH  20  23
ENDBRANCH  17  20
ENDBRANCH  15  17
ENDBRANCH   8  11
BRANCH   5  29
ATOM     29  C   UNL     1       1.982   3.589  20.909  0.00  0.00    +0.000 C 
ATOM     30  F   UNL     1       2.439   2.319  20.721  0.00  0.00    +0.000 F 
ATOM     31  F   UNL     1       2.292   3.903  22.198  0.00  0.00    +0.000 F 
ATOM     32  F   UNL     1       0.625   3.508  20.856  0.00  0.00    +0.000 F 
ENDBRANCH   5  29
BRANCH   1  34
ATOM     33  C   UNL     1       4.919   5.382  15.731  0.00  0.00    +0.000 C 
ATOM     34  C   UNL     1       5.138   4.597  17.038  0.00  0.00    +0.000 C 
BRANCH  34  35
ATOM     35  N   UNL     1       6.485   4.777  17.606  0.00  0.00    +0.000 NA
ATOM     36  C   UNL     1       7.255   5.873  16.993  0.00  0.00    +0.000 C 
ATOM     37  C   UNL     1       7.709   6.787  18.121  0.00  0.00    +0.000 C 
ATOM     38  C   UNL     1       7.713   5.882  19.327  0.00  0.00    +0.000 C 
ATOM     39  F   UNL     1       8.865   5.163  19.350  0.00  0.00    +0.000 F 
ATOM     40  C   UNL     1       6.528   4.964  19.065  0.00  0.00    +0.000 C 
ENDBRANCH  34  35
ENDBRANCH   1  34
TORSDOF 7
ENDMDL
MODEL 6
REMARK VINA RESULT:     -10.2      3.025      9.086
REMARK  Name = 
REMARK  10 active torsions:
REMARK  status: ('A' for Active; 'I' for Inactive)
REMARK    1  A    between atoms: C_1  and  C_2
REMARK    2  A    between atoms: C_2  and  C_3
REMARK    3  A    between atoms: C_2  and  N_35
REMARK    4  A    between atoms: C_7  and  C_8
REMARK    5  A    between atoms: N_14  and  C_15
REMARK    6  A    between atoms: C_19  and  C_20
REMARK    7  A    between atoms: C_20  and  C_21
REMARK    8  A    between atoms: C_20  and  C_23
REMARK    9  A    between atoms: C_23  and  C_26
REMARK   10  A    between atoms: N_30  and  C_31
REMARK                            x       y       z     vdW  Elec       q    Type
REMARK                         _______ _______ _______ _____ _____    ______ ____
ROOT
ATOM      1  C   UNL     1       4.007   4.830  18.067  0.00  0.00    +0.000 A 
ATOM      2  C   UNL     1       3.612   6.172  18.037  0.00  0.00    +0.000 A 
ATOM      3  C   UNL     1       2.709   6.602  18.989  0.00  0.00    +0.000 A 
ATOM      4  C   UNL     1       2.157   5.765  19.953  0.00  0.00    +0.000 A 
ATOM      5  C   UNL     1       2.496   4.417  19.988  0.00  0.00    +0.000 A 
ATOM      6  C   UNL     1       3.445   3.970  19.045  0.00  0.00    +0.000 A 
ATOM      7  C   UNL     1       1.255   6.562  20.841  0.00  0.00    +0.000 C 
ATOM      8  N   UNL     1       1.329   7.907  20.281  0.00  0.00    +0.000 N 
ATOM      9  C   UNL     1       2.199   7.959  19.190  0.00  0.00    +0.000 C 
ATOM     10  O   UNL     1       2.549   8.882  18.479  0.00  0.00    +0.000 OA
ENDROOT
BRANCH   8  11
ATOM     11  C   UNL     1       0.570   8.988  20.798  0.00  0.00    +0.000 A 
ATOM     12  C   UNL     1       0.202   9.032  22.148  0.00  0.00    +0.000 A 
ATOM     13  C   UNL     1      -0.518  10.109  22.666  0.00  0.00    +0.000 A 
ATOM     14  C   UNL     1      -0.897  11.158  21.833  0.00  0.00    +0.000 A 
ATOM     15  C   UNL     1      -0.570  11.143  20.471  0.00  0.00    +0.000 A 
ATOM     16  C   UNL     1       0.177  10.053  19.973  0.00  0.00    +0.000 A 
BRANCH  15  17
ATOM     17  C   UNL     1      -1.027  12.251  19.521  0.00  0.00    +0.000 C 
ATOM     18  C   UNL     1      -1.586  11.617  18.239  0.00  0.00    +0.000 C 
ATOM     19  F   UNL     1      -2.086  12.963  20.045  0.00  0.00    +0.000 F 
BRANCH  17  20
ATOM     20  C   UNL     1       0.109  13.256  19.175  0.00  0.00    +0.000 C 
ATOM     21  F   UNL     1       1.060  12.636  18.408  0.00  0.00    +0.000 F 
ATOM     22  F   UNL     1      -0.395  14.230  18.351  0.00  0.00    +0.000 F 
BRANCH  20  23
ATOM     23  C   UNL     1       0.753  13.909  20.355  0.00  0.00    +0.000 A 
ATOM     24  N   UNL     1       1.806  13.506  21.045  0.00  0.00    +0.000 NA
ATOM     25  N   UNL     1       2.030  14.403  22.060  0.00  0.00    +0.000 NA
ATOM     26  C   UNL     1       1.108  15.332  21.980  0.00  0.00    +0.000 A 
ATOM     27  N   UNL     1       0.291  15.069  20.925  0.00  0.00    +0.000 N 
ATOM     28  C   UNL     1      -0.839  15.859  20.512  0.00  0.00    +0.000 C 
ENDBRANCH  20  23
ENDBRANCH  17  20
ENDBRANCH  15  17
ENDBRANCH   8  11
BRANCH   5  29
ATOM     29  C   UNL     1       1.910   3.443  20.975  0.00  0.00    +0.000 C 
ATOM     30  F   UNL     1       2.210   3.734  22.271  0.00  0.00    +0.000 F 
ATOM     31  F   UNL     1       0.550   3.402  20.914  0.00  0.00    +0.000 F 
ATOM     32  F   UNL     1       2.336   2.168  20.770  0.00  0.00    +0.000 F 
ENDBRANCH   5  29
BRANCH   1  34
ATOM     33  C   UNL     1       4.846   5.043  15.765  0.00  0.00    +0.000 C 
ATOM     34  C   UNL     1       5.113   4.359  17.119  0.00  0.00    +0.000 C 
BRANCH  34  35
ATOM     35  N   UNL     1       6.461   4.624  17.649  0.00  0.00    +0.000 NA
ATOM     36  C   UNL     1       7.179   5.706  16.954  0.00  0.00    +0.000 C 
ATOM     37  C   UNL     1       7.617   6.706  18.014  0.00  0.00    +0.000 C 
ATOM     38  C   UNL     1       7.674   5.880  19.274  0.00  0.00    +0.000 C 
ATOM     39  F   UNL     1       8.852   5.207  19.321  0.00  0.00    +0.000 F 
ATOM     40  C   UNL     1       6.520   4.905  19.093  0.00  0.00    +0.000 C 
ENDBRANCH  34  35
ENDBRANCH   1  34
TORSDOF 7
ENDMDL
MODEL 7
REMARK VINA RESULT:     -10.0      2.076      3.365
REMARK  Name = 
REMARK  10 active torsions:
REMARK  status: ('A' for Active; 'I' for Inactive)
REMARK    1  A    between atoms: C_1  and  C_2
REMARK    2  A    between atoms: C_2  and  C_3
REMARK    3  A    between atoms: C_2  and  N_35
REMARK    4  A    between atoms: C_7  and  C_8
REMARK    5  A    between atoms: N_14  and  C_15
REMARK    6  A    between atoms: C_19  and  C_20
REMARK    7  A    between atoms: C_20  and  C_21
REMARK    8  A    between atoms: C_20  and  C_23
REMARK    9  A    between atoms: C_23  and  C_26
REMARK   10  A    between atoms: N_30  and  C_31
REMARK                            x       y       z     vdW  Elec       q    Type
REMARK                         _______ _______ _______ _____ _____    ______ ____
ROOT
ATOM      1  C   UNL     1      -0.229  11.335  19.362  0.00  0.00    +0.000 A 
ATOM      2  C   UNL     1       0.621  10.493  18.635  0.00  0.00    +0.000 A 
ATOM      3  C   UNL     1       1.118   9.371  19.269  0.00  0.00    +0.000 A 
ATOM      4  C   UNL     1       0.838   9.055  20.595  0.00  0.00    +0.000 A 
ATOM      5  C   UNL     1       0.031   9.890  21.359  0.00  0.00    +0.000 A 
ATOM      6  C   UNL     1      -0.514  11.020  20.715  0.00  0.00    +0.000 A 
ATOM      7  C   UNL     1       1.502   7.761  20.943  0.00  0.00    +0.000 C 
ATOM      8  N   UNL     1       2.194   7.392  19.714  0.00  0.00    +0.000 N 
ATOM      9  C   UNL     1       1.968   8.325  18.700  0.00  0.00    +0.000 C 
ATOM     10  O   UNL     1       2.338   8.366  17.542  0.00  0.00    +0.000 OA
ENDROOT
BRANCH   8  11
ATOM     11  C   UNL     1       3.008   6.234  19.619  0.00  0.00    +0.000 A 
ATOM     12  C   UNL     1       2.566   4.998  20.105  0.00  0.00    +0.000 A 
ATOM     13  C   UNL     1       3.352   3.852  19.984  0.00  0.00    +0.000 A 
ATOM     14  C   UNL     1       4.607   3.926  19.386  0.00  0.00    +0.000 A 
ATOM     15  C   UNL     1       5.097   5.148  18.907  0.00  0.00    +0.000 A 
ATOM     16  C   UNL     1       4.277   6.292  19.021  0.00  0.00    +0.000 A 
BRANCH  15  17
ATOM     17  C   UNL     1       6.497   5.271  18.303  0.00  0.00    +0.000 C 
ATOM     18  C   UNL     1       7.459   5.818  19.367  0.00  0.00    +0.000 C 
ATOM     19  F   UNL     1       7.017   4.038  17.969  0.00  0.00    +0.000 F 
BRANCH  17  20
ATOM     20  C   UNL     1       6.530   6.170  17.033  0.00  0.00    +0.000 C 
ATOM     21  F   UNL     1       5.419   6.972  17.004  0.00  0.00    +0.000 F 
ATOM     22  F   UNL     1       7.572   7.055  17.142  0.00  0.00    +0.000 F 
BRANCH  20  23
ATOM     23  C   UNL     1       6.657   5.430  15.742  0.00  0.00    +0.000 A 
ATOM     24  N   UNL     1       7.659   5.442  14.881  0.00  0.00    +0.000 NA
ATOM     25  N   UNL     1       7.334   4.631  13.822  0.00  0.00    +0.000 NA
ATOM     26  C   UNL     1       6.137   4.144  14.048  0.00  0.00    +0.000 A 
ATOM     27  N   UNL     1       5.676   4.610  15.239  0.00  0.00    +0.000 N 
ATOM     28  C   UNL     1       4.403   4.301  15.834  0.00  0.00    +0.000 C 
ENDBRANCH  20  23
ENDBRANCH  17  20
ENDBRANCH  15  17
ENDBRANCH   8  11
BRANCH   5  29
ATOM     29  C   UNL     1      -0.283   9.634  22.809  0.00  0.00    +0.000 C 
ATOM     30  F   UNL     1      -1.021   8.509  23.016  0.00  0.00    +0.000 F 
ATOM     31  F   UNL     1       0.842   9.478  23.561  0.00  0.00    +0.000 F 
ATOM     32  F   UNL     1      -0.982  10.650  23.382  0.00  0.00    +0.000 F 
ENDBRANCH   5  29
BRANCH   1  34
ATOM     33  C   UNL     1      -2.225  12.771  19.400  0.00  0.00    +0.000 C 
ATOM     34  C   UNL     1      -0.909  12.504  18.645  0.00  0.00    +0.000 C 
BRANCH  34  35
ATOM     35  N   UNL     1      -0.041  13.690  18.552  0.00  0.00    +0.000 NA
ATOM     36  C   UNL     1      -0.318  14.720  19.568  0.00  0.00    +0.000 C 
ATOM     37  C   UNL     1       0.995  15.011  20.279  0.00  0.00    +0.000 C 
ATOM     38  C   UNL     1       2.040  14.610  19.269  0.00  0.00    +0.000 C 
ATOM     39  F   UNL     1       2.217  15.619  18.377  0.00  0.00    +0.000 F 
ATOM     40  C   UNL     1       1.404  13.411  18.581  0.00  0.00    +0.000 C 
ENDBRANCH  34  35
ENDBRANCH   1  34
TORSDOF 7
ENDMDL
MODEL 8
REMARK VINA RESULT:      -9.9      2.876      9.294
REMARK  Name = 
REMARK  10 active torsions:
REMARK  status: ('A' for Active; 'I' for Inactive)
REMARK    1  A    between atoms: C_1  and  C_2
REMARK    2  A    between atoms: C_2  and  C_3
REMARK    3  A    between atoms: C_2  and  N_35
REMARK    4  A    between atoms: C_7  and  C_8
REMARK    5  A    between atoms: N_14  and  C_15
REMARK    6  A    between atoms: C_19  and  C_20
REMARK    7  A    between atoms: C_20  and  C_21
REMARK    8  A    between atoms: C_20  and  C_23
REMARK    9  A    between atoms: C_23  and  C_26
REMARK   10  A    between atoms: N_30  and  C_31
REMARK                            x       y       z     vdW  Elec       q    Type
REMARK                         _______ _______ _______ _____ _____    ______ ____
ROOT
ATOM      1  C   UNL     1       3.987   5.108  17.955  0.00  0.00    +0.000 A 
ATOM      2  C   UNL     1       3.560   6.441  17.960  0.00  0.00    +0.000 A 
ATOM      3  C   UNL     1       2.671   6.831  18.943  0.00  0.00    +0.000 A 
ATOM      4  C   UNL     1       2.164   5.963  19.905  0.00  0.00    +0.000 A 
ATOM      5  C   UNL     1       2.536   4.623  19.905  0.00  0.00    +0.000 A 
ATOM      6  C   UNL     1       3.471   4.217  18.929  0.00  0.00    +0.000 A 
ATOM      7  C   UNL     1       1.267   6.722  20.830  0.00  0.00    +0.000 C 
ATOM      8  N   UNL     1       1.295   8.077  20.294  0.00  0.00    +0.000 N 
ATOM      9  C   UNL     1       2.134   8.171  19.182  0.00  0.00    +0.000 C 
ATOM     10  O   UNL     1       2.444   9.115  18.481  0.00  0.00    +0.000 OA
ENDROOT
BRANCH   8  11
ATOM     11  C   UNL     1       0.523   9.130  20.850  0.00  0.00    +0.000 A 
ATOM     12  C   UNL     1       0.090   9.083  22.181  0.00  0.00    +0.000 A 
ATOM     13  C   UNL     1      -0.641  10.131  22.740  0.00  0.00    +0.000 A 
ATOM     14  C   UNL     1      -0.968  11.242  21.968  0.00  0.00    +0.000 A 
ATOM     15  C   UNL     1      -0.574  11.320  20.626  0.00  0.00    +0.000 A 
ATOM     16  C   UNL     1       0.184  10.257  20.086  0.00  0.00    +0.000 A 
BRANCH  15  17
ATOM     17  C   UNL     1      -0.971  12.500  19.738  0.00  0.00    +0.000 C 
ATOM     18  C   UNL     1      -1.498  11.967  18.397  0.00  0.00    +0.000 C 
ATOM     19  F   UNL     1      -2.032  13.202  20.271  0.00  0.00    +0.000 F 
BRANCH  17  20
ATOM     20  C   UNL     1       0.199  13.497  19.499  0.00  0.00    +0.000 C 
ATOM     21  F   UNL     1       1.228  13.220  20.361  0.00  0.00    +0.000 F 
ATOM     22  F   UNL     1       0.736  13.265  18.259  0.00  0.00    +0.000 F 
BRANCH  20  23
ATOM     23  C   UNL     1      -0.174  14.941  19.601  0.00  0.00    +0.000 A 
ATOM     24  N   UNL     1      -0.481  15.782  18.630  0.00  0.00    +0.000 NA
ATOM     25  N   UNL     1      -0.733  17.013  19.183  0.00  0.00    +0.000 NA
ATOM     26  C   UNL     1      -0.567  16.907  20.479  0.00  0.00    +0.000 A 
ATOM     27  N   UNL     1      -0.224  15.628  20.789  0.00  0.00    +0.000 N 
ATOM     28  C   UNL     1       0.042  15.118  22.108  0.00  0.00    +0.000 C 
ENDBRANCH  20  23
ENDBRANCH  17  20
ENDBRANCH  15  17
ENDBRANCH   8  11
BRANCH   5  29
ATOM     29  C   UNL     1       1.999   3.618  20.887  0.00  0.00    +0.000 C 
ATOM     30  F   UNL     1       2.331   3.889  22.180  0.00  0.00    +0.000 F 
ATOM     31  F   UNL     1       0.639   3.549  20.865  0.00  0.00    +0.000 F 
ATOM     32  F   UNL     1       2.446   2.356  20.645  0.00  0.00    +0.000 F 
ENDBRANCH   5  29
BRANCH   1  34
ATOM     33  C   UNL     1       4.868   5.520  15.695  0.00  0.00    +0.000 C 
ATOM     34  C   UNL     1       5.079   4.682  16.970  0.00  0.00    +0.000 C 
BRANCH  34  35
ATOM     35  N   UNL     1       6.432   4.815  17.536  0.00  0.00    +0.000 NA
ATOM     36  C   UNL     1       7.231   5.899  16.938  0.00  0.00    +0.000 C 
ATOM     37  C   UNL     1       7.715   6.780  18.080  0.00  0.00    +0.000 C 
ATOM     38  C   UNL     1       7.695   5.856  19.271  0.00  0.00    +0.000 C 
ATOM     39  F   UNL     1       8.827   5.105  19.279  0.00  0.00    +0.000 F 
ATOM     40  C   UNL     1       6.484   4.976  18.998  0.00  0.00    +0.000 C 
ENDBRANCH  34  35
ENDBRANCH   1  34
TORSDOF 7
ENDMDL
MODEL 9
REMARK VINA RESULT:      -9.8      1.871      2.941
REMARK  Name = 
REMARK  10 active torsions:
REMARK  status: ('A' for Active; 'I' for Inactive)
REMARK    1  A    between atoms: C_1  and  C_2
REMARK    2  A    between atoms: C_2  and  C_3
REMARK    3  A    between atoms: C_2  and  N_35
REMARK    4  A    between atoms: C_7  and  C_8
REMARK    5  A    between atoms: N_14  and  C_15
REMARK    6  A    between atoms: C_19  and  C_20
REMARK    7  A    between atoms: C_20  and  C_21
REMARK    8  A    between atoms: C_20  and  C_23
REMARK    9  A    between atoms: C_23  and  C_26
REMARK   10  A    between atoms: N_30  and  C_31
REMARK                            x       y       z     vdW  Elec       q    Type
REMARK                         _______ _______ _______ _____ _____    ______ ____
ROOT
ATOM      1  C   UNL     1       0.131  11.786  19.606  0.00  0.00    +0.000 A 
ATOM      2  C   UNL     1       0.896  11.044  18.698  0.00  0.00    +0.000 A 
ATOM      3  C   UNL     1       1.324   9.790  19.087  0.00  0.00    +0.000 A 
ATOM      4  C   UNL     1       1.058   9.244  20.339  0.00  0.00    +0.000 A 
ATOM      5  C   UNL     1       0.335   9.969  21.280  0.00  0.00    +0.000 A 
ATOM      6  C   UNL     1      -0.142  11.237  20.884  0.00  0.00    +0.000 A 
ATOM      7  C   UNL     1       1.632   7.865  20.408  0.00  0.00    +0.000 C 
ATOM      8  N   UNL     1       2.262   7.694  19.104  0.00  0.00    +0.000 N 
ATOM      9  C   UNL     1       2.079   8.817  18.296  0.00  0.00    +0.000 C 
ATOM     10  O   UNL     1       2.420   9.055  17.153  0.00  0.00    +0.000 OA
ENDROOT
BRANCH   8  11
ATOM     11  C   UNL     1       2.985   6.523  18.758  0.00  0.00    +0.000 A 
ATOM     12  C   UNL     1       2.970   5.393  19.585  0.00  0.00    +0.000 A 
ATOM     13  C   UNL     1       3.654   4.230  19.231  0.00  0.00    +0.000 A 
ATOM     14  C   UNL     1       4.383   4.183  18.046  0.00  0.00    +0.000 A 
ATOM     15  C   UNL     1       4.444   5.299  17.201  0.00  0.00    +0.000 A 
ATOM     16  C   UNL     1       3.726   6.459  17.568  0.00  0.00    +0.000 A 
BRANCH  15  17
ATOM     17  C   UNL     1       5.286   5.297  15.924  0.00  0.00    +0.000 C 
ATOM     18  C   UNL     1       4.667   4.321  14.913  0.00  0.00    +0.000 C 
ATOM     19  F   UNL     1       5.249   6.521  15.289  0.00  0.00    +0.000 F 
BRANCH  17  20
ATOM     20  C   UNL     1       6.776   4.931  16.184  0.00  0.00    +0.000 C 
ATOM     21  F   UNL     1       6.977   3.599  15.932  0.00  0.00    +0.000 F 
ATOM     22  F   UNL     1       7.558   5.565  15.253  0.00  0.00    +0.000 F 
BRANCH  20  23
ATOM     23  C   UNL     1       7.278   5.272  17.549  0.00  0.00    +0.000 A 
ATOM     24  N   UNL     1       7.514   4.461  18.566  0.00  0.00    +0.000 NA
ATOM     25  N   UNL     1       7.943   5.213  19.632  0.00  0.00    +0.000 NA
ATOM     26  C   UNL     1       7.953   6.468  19.254  0.00  0.00    +0.000 A 
ATOM     27  N   UNL     1       7.552   6.554  17.958  0.00  0.00    +0.000 N 
ATOM     28  C   UNL     1       7.434   7.763  17.186  0.00  0.00    +0.000 C 
ENDBRANCH  20  23
ENDBRANCH  17  20
ENDBRANCH  15  17
ENDBRANCH   8  11
BRANCH   5  29
ATOM     29  C   UNL     1       0.042   9.461  22.666  0.00  0.00    +0.000 C 
ATOM     30  F   UNL     1      -0.619  10.360  23.447  0.00  0.00    +0.000 F 
ATOM     31  F   UNL     1      -0.738   8.344  22.653  0.00  0.00    +0.000 F 
ATOM     32  F   UNL     1       1.168   9.129  23.352  0.00  0.00    +0.000 F 
ENDBRANCH   5  29
BRANCH   1  34
ATOM     33  C   UNL     1      -1.963  13.077  19.568  0.00  0.00    +0.000 C 
ATOM     34  C   UNL     1      -0.480  13.114  19.152  0.00  0.00    +0.000 C 
BRANCH  34  35
ATOM     35  N   UNL     1       0.245  14.279  19.686  0.00  0.00    +0.000 NA
ATOM     36  C   UNL     1       1.647  14.372  19.242  0.00  0.00    +0.000 C 
ATOM     37  C   UNL     1       1.832  15.753  18.632  0.00  0.00    +0.000 C 
ATOM     38  C   UNL     1       0.752  16.576  19.287  0.00  0.00    +0.000 C 
ATOM     39  F   UNL     1       1.173  16.983  20.512  0.00  0.00    +0.000 F 
ATOM     40  C   UNL     1      -0.391  15.582  19.431  0.00  0.00    +0.000 C 
ENDBRANCH  34  35
ENDBRANCH   1  34
TORSDOF 7
ENDMDL
