MODEL 1
REMARK VINA RESULT:     -10.8      0.000      0.000
REMARK  Name = 
REMARK  9 active torsions:
REMARK  status: ('A' for Active; 'I' for Inactive)
REMARK    1  A    between atoms: C_1  and  N_2
REMARK    2  A    between atoms: C_6  and  C_7
REMARK    3  A    between atoms: C_7  and  C_8
REMARK    4  A    between atoms: C_8  and  C_9
REMARK    5  A    between atoms: C_13  and  N_14
REMARK    6  A    between atoms: C_19  and  C_20
REMARK    7  A    between atoms: C_20  and  N_21
REMARK    8  A    between atoms: C_24  and  C_25
REMARK    9  A    between atoms: C_29  and  C_30
REMARK                            x       y       z     vdW  Elec       q    Type
REMARK                         _______ _______ _______ _____ _____    ______ ____
ROOT
ATOM      1  N   UNL     1       1.287   8.212  20.285  0.00  0.00    +0.000 N 
ATOM      2  C   UNL     1       1.363   6.867  20.810  0.00  0.00    +0.000 C 
ATOM      3  C   UNL     1       2.256   6.151  19.876  0.00  0.00    +0.000 A 
ATOM      4  C   UNL     1       2.659   7.004  18.855  0.00  0.00    +0.000 A 
ATOM      5  C   UNL     1       3.470   6.540  17.830  0.00  0.00    +0.000 A 
ATOM      6  C   UNL     1       3.910   5.192  17.873  0.00  0.00    +0.000 A 
ATOM      7  C   UNL     1       3.541   4.375  18.971  0.00  0.00    +0.000 A 
ATOM      8  C   UNL     1       2.649   4.823  19.951  0.00  0.00    +0.000 A 
ATOM      9  C   UNL     1       2.028   8.336  19.108  0.00  0.00    +0.000 C 
ATOM     10  O   UNL     1       2.178   9.299  18.380  0.00  0.00    +0.000 OA
ENDROOT
BRANCH   1  15
ATOM     11  C   UNL     1      -0.933  11.215  20.720  0.00  0.00    +0.000 A 
ATOM     12  C   UNL     1      -1.142  11.167  22.103  0.00  0.00    +0.000 A 
ATOM     13  C   UNL     1      -0.584  10.148  22.894  0.00  0.00    +0.000 A 
ATOM     14  C   UNL     1       0.221   9.145  22.330  0.00  0.00    +0.000 A 
ATOM     15  C   UNL     1       0.468   9.154  20.966  0.00  0.00    +0.000 A 
ATOM     16  C   UNL     1      -0.130  10.184  20.207  0.00  0.00    +0.000 A 
BRANCH  11  17
ATOM     17  C   UNL     1      -1.544  12.328  19.716  0.00  0.00    +0.000 C 
ATOM     18  C   UNL     1      -0.592  12.797  18.585  0.00  0.00    +0.000 C 
ATOM     19  O   UNL     1      -0.618  14.166  19.032  0.00  0.00    +0.000 OA
ATOM     20  C   UNL     1      -1.462  13.825  20.151  0.00  0.00    +0.000 C 
BRANCH  17  21
ATOM     21  C   UNL     1      -2.956  11.929  19.217  0.00  0.00    +0.000 C 
BRANCH  21  27
ATOM     22  C   UNL     1      -5.282  12.130  17.085  0.00  0.00    +0.000 C 
ATOM     23  N   UNL     1      -4.018  11.469  16.929  0.00  0.00    +0.000 N 
ATOM     24  C   UNL     1      -3.628  10.791  15.820  0.00  0.00    +0.000 A 
ATOM     25  N   UNL     1      -2.442  10.269  16.014  0.00  0.00    +0.000 NA
ATOM     26  N   UNL     1      -2.051  10.596  17.290  0.00  0.00    +0.000 NA
ATOM     27  C   UNL     1      -2.986  11.350  17.834  0.00  0.00    +0.000 A 
ENDBRANCH  21  27
ENDBRANCH  17  21
ENDBRANCH  11  17
ENDBRANCH   1  15
BRANCH   8  28
ATOM     28  C   UNL     1       2.102   3.881  20.997  0.00  0.00    +0.000 C 
ATOM     29  F   UNL     1       2.561   2.606  20.883  0.00  0.00    +0.000 F 
ATOM     30  F   UNL     1       2.426   4.276  22.259  0.00  0.00    +0.000 F 
ATOM     31  F   UNL     1       0.746   3.787  20.961  0.00  0.00    +0.000 F 
ENDBRANCH   8  28
BRANCH   6  32
ATOM     32  C   UNL     1       4.740   4.612  16.725  0.00  0.00    +0.000 C 
BRANCH  32  33
ATOM     33  N   UNL     1       5.569   5.617  16.008  0.00  0.00    +0.000 NA
ATOM     34  C   UNL     1       5.699   6.874  16.778  0.00  0.00    +0.000 C 
ATOM     35  C   UNL     1       7.051   6.412  17.365  0.00  0.00    +0.000 C 
ATOM     36  C   UNL     1       7.987   7.614  17.451  0.00  0.00    +0.000 C 
ATOM     37  C   UNL     1       7.035   5.398  16.171  0.00  0.00    +0.000 C 
BRANCH  36  38
ATOM     38  C   UNL     1       7.050   5.725  18.646  0.00  0.00    +0.000 C 
ATOM     39  N   UNL     1       7.019   5.193  19.677  0.00  0.00    +0.000 NA
ENDBRANCH  36  38
ENDBRANCH  32  33
ENDBRANCH   6  32
TORSDOF 8
ENDMDL
MODEL 2
REMARK VINA RESULT:     -10.8      1.130      1.963
REMARK  Name = 
REMARK  9 active torsions:
REMARK  status: ('A' for Active; 'I' for Inactive)
REMARK    1  A    between atoms: C_1  and  N_2
REMARK    2  A    between atoms: C_6  and  C_7
REMARK    3  A    between atoms: C_7  and  C_8
REMARK    4  A    between atoms: C_8  and  C_9
REMARK    5  A    between atoms: C_13  and  N_14
REMARK    6  A    between atoms: C_19  and  C_20
REMARK    7  A    between atoms: C_20  and  N_21
REMARK    8  A    between atoms: C_24  and  C_25
REMARK    9  A    between atoms: C_29  and  C_30
REMARK                            x       y       z     vdW  Elec       q    Type
REMARK                         _______ _______ _______ _____ _____    ______ ____
ROOT
ATOM      1  N   UNL     1       1.427   8.072  20.164  0.00  0.00    +0.000 N 
ATOM      2  C   UNL     1       1.446   6.721  20.678  0.00  0.00    +0.000 C 
ATOM      3  C   UNL     1       2.323   5.980  19.748  0.00  0.00    +0.000 A 
ATOM      4  C   UNL     1       2.770   6.826  18.741  0.00  0.00    +0.000 A 
ATOM      5  C   UNL     1       3.577   6.341  17.722  0.00  0.00    +0.000 A 
ATOM      6  C   UNL     1       3.965   4.977  17.758  0.00  0.00    +0.000 A 
ATOM      7  C   UNL     1       3.552   4.165  18.844  0.00  0.00    +0.000 A 
ATOM      8  C   UNL     1       2.665   4.637  19.816  0.00  0.00    +0.000 A 
ATOM      9  C   UNL     1       2.187   8.178  18.998  0.00  0.00    +0.000 C 
ATOM     10  O   UNL     1       2.382   9.142  18.281  0.00  0.00    +0.000 OA
ENDROOT
BRANCH   1  15
ATOM     11  C   UNL     1      -0.754  11.105  20.585  0.00  0.00    +0.000 A 
ATOM     12  C   UNL     1      -0.925  11.094  21.975  0.00  0.00    +0.000 A 
ATOM     13  C   UNL     1      -0.354  10.089  22.775  0.00  0.00    +0.000 A 
ATOM     14  C   UNL     1       0.426   9.065  22.215  0.00  0.00    +0.000 A 
ATOM     15  C   UNL     1       0.636   9.038  20.844  0.00  0.00    +0.000 A 
ATOM     16  C   UNL     1       0.026  10.055  20.077  0.00  0.00    +0.000 A 
BRANCH  11  17
ATOM     17  C   UNL     1      -1.382  12.200  19.572  0.00  0.00    +0.000 C 
ATOM     18  C   UNL     1      -0.467  12.613  18.390  0.00  0.00    +0.000 C 
ATOM     19  O   UNL     1      -0.448  13.995  18.793  0.00  0.00    +0.000 OA
ATOM     20  C   UNL     1      -1.254  13.708  19.954  0.00  0.00    +0.000 C 
BRANCH  17  21
ATOM     21  C   UNL     1      -2.820  11.815  19.142  0.00  0.00    +0.000 C 
BRANCH  21  27
ATOM     22  C   UNL     1      -5.198  12.062  17.072  0.00  0.00    +0.000 C 
ATOM     23  N   UNL     1      -3.971  11.340  16.899  0.00  0.00    +0.000 N 
ATOM     24  C   UNL     1      -3.645  10.614  15.800  0.00  0.00    +0.000 A 
ATOM     25  N   UNL     1      -2.478  10.043  15.976  0.00  0.00    +0.000 NA
ATOM     26  N   UNL     1      -2.034  10.389  17.229  0.00  0.00    +0.000 NA
ATOM     27  C   UNL     1      -2.918  11.200  17.778  0.00  0.00    +0.000 A 
ENDBRANCH  21  27
ENDBRANCH  17  21
ENDBRANCH  11  17
ENDBRANCH   1  15
BRANCH   8  28
ATOM     28  C   UNL     1       2.070   3.708  20.846  0.00  0.00    +0.000 C 
ATOM     29  F   UNL     1       2.351   4.057  22.130  0.00  0.00    +0.000 F 
ATOM     30  F   UNL     1       0.711   3.662  20.769  0.00  0.00    +0.000 F 
ATOM     31  F   UNL     1       2.503   2.427  20.711  0.00  0.00    +0.000 F 
ENDBRANCH   8  28
BRANCH   6  32
ATOM     32  C   UNL     1       4.787   4.377  16.614  0.00  0.00    +0.000 C 
BRANCH  32  33
ATOM     33  N   UNL     1       6.041   5.117  16.314  0.00  0.00    +0.000 NA
ATOM     34  C   UNL     1       7.025   4.271  15.605  0.00  0.00    +0.000 C 
ATOM     35  C   UNL     1       6.562   4.820  14.238  0.00  0.00    +0.000 C 
ATOM     36  C   UNL     1       7.780   4.986  13.334  0.00  0.00    +0.000 C 
ATOM     37  C   UNL     1       5.944   5.974  15.098  0.00  0.00    +0.000 C 
BRANCH  36  38
ATOM     38  C   UNL     1       5.535   4.091  13.511  0.00  0.00    +0.000 C 
ATOM     39  N   UNL     1       4.731   3.465  12.955  0.00  0.00    +0.000 NA
ENDBRANCH  36  38
ENDBRANCH  32  33
ENDBRANCH   6  32
TORSDOF 8
ENDMDL
MODEL 3
REMARK VINA RESULT:     -10.8      3.134      9.006
REMARK  Name = 
REMARK  9 active torsions:
REMARK  status: ('A' for Active; 'I' for Inactive)
REMARK    1  A    between atoms: C_1  and  N_2
REMARK    2  A    between atoms: C_6  and  C_7
REMARK    3  A    between atoms: C_7  and  C_8
REMARK    4  A    between atoms: C_8  and  C_9
REMARK    5  A    between atoms: C_13  and  N_14
REMARK    6  A    between atoms: C_19  and  C_20
REMARK    7  A    between atoms: C_20  and  N_21
REMARK    8  A    between atoms: C_24  and  C_25
REMARK    9  A    between atoms: C_29  and  C_30
REMARK                            x       y       z     vdW  Elec       q    Type
REMARK                         _______ _______ _______ _____ _____    ______ ____
ROOT
ATOM      1  N   UNL     1       2.289   7.376  19.081  0.00  0.00    +0.000 N 
ATOM      2  C   UNL     1       1.636   7.736  20.321  0.00  0.00    +0.000 C 
ATOM      3  C   UNL     1       1.158   9.117  20.103  0.00  0.00    +0.000 A 
ATOM      4  C   UNL     1       1.525   9.554  18.836  0.00  0.00    +0.000 A 
ATOM      5  C   UNL     1       1.222  10.842  18.421  0.00  0.00    +0.000 A 
ATOM      6  C   UNL     1       0.496  11.684  19.303  0.00  0.00    +0.000 A 
ATOM      7  C   UNL     1       0.072  11.176  20.558  0.00  0.00    +0.000 A 
ATOM      8  C   UNL     1       0.460   9.909  21.004  0.00  0.00    +0.000 A 
ATOM      9  C   UNL     1       2.265   8.437  18.173  0.00  0.00    +0.000 C 
ATOM     10  O   UNL     1       2.730   8.511  17.052  0.00  0.00    +0.000 OA
ENDROOT
BRANCH   1  15
ATOM     11  C   UNL     1       4.521   4.671  17.728  0.00  0.00    +0.000 A 
ATOM     12  C   UNL     1       4.152   3.609  18.562  0.00  0.00    +0.000 A 
ATOM     13  C   UNL     1       3.198   3.773  19.580  0.00  0.00    +0.000 A 
ATOM     14  C   UNL     1       2.561   5.008  19.792  0.00  0.00    +0.000 A 
ATOM     15  C   UNL     1       2.883   6.089  18.984  0.00  0.00    +0.000 A 
ATOM     16  C   UNL     1       3.862   5.883  17.988  0.00  0.00    +0.000 A 
BRANCH  11  17
ATOM     17  C   UNL     1       5.620   4.595  16.542  0.00  0.00    +0.000 C 
ATOM     18  C   UNL     1       5.364   5.539  15.338  0.00  0.00    +0.000 C 
ATOM     19  O   UNL     1       5.277   4.445  14.406  0.00  0.00    +0.000 OA
ATOM     20  C   UNL     1       5.454   3.480  15.463  0.00  0.00    +0.000 C 
BRANCH  17  21
ATOM     21  C   UNL     1       7.063   4.674  17.101  0.00  0.00    +0.000 C 
BRANCH  21  27
ATOM     22  C   UNL     1       8.057   5.695  19.924  0.00  0.00    +0.000 C 
ATOM     23  N   UNL     1       7.949   6.460  18.715  0.00  0.00    +0.000 N 
ATOM     24  C   UNL     1       8.242   7.780  18.602  0.00  0.00    +0.000 A 
ATOM     25  N   UNL     1       7.996   8.186  17.381  0.00  0.00    +0.000 NA
ATOM     26  N   UNL     1       7.510   7.109  16.678  0.00  0.00    +0.000 NA
ATOM     27  C   UNL     1       7.512   6.056  17.472  0.00  0.00    +0.000 A 
ENDBRANCH  21  27
ENDBRANCH  17  21
ENDBRANCH  11  17
ENDBRANCH   1  15
BRANCH   8  28
ATOM     28  C   UNL     1       0.181   9.461  22.419  0.00  0.00    +0.000 C 
ATOM     29  F   UNL     1      -0.623   8.367  22.501  0.00  0.00    +0.000 F 
ATOM     30  F   UNL     1       1.322   9.129  23.084  0.00  0.00    +0.000 F 
ATOM     31  F   UNL     1      -0.430  10.421  23.163  0.00  0.00    +0.000 F 
ENDBRANCH   8  28
BRANCH   6  32
ATOM     32  C   UNL     1       0.208  13.138  18.923  0.00  0.00    +0.000 C 
BRANCH  32  33
ATOM     33  N   UNL     1       1.413  13.909  18.516  0.00  0.00    +0.000 NA
ATOM     34  C   UNL     1       1.317  15.331  18.912  0.00  0.00    +0.000 C 
ATOM     35  C   UNL     1       2.119  15.061  20.203  0.00  0.00    +0.000 C 
ATOM     36  C   UNL     1       3.046  16.246  20.465  0.00  0.00    +0.000 C 
ATOM     37  C   UNL     1       2.558  13.754  19.459  0.00  0.00    +0.000 C 
BRANCH  36  38
ATOM     38  C   UNL     1       1.388  14.759  21.422  0.00  0.00    +0.000 C 
ATOM     39  N   UNL     1       0.824  14.494  22.402  0.00  0.00    +0.000 NA
ENDBRANCH  36  38
ENDBRANCH  32  33
ENDBRANCH   6  32
TORSDOF 8
ENDMDL
MODEL 4
REMARK VINA RESULT:     -10.6      2.993      9.032
REMARK  Name = 
REMARK  9 active torsions:
REMARK  status: ('A' for Active; 'I' for Inactive)
REMARK    1  A    between atoms: C_1  and  N_2
REMARK    2  A    between atoms: C_6  and  C_7
REMARK    3  A    between atoms: C_7  and  C_8
REMARK    4  A    between atoms: C_8  and  C_9
REMARK    5  A    between atoms: C_13  and  N_14
REMARK    6  A    between atoms: C_19  and  C_20
REMARK    7  A    between atoms: C_20  and  N_21
REMARK    8  A    between atoms: C_24  and  C_25
REMARK    9  A    between atoms: C_29  and  C_30
REMARK                            x       y       z     vdW  Elec       q    Type
REMARK                         _______ _______ _______ _____ _____    ______ ____
ROOT
ATOM      1  N   UNL     1       2.004   7.683  19.542  0.00  0.00    +0.000 N 
ATOM      2  C   UNL     1       1.307   8.029  20.761  0.00  0.00    +0.000 C 
ATOM      3  C   UNL     1       0.669   9.329  20.471  0.00  0.00    +0.000 A 
ATOM      4  C   UNL     1       0.988   9.738  19.181  0.00  0.00    +0.000 A 
ATOM      5  C   UNL     1       0.536  10.957  18.698  0.00  0.00    +0.000 A 
ATOM      6  C   UNL     1      -0.289  11.752  19.535  0.00  0.00    +0.000 A 
ATOM      7  C   UNL     1      -0.656  11.266  20.815  0.00  0.00    +0.000 A 
ATOM      8  C   UNL     1      -0.122  10.080  21.329  0.00  0.00    +0.000 A 
ATOM      9  C   UNL     1       1.858   8.683  18.579  0.00  0.00    +0.000 C 
ATOM     10  O   UNL     1       2.317   8.752  17.454  0.00  0.00    +0.000 OA
ENDROOT
BRANCH   1  15
ATOM     11  C   UNL     1       4.883   5.388  18.782  0.00  0.00    +0.000 A 
ATOM     12  C   UNL     1       4.378   4.185  19.288  0.00  0.00    +0.000 A 
ATOM     13  C   UNL     1       3.113   4.120  19.899  0.00  0.00    +0.000 A 
ATOM     14  C   UNL     1       2.297   5.257  20.011  0.00  0.00    +0.000 A 
ATOM     15  C   UNL     1       2.747   6.472  19.514  0.00  0.00    +0.000 A 
ATOM     16  C   UNL     1       4.031   6.495  18.928  0.00  0.00    +0.000 A 
BRANCH  11  17
ATOM     17  C   UNL     1       6.329   5.578  18.081  0.00  0.00    +0.000 C 
ATOM     18  C   UNL     1       7.199   4.296  17.995  0.00  0.00    +0.000 C 
ATOM     19  O   UNL     1       8.258   4.875  18.779  0.00  0.00    +0.000 OA
ATOM     20  C   UNL     1       7.508   6.092  18.966  0.00  0.00    +0.000 C 
BRANCH  17  21
ATOM     21  C   UNL     1       6.213   6.344  16.739  0.00  0.00    +0.000 C 
BRANCH  21  27
ATOM     22  C   UNL     1       4.362   4.032  15.633  0.00  0.00    +0.000 C 
ATOM     23  N   UNL     1       5.591   4.504  15.064  0.00  0.00    +0.000 N 
ATOM     24  C   UNL     1       6.175   4.001  13.947  0.00  0.00    +0.000 A 
ATOM     25  N   UNL     1       7.307   4.621  13.720  0.00  0.00    +0.000 NA
ATOM     26  N   UNL     1       7.481   5.543  14.724  0.00  0.00    +0.000 NA
ATOM     27  C   UNL     1       6.430   5.499  15.520  0.00  0.00    +0.000 A 
ENDBRANCH  21  27
ENDBRANCH  17  21
ENDBRANCH  11  17
ENDBRANCH   1  15
BRANCH   8  28
ATOM     28  C   UNL     1      -0.354   9.679  22.766  0.00  0.00    +0.000 C 
ATOM     29  F   UNL     1      -1.127  10.554  23.463  0.00  0.00    +0.000 F 
ATOM     30  F   UNL     1      -0.983   8.475  22.865  0.00  0.00    +0.000 F 
ATOM     31  F   UNL     1       0.802   9.566  23.472  0.00  0.00    +0.000 F 
ENDBRANCH   8  28
BRANCH   6  32
ATOM     32  C   UNL     1      -0.746  13.140  19.076  0.00  0.00    +0.000 C 
BRANCH  32  33
ATOM     33  N   UNL     1       0.364  14.034  18.652  0.00  0.00    +0.000 NA
ATOM     34  C   UNL     1       0.145  15.430  19.092  0.00  0.00    +0.000 C 
ATOM     35  C   UNL     1       1.018  15.206  20.346  0.00  0.00    +0.000 C 
ATOM     36  C   UNL     1       1.834  16.468  20.611  0.00  0.00    +0.000 C 
ATOM     37  C   UNL     1       1.552  13.968  19.550  0.00  0.00    +0.000 C 
BRANCH  36  38
ATOM     38  C   UNL     1       0.364  14.803  21.581  0.00  0.00    +0.000 C 
ATOM     39  N   UNL     1      -0.050  14.392  22.584  0.00  0.00    +0.000 NA
ENDBRANCH  36  38
ENDBRANCH  32  33
ENDBRANCH   6  32
TORSDOF 8
ENDMDL
MODEL 5
REMARK VINA RESULT:     -10.5      2.242      3.514
REMARK  Name = 
REMARK  9 active torsions:
REMARK  status: ('A' for Active; 'I' for Inactive)
REMARK    1  A    between atoms: C_1  and  N_2
REMARK    2  A    between atoms: C_6  and  C_7
REMARK    3  A    between atoms: C_7  and  C_8
REMARK    4  A    between atoms: C_8  and  C_9
REMARK    5  A    between atoms: C_13  and  N_14
REMARK    6  A    between atoms: C_19  and  C_20
REMARK    7  A    between atoms: C_20  and  N_21
REMARK    8  A    between atoms: C_24  and  C_25
REMARK    9  A    between atoms: C_29  and  C_30
REMARK                            x       y       z     vdW  Elec       q    Type
REMARK                         _______ _______ _______ _____ _____    ______ ____
ROOT
ATOM      1  N   UNL     1       1.414   8.041  20.207  0.00  0.00    +0.000 N 
ATOM      2  C   UNL     1       1.431   6.680  20.696  0.00  0.00    +0.000 C 
ATOM      3  C   UNL     1       2.307   5.955  19.753  0.00  0.00    +0.000 A 
ATOM      4  C   UNL     1       2.756   6.819  18.762  0.00  0.00    +0.000 A 
ATOM      5  C   UNL     1       3.562   6.351  17.734  0.00  0.00    +0.000 A 
ATOM      6  C   UNL     1       3.948   4.986  17.745  0.00  0.00    +0.000 A 
ATOM      7  C   UNL     1       3.533   4.154  18.815  0.00  0.00    +0.000 A 
ATOM      8  C   UNL     1       2.647   4.610  19.796  0.00  0.00    +0.000 A 
ATOM      9  C   UNL     1       2.175   8.167  19.043  0.00  0.00    +0.000 C 
ATOM     10  O   UNL     1       2.372   9.143  18.345  0.00  0.00    +0.000 OA
ENDROOT
BRANCH   1  15
ATOM     11  C   UNL     1      -0.872  10.989  20.668  0.00  0.00    +0.000 A 
ATOM     12  C   UNL     1      -0.954  11.020  22.065  0.00  0.00    +0.000 A 
ATOM     13  C   UNL     1      -0.289  10.071  22.860  0.00  0.00    +0.000 A 
ATOM     14  C   UNL     1       0.501   9.062  22.284  0.00  0.00    +0.000 A 
ATOM     15  C   UNL     1       0.624   8.995  20.904  0.00  0.00    +0.000 A 
ATOM     16  C   UNL     1      -0.079   9.956  20.145  0.00  0.00    +0.000 A 
BRANCH  11  17
ATOM     17  C   UNL     1      -1.613  12.018  19.661  0.00  0.00    +0.000 C 
ATOM     18  C   UNL     1      -2.887  12.698  20.226  0.00  0.00    +0.000 C 
ATOM     19  O   UNL     1      -3.726  12.147  19.194  0.00  0.00    +0.000 OA
ATOM     20  C   UNL     1      -2.615  11.427  18.621  0.00  0.00    +0.000 C 
BRANCH  17  21
ATOM     21  C   UNL     1      -0.607  13.009  19.023  0.00  0.00    +0.000 C 
BRANCH  21  27
ATOM     22  C   UNL     1       2.468  12.551  18.448  0.00  0.00    +0.000 C 
ATOM     23  N   UNL     1       1.885  13.161  19.609  0.00  0.00    +0.000 N 
ATOM     24  C   UNL     1       2.583  13.625  20.676  0.00  0.00    +0.000 A 
ATOM     25  N   UNL     1       1.754  14.079  21.584  0.00  0.00    +0.000 NA
ATOM     26  N   UNL     1       0.479  13.892  21.109  0.00  0.00    +0.000 NA
ATOM     27  C   UNL     1       0.554  13.369  19.901  0.00  0.00    +0.000 A 
ENDBRANCH  21  27
ENDBRANCH  17  21
ENDBRANCH  11  17
ENDBRANCH   1  15
BRANCH   8  28
ATOM     28  C   UNL     1       2.050   3.663  20.809  0.00  0.00    +0.000 C 
ATOM     29  F   UNL     1       0.690   3.621  20.788  0.00  0.00    +0.000 F 
ATOM     30  F   UNL     1       2.458   2.379  20.610  0.00  0.00    +0.000 F 
ATOM     31  F   UNL     1       2.388   3.978  22.087  0.00  0.00    +0.000 F 
ENDBRANCH   8  28
BRANCH   6  32
ATOM     32  C   UNL     1       4.770   4.406  16.591  0.00  0.00    +0.000 C 
BRANCH  32  33
ATOM     33  N   UNL     1       6.012   5.165  16.288  0.00  0.00    +0.000 NA
ATOM     34  C   UNL     1       7.030   4.317  15.630  0.00  0.00    +0.000 C 
ATOM     35  C   UNL     1       6.581   4.804  14.235  0.00  0.00    +0.000 C 
ATOM     36  C   UNL     1       7.814   4.967  13.349  0.00  0.00    +0.000 C 
ATOM     37  C   UNL     1       5.920   5.974  15.039  0.00  0.00    +0.000 C 
BRANCH  36  38
ATOM     38  C   UNL     1       5.587   4.025  13.516  0.00  0.00    +0.000 C 
ATOM     39  N   UNL     1       4.763   3.462  12.923  0.00  0.00    +0.000 NA
ENDBRANCH  36  38
ENDBRANCH  32  33
ENDBRANCH   6  32
TORSDOF 8
ENDMDL
MODEL 6
REMARK VINA RESULT:     -10.5      2.001      2.991
REMARK  Name = 
REMARK  9 active torsions:
REMARK  status: ('A' for Active; 'I' for Inactive)
REMARK    1  A    between atoms: C_1  and  N_2
REMARK    2  A    between atoms: C_6  and  C_7
REMARK    3  A    between atoms: C_7  and  C_8
REMARK    4  A    between atoms: C_8  and  C_9
REMARK    5  A    between atoms: C_13  and  N_14
REMARK    6  A    between atoms: C_19  and  C_20
REMARK    7  A    between atoms: C_20  and  N_21
REMARK    8  A    between atoms: C_24  and  C_25
REMARK    9  A    between atoms: C_29  and  C_30
REMARK                            x       y       z     vdW  Elec       q    Type
REMARK                         _______ _______ _______ _____ _____    ______ ____
ROOT
ATOM      1  N   UNL     1       1.284   8.090  20.482  0.00  0.00    +0.000 N 
ATOM      2  C   UNL     1       1.358   6.720  20.937  0.00  0.00    +0.000 C 
ATOM      3  C   UNL     1       2.228   6.045  19.952  0.00  0.00    +0.000 A 
ATOM      4  C   UNL     1       2.620   6.946  18.969  0.00  0.00    +0.000 A 
ATOM      5  C   UNL     1       3.409   6.527  17.908  0.00  0.00    +0.000 A 
ATOM      6  C   UNL     1       3.838   5.175  17.875  0.00  0.00    +0.000 A 
ATOM      7  C   UNL     1       3.481   4.307  18.936  0.00  0.00    +0.000 A 
ATOM      8  C   UNL     1       2.611   4.711  19.953  0.00  0.00    +0.000 A 
ATOM      9  C   UNL     1       2.006   8.267  19.300  0.00  0.00    +0.000 C 
ATOM     10  O   UNL     1       2.151   9.265  18.619  0.00  0.00    +0.000 OA
ENDROOT
BRANCH   1  15
ATOM     11  C   UNL     1      -0.905  11.082  21.107  0.00  0.00    +0.000 A 
ATOM     12  C   UNL     1      -1.086  10.968  22.491  0.00  0.00    +0.000 A 
ATOM     13  C   UNL     1      -0.520   9.908  23.220  0.00  0.00    +0.000 A 
ATOM     14  C   UNL     1       0.266   8.929  22.592  0.00  0.00    +0.000 A 
ATOM     15  C   UNL     1       0.487   9.003  21.224  0.00  0.00    +0.000 A 
ATOM     16  C   UNL     1      -0.119  10.072  20.529  0.00  0.00    +0.000 A 
BRANCH  11  17
ATOM     17  C   UNL     1      -1.527  12.247  20.172  0.00  0.00    +0.000 C 
ATOM     18  C   UNL     1      -2.729  13.016  20.780  0.00  0.00    +0.000 C 
ATOM     19  O   UNL     1      -3.612  12.625  19.712  0.00  0.00    +0.000 OA
ATOM     20  C   UNL     1      -2.576  11.835  19.093  0.00  0.00    +0.000 C 
BRANCH  17  21
ATOM     21  C   UNL     1      -0.419  13.170  19.603  0.00  0.00    +0.000 C 
BRANCH  21  27
ATOM     22  C   UNL     1      -0.854  16.245  20.201  0.00  0.00    +0.000 C 
ATOM     23  N   UNL     1       0.050  15.352  20.867  0.00  0.00    +0.000 N 
ATOM     24  C   UNL     1       0.897  15.707  21.867  0.00  0.00    +0.000 A 
ATOM     25  N   UNL     1       1.616  14.672  22.227  0.00  0.00    +0.000 NA
ATOM     26  N   UNL     1       1.246  13.615  21.431  0.00  0.00    +0.000 NA
ATOM     27  C   UNL     1       0.276  14.013  20.631  0.00  0.00    +0.000 A 
ENDBRANCH  21  27
ENDBRANCH  17  21
ENDBRANCH  11  17
ENDBRANCH   1  15
BRANCH   8  28
ATOM     28  C   UNL     1       2.074   3.722  20.960  0.00  0.00    +0.000 C 
ATOM     29  F   UNL     1       2.531   2.454  20.782  0.00  0.00    +0.000 F 
ATOM     30  F   UNL     1       2.411   4.058  22.236  0.00  0.00    +0.000 F 
ATOM     31  F   UNL     1       0.718   3.631  20.935  0.00  0.00    +0.000 F 
ENDBRANCH   8  28
BRANCH   6  32
ATOM     32  C   UNL     1       4.642   4.648  16.683  0.00  0.00    +0.000 C 
BRANCH  32  33
ATOM     33  N   UNL     1       5.468   5.681  16.004  0.00  0.00    +0.000 NA
ATOM     34  C   UNL     1       5.619   6.898  16.831  0.00  0.00    +0.000 C 
ATOM     35  C   UNL     1       6.975   6.399  17.376  0.00  0.00    +0.000 C 
ATOM     36  C   UNL     1       7.922   7.590  17.506  0.00  0.00    +0.000 C 
ATOM     37  C   UNL     1       6.934   5.445  16.135  0.00  0.00    +0.000 C 
BRANCH  36  38
ATOM     38  C   UNL     1       6.988   5.651  18.622  0.00  0.00    +0.000 C 
ATOM     39  N   UNL     1       6.929   5.096  19.640  0.00  0.00    +0.000 NA
ENDBRANCH  36  38
ENDBRANCH  32  33
ENDBRANCH   6  32
TORSDOF 8
ENDMDL
MODEL 7
REMARK VINA RESULT:     -10.4      2.095      3.413
REMARK  Name = 
REMARK  9 active torsions:
REMARK  status: ('A' for Active; 'I' for Inactive)
REMARK    1  A    between atoms: C_1  and  N_2
REMARK    2  A    between atoms: C_6  and  C_7
REMARK    3  A    between atoms: C_7  and  C_8
REMARK    4  A    between atoms: C_8  and  C_9
REMARK    5  A    between atoms: C_13  and  N_14
REMARK    6  A    between atoms: C_19  and  C_20
REMARK    7  A    between atoms: C_20  and  N_21
REMARK    8  A    between atoms: C_24  and  C_25
REMARK    9  A    between atoms: C_29  and  C_30
REMARK                            x       y       z     vdW  Elec       q    Type
REMARK                         _______ _______ _______ _____ _____    ______ ____
ROOT
ATOM      1  N   UNL     1       1.424   8.151  20.160  0.00  0.00    +0.000 N 
ATOM      2  C   UNL     1       1.458   6.798  20.670  0.00  0.00    +0.000 C 
ATOM      3  C   UNL     1       2.337   6.069  19.734  0.00  0.00    +0.000 A 
ATOM      4  C   UNL     1       2.771   6.921  18.726  0.00  0.00    +0.000 A 
ATOM      5  C   UNL     1       3.577   6.446  17.701  0.00  0.00    +0.000 A 
ATOM      6  C   UNL     1       3.977   5.085  17.732  0.00  0.00    +0.000 A 
ATOM      7  C   UNL     1       3.578   4.267  18.818  0.00  0.00    +0.000 A 
ATOM      8  C   UNL     1       2.692   4.728  19.797  0.00  0.00    +0.000 A 
ATOM      9  C   UNL     1       2.177   8.267  18.990  0.00  0.00    +0.000 C 
ATOM     10  O   UNL     1       2.359   9.234  18.275  0.00  0.00    +0.000 OA
ENDROOT
BRANCH   1  15
ATOM     11  C   UNL     1      -0.835  11.125  20.592  0.00  0.00    +0.000 A 
ATOM     12  C   UNL     1      -0.955  11.141  21.987  0.00  0.00    +0.000 A 
ATOM     13  C   UNL     1      -0.325  10.173  22.788  0.00  0.00    +0.000 A 
ATOM     14  C   UNL     1       0.467   9.160  22.223  0.00  0.00    +0.000 A 
ATOM     15  C   UNL     1       0.628   9.108  20.846  0.00  0.00    +0.000 A 
ATOM     16  C   UNL     1      -0.041  10.087  20.080  0.00  0.00    +0.000 A 
BRANCH  11  17
ATOM     17  C   UNL     1      -1.533  12.176  19.578  0.00  0.00    +0.000 C 
ATOM     18  C   UNL     1      -3.083  12.205  19.616  0.00  0.00    +0.000 C 
ATOM     19  O   UNL     1      -3.195  11.832  18.229  0.00  0.00    +0.000 OA
ATOM     20  C   UNL     1      -1.763  11.723  18.102  0.00  0.00    +0.000 C 
BRANCH  17  21
ATOM     21  C   UNL     1      -0.880  13.578  19.676  0.00  0.00    +0.000 C 
BRANCH  21  27
ATOM     22  C   UNL     1       1.272  14.576  21.767  0.00  0.00    +0.000 C 
ATOM     23  N   UNL     1       1.520  14.017  20.469  0.00  0.00    +0.000 N 
ATOM     24  C   UNL     1       2.748  13.848  19.917  0.00  0.00    +0.000 A 
ATOM     25  N   UNL     1       2.627  13.356  18.708  0.00  0.00    +0.000 NA
ATOM     26  N   UNL     1       1.284  13.215  18.453  0.00  0.00    +0.000 NA
ATOM     27  C   UNL     1       0.613  13.581  19.527  0.00  0.00    +0.000 A 
ENDBRANCH  21  27
ENDBRANCH  17  21
ENDBRANCH  11  17
ENDBRANCH   1  15
BRANCH   8  28
ATOM     28  C   UNL     1       2.111   3.791  20.827  0.00  0.00    +0.000 C 
ATOM     29  F   UNL     1       2.447   4.105  22.108  0.00  0.00    +0.000 F 
ATOM     30  F   UNL     1       0.749   3.780  20.798  0.00  0.00    +0.000 F 
ATOM     31  F   UNL     1       2.507   2.503  20.649  0.00  0.00    +0.000 F 
ENDBRANCH   8  28
BRANCH   6  32
ATOM     32  C   UNL     1       4.799   4.495  16.582  0.00  0.00    +0.000 C 
BRANCH  32  33
ATOM     33  N   UNL     1       6.024   5.271  16.252  0.00  0.00    +0.000 NA
ATOM     34  C   UNL     1       7.070   4.417  15.649  0.00  0.00    +0.000 C 
ATOM     35  C   UNL     1       6.624   4.817  14.226  0.00  0.00    +0.000 C 
ATOM     36  C   UNL     1       7.862   4.966  13.344  0.00  0.00    +0.000 C 
ATOM     37  C   UNL     1       5.924   6.010  14.960  0.00  0.00    +0.000 C 
BRANCH  36  38
ATOM     38  C   UNL     1       5.659   3.974  13.540  0.00  0.00    +0.000 C 
ATOM     39  N   UNL     1       4.836   3.401  12.955  0.00  0.00    +0.000 NA
ENDBRANCH  36  38
ENDBRANCH  32  33
ENDBRANCH   6  32
TORSDOF 8
ENDMDL
MODEL 8
REMARK VINA RESULT:     -10.4      2.187      3.368
REMARK  Name = 
REMARK  9 active torsions:
REMARK  status: ('A' for Active; 'I' for Inactive)
REMARK    1  A    between atoms: C_1  and  N_2
REMARK    2  A    between atoms: C_6  and  C_7
REMARK    3  A    between atoms: C_7  and  C_8
REMARK    4  A    between atoms: C_8  and  C_9
REMARK    5  A    between atoms: C_13  and  N_14
REMARK    6  A    between atoms: C_19  and  C_20
REMARK    7  A    between atoms: C_20  and  N_21
REMARK    8  A    between atoms: C_24  and  C_25
REMARK    9  A    between atoms: C_29  and  C_30
REMARK                            x       y       z     vdW  Elec       q    Type
REMARK                         _______ _______ _______ _____ _____    ______ ____
ROOT
ATOM      1  N   UNL     1       1.446   8.022  20.255  0.00  0.00    +0.000 N 
ATOM      2  C   UNL     1       1.457   6.657  20.733  0.00  0.00    +0.000 C 
ATOM      3  C   UNL     1       2.332   5.937  19.786  0.00  0.00    +0.000 A 
ATOM      4  C   UNL     1       2.786   6.807  18.802  0.00  0.00    +0.000 A 
ATOM      5  C   UNL     1       3.591   6.344  17.771  0.00  0.00    +0.000 A 
ATOM      6  C   UNL     1       3.972   4.977  17.772  0.00  0.00    +0.000 A 
ATOM      7  C   UNL     1       3.553   4.139  18.836  0.00  0.00    +0.000 A 
ATOM      8  C   UNL     1       2.667   4.590  19.819  0.00  0.00    +0.000 A 
ATOM      9  C   UNL     1       2.209   8.154  19.093  0.00  0.00    +0.000 C 
ATOM     10  O   UNL     1       2.410   9.136  18.402  0.00  0.00    +0.000 OA
ENDROOT
BRANCH   1  15
ATOM     11  C   UNL     1      -0.695  11.071  20.757  0.00  0.00    +0.000 A 
ATOM     12  C   UNL     1      -0.888  11.010  22.142  0.00  0.00    +0.000 A 
ATOM     13  C   UNL     1      -0.345   9.967  22.913  0.00  0.00    +0.000 A 
ATOM     14  C   UNL     1       0.428   8.953  22.326  0.00  0.00    +0.000 A 
ATOM     15  C   UNL     1       0.659   8.974  20.958  0.00  0.00    +0.000 A 
ATOM     16  C   UNL     1       0.077  10.028  20.221  0.00  0.00    +0.000 A 
BRANCH  11  17
ATOM     17  C   UNL     1      -1.291  12.212  19.776  0.00  0.00    +0.000 C 
ATOM     18  C   UNL     1      -2.686  11.906  19.170  0.00  0.00    +0.000 C 
ATOM     19  O   UNL     1      -2.191  11.960  17.819  0.00  0.00    +0.000 OA
ATOM     20  C   UNL     1      -0.845  12.195  18.280  0.00  0.00    +0.000 C 
BRANCH  17  21
ATOM     21  C   UNL     1      -1.183  13.621  20.413  0.00  0.00    +0.000 C 
BRANCH  21  27
ATOM     22  C   UNL     1       1.955  13.528  20.796  0.00  0.00    +0.000 C 
ATOM     23  N   UNL     1       1.209  14.432  19.968  0.00  0.00    +0.000 N 
ATOM     24  C   UNL     1       1.750  15.428  19.221  0.00  0.00    +0.000 A 
ATOM     25  N   UNL     1       0.798  16.098  18.619  0.00  0.00    +0.000 NA
ATOM     26  N   UNL     1      -0.400  15.540  18.994  0.00  0.00    +0.000 NA
ATOM     27  C   UNL     1      -0.154  14.512  19.783  0.00  0.00    +0.000 A 
ENDBRANCH  21  27
ENDBRANCH  17  21
ENDBRANCH  11  17
ENDBRANCH   1  15
BRANCH   8  28
ATOM     28  C   UNL     1       2.065   3.638  20.824  0.00  0.00    +0.000 C 
ATOM     29  F   UNL     1       2.487   2.352  20.684  0.00  0.00    +0.000 F 
ATOM     30  F   UNL     1       2.370   3.986  22.105  0.00  0.00    +0.000 F 
ATOM     31  F   UNL     1       0.709   3.589  20.754  0.00  0.00    +0.000 F 
ENDBRANCH   8  28
BRANCH   6  32
ATOM     32  C   UNL     1       4.793   4.403  16.615  0.00  0.00    +0.000 C 
BRANCH  32  33
ATOM     33  N   UNL     1       6.017   5.183  16.293  0.00  0.00    +0.000 NA
ATOM     34  C   UNL     1       7.050   4.345  15.646  0.00  0.00    +0.000 C 
ATOM     35  C   UNL     1       6.586   4.796  14.244  0.00  0.00    +0.000 C 
ATOM     36  C   UNL     1       7.812   4.969  13.351  0.00  0.00    +0.000 C 
ATOM     37  C   UNL     1       5.902   5.966  15.029  0.00  0.00    +0.000 C 
BRANCH  36  38
ATOM     38  C   UNL     1       5.607   3.982  13.544  0.00  0.00    +0.000 C 
ATOM     39  N   UNL     1       4.739   3.505  12.938  0.00  0.00    +0.000 NA
ENDBRANCH  36  38
ENDBRANCH  32  33
ENDBRANCH   6  32
TORSDOF 8
ENDMDL
MODEL 9
REMARK VINA RESULT:     -10.4      1.786      2.347
REMARK  Name = 
REMARK  9 active torsions:
REMARK  status: ('A' for Active; 'I' for Inactive)
REMARK    1  A    between atoms: C_1  and  N_2
REMARK    2  A    between atoms: C_6  and  C_7
REMARK    3  A    between atoms: C_7  and  C_8
REMARK    4  A    between atoms: C_8  and  C_9
REMARK    5  A    between atoms: C_13  and  N_14
REMARK    6  A    between atoms: C_19  and  C_20
REMARK    7  A    between atoms: C_20  and  N_21
REMARK    8  A    between atoms: C_24  and  C_25
REMARK    9  A    between atoms: C_29  and  C_30
REMARK                            x       y       z     vdW  Elec       q    Type
REMARK                         _______ _______ _______ _____ _____    ______ ____
ROOT
ATOM      1  N   UNL     1       1.258   8.207  20.471  0.00  0.00    +0.000 N 
ATOM      2  C   UNL     1       1.330   6.838  20.931  0.00  0.00    +0.000 C 
ATOM      3  C   UNL     1       2.203   6.161  19.951  0.00  0.00    +0.000 A 
ATOM      4  C   UNL     1       2.598   7.058  18.966  0.00  0.00    +0.000 A 
ATOM      5  C   UNL     1       3.391   6.636  17.908  0.00  0.00    +0.000 A 
ATOM      6  C   UNL     1       3.819   5.284  17.881  0.00  0.00    +0.000 A 
ATOM      7  C   UNL     1       3.459   4.419  18.944  0.00  0.00    +0.000 A 
ATOM      8  C   UNL     1       2.586   4.827  19.957  0.00  0.00    +0.000 A 
ATOM      9  C   UNL     1       1.983   8.381  19.291  0.00  0.00    +0.000 C 
ATOM     10  O   UNL     1       2.130   9.377  18.607  0.00  0.00    +0.000 OA
ENDROOT
BRANCH   1  15
ATOM     11  C   UNL     1      -0.976  11.171  21.071  0.00  0.00    +0.000 A 
ATOM     12  C   UNL     1      -1.126  11.088  22.460  0.00  0.00    +0.000 A 
ATOM     13  C   UNL     1      -0.525  10.056  23.202  0.00  0.00    +0.000 A 
ATOM     14  C   UNL     1       0.267   9.077  22.581  0.00  0.00    +0.000 A 
ATOM     15  C   UNL     1       0.458   9.122  21.208  0.00  0.00    +0.000 A 
ATOM     16  C   UNL     1      -0.183  10.163  20.501  0.00  0.00    +0.000 A 
BRANCH  11  17
ATOM     17  C   UNL     1      -1.639  12.302  20.122  0.00  0.00    +0.000 C 
ATOM     18  C   UNL     1      -2.605  11.770  19.031  0.00  0.00    +0.000 C 
ATOM     19  O   UNL     1      -1.806  12.305  17.960  0.00  0.00    +0.000 OA
ATOM     20  C   UNL     1      -0.817  12.794  18.889  0.00  0.00    +0.000 C 
BRANCH  17  21
ATOM     21  C   UNL     1      -2.223  13.471  20.954  0.00  0.00    +0.000 C 
BRANCH  21  27
ATOM     22  C   UNL     1      -4.478  15.669  20.670  0.00  0.00    +0.000 C 
ATOM     23  N   UNL     1      -4.637  14.319  21.130  0.00  0.00    +0.000 N 
ATOM     24  C   UNL     1      -5.807  13.773  21.547  0.00  0.00    +0.000 A 
ATOM     25  N   UNL     1      -5.604  12.540  21.943  0.00  0.00    +0.000 NA
ATOM     26  N   UNL     1      -4.264  12.276  21.801  0.00  0.00    +0.000 NA
ATOM     27  C   UNL     1      -3.681  13.337  21.278  0.00  0.00    +0.000 A 
ENDBRANCH  21  27
ENDBRANCH  17  21
ENDBRANCH  11  17
ENDBRANCH   1  15
BRANCH   8  28
ATOM     28  C   UNL     1       2.046   3.841  20.965  0.00  0.00    +0.000 C 
ATOM     29  F   UNL     1       2.484   2.567  20.778  0.00  0.00    +0.000 F 
ATOM     30  F   UNL     1       2.401   4.167  22.239  0.00  0.00    +0.000 F 
ATOM     31  F   UNL     1       0.689   3.768  20.954  0.00  0.00    +0.000 F 
ENDBRANCH   8  28
BRANCH   6  32
ATOM     32  C   UNL     1       4.627   4.753  16.693  0.00  0.00    +0.000 C 
BRANCH  32  33
ATOM     33  N   UNL     1       5.466   5.781  16.022  0.00  0.00    +0.000 NA
ATOM     34  C   UNL     1       5.650   6.981  16.868  0.00  0.00    +0.000 C 
ATOM     35  C   UNL     1       7.002   6.447  17.388  0.00  0.00    +0.000 C 
ATOM     36  C   UNL     1       7.973   7.616  17.528  0.00  0.00    +0.000 C 
ATOM     37  C   UNL     1       6.928   5.514  16.132  0.00  0.00    +0.000 C 
BRANCH  36  38
ATOM     38  C   UNL     1       7.014   5.677  18.622  0.00  0.00    +0.000 C 
ATOM     39  N   UNL     1       6.868   5.161  19.651  0.00  0.00    +0.000 NA
ENDBRANCH  36  38
ENDBRANCH  32  33
ENDBRANCH   6  32
TORSDOF 8
ENDMDL
