MODEL 1
REMARK VINA RESULT:      -9.5      0.000      0.000
REMARK  Name = 
REMARK  9 active torsions:
REMARK  status: ('A' for Active; 'I' for Inactive)
REMARK    1  A    between atoms: C_1  and  N_2
REMARK    2  A    between atoms: C_6  and  C_7
REMARK    3  A    between atoms: C_7  and  C_8
REMARK    4  A    between atoms: C_8  and  C_9
REMARK    5  A    between atoms: C_13  and  N_14
REMARK    6  A    between atoms: C_19  and  C_20
REMARK    7  A    between atoms: C_20  and  N_21
REMARK    8  A    between atoms: C_24  and  C_25
REMARK    9  A    between atoms: C_30  and  C_31
REMARK                            x       y       z     vdW  Elec       q    Type
REMARK                         _______ _______ _______ _____ _____    ______ ____
ROOT
ATOM      1  N   UNL     1       2.199   7.440  19.012  0.00  0.00    +0.000 N 
ATOM      2  C   UNL     1       1.492   7.794  20.215  0.00  0.00    +0.000 C 
ATOM      3  C   UNL     1       1.144   9.218  20.036  0.00  0.00    +0.000 A 
ATOM      4  C   UNL     1       1.515   9.650  18.768  0.00  0.00    +0.000 A 
ATOM      5  C   UNL     1       1.167  10.929  18.337  0.00  0.00    +0.000 A 
ATOM      6  C   UNL     1       0.459  11.774  19.233  0.00  0.00    +0.000 A 
ATOM      7  C   UNL     1       0.154  11.307  20.540  0.00  0.00    +0.000 A 
ATOM      8  C   UNL     1       0.500  10.023  20.966  0.00  0.00    +0.000 A 
ATOM      9  C   UNL     1       2.283   8.523  18.134  0.00  0.00    +0.000 C 
ATOM     10  O   UNL     1       2.849   8.608  17.060  0.00  0.00    +0.000 OA
ENDROOT
BRANCH   1  15
ATOM     11  C   UNL     1       4.515   4.775  17.775  0.00  0.00    +0.000 A 
ATOM     12  C   UNL     1       4.060   3.690  18.533  0.00  0.00    +0.000 A 
ATOM     13  C   UNL     1       3.089   3.855  19.544  0.00  0.00    +0.000 A 
ATOM     14  C   UNL     1       2.512   5.108  19.812  0.00  0.00    +0.000 A 
ATOM     15  C   UNL     1       2.890   6.195  19.047  0.00  0.00    +0.000 A 
ATOM     16  C   UNL     1       3.928   6.009  18.102  0.00  0.00    +0.000 A 
BRANCH  11  17
ATOM     17  C   UNL     1       5.579   4.709  16.555  0.00  0.00    +0.000 C 
ATOM     18  C   UNL     1       5.230   5.566  15.292  0.00  0.00    +0.000 C 
ATOM     19  O   UNL     1       5.178   4.403  14.442  0.00  0.00    +0.000 OA
ATOM     20  C   UNL     1       5.467   3.530  15.550  0.00  0.00    +0.000 C 
BRANCH  17  21
ATOM     21  C   UNL     1       7.026   4.850  17.069  0.00  0.00    +0.000 C 
BRANCH  21  27
ATOM     22  C   UNL     1       8.087   5.732  19.912  0.00  0.00    +0.000 C 
ATOM     23  N   UNL     1       7.940   6.555  18.743  0.00  0.00    +0.000 N 
ATOM     24  C   UNL     1       8.326   7.858  18.650  0.00  0.00    +0.000 A 
ATOM     25  N   UNL     1       8.003   8.327  17.470  0.00  0.00    +0.000 NA
ATOM     26  N   UNL     1       7.431   7.301  16.758  0.00  0.00    +0.000 NA
ATOM     27  C   UNL     1       7.421   6.221  17.515  0.00  0.00    +0.000 A 
ENDBRANCH  21  27
ENDBRANCH  17  21
ENDBRANCH  11  17
ENDBRANCH   1  15
BRANCH   8  28
ATOM     28  C   UNL     1       0.197   9.540  22.364  0.00  0.00    +0.000 C 
ATOM     29  F   UNL     1       1.295   9.123  23.056  0.00  0.00    +0.000 F 
ATOM     30  F   UNL     1      -0.365  10.509  23.137  0.00  0.00    +0.000 F 
ATOM     31  F   UNL     1      -0.661   8.487  22.381  0.00  0.00    +0.000 F 
ENDBRANCH   8  28
BRANCH   6  32
ATOM     32  C   UNL     1      -0.065  13.157  18.834  0.00  0.00    +0.000 C 
BRANCH  32  33
ATOM     33  N   UNL     1       0.196  14.175  19.865  0.00  0.00    +0.000 NA
ATOM     34  C   UNL     1       1.597  14.595  19.959  0.00  0.00    +0.000 C 
ATOM     35  C   UNL     1       2.038  15.567  18.864  0.00  0.00    +0.000 C 
ATOM     36  C   UNL     1       1.094  16.762  18.726  0.00  0.00    +0.000 C 
ATOM     37  C   UNL     1       1.423  17.577  17.476  0.00  0.00    +0.000 C 
ATOM     38  F   UNL     1       1.295  17.578  19.806  0.00  0.00    +0.000 F 
ATOM     39  C   UNL     1      -0.376  16.347  18.721  0.00  0.00    +0.000 C 
ATOM     40  C   UNL     1      -0.691  15.342  19.826  0.00  0.00    +0.000 C 
ENDBRANCH  32  33
ENDBRANCH   6  32
TORSDOF 7
ENDMDL
MODEL 2
REMARK VINA RESULT:      -9.3      1.474      2.407
REMARK  Name = 
REMARK  9 active torsions:
REMARK  status: ('A' for Active; 'I' for Inactive)
REMARK    1  A    between atoms: C_1  and  N_2
REMARK    2  A    between atoms: C_6  and  C_7
REMARK    3  A    between atoms: C_7  and  C_8
REMARK    4  A    between atoms: C_8  and  C_9
REMARK    5  A    between atoms: C_13  and  N_14
REMARK    6  A    between atoms: C_19  and  C_20
REMARK    7  A    between atoms: C_20  and  N_21
REMARK    8  A    between atoms: C_24  and  C_25
REMARK    9  A    between atoms: C_30  and  C_31
REMARK                            x       y       z     vdW  Elec       q    Type
REMARK                         _______ _______ _______ _____ _____    ______ ____
ROOT
ATOM      1  N   UNL     1       2.258   7.464  19.379  0.00  0.00    +0.000 N 
ATOM      2  C   UNL     1       1.497   7.834  20.544  0.00  0.00    +0.000 C 
ATOM      3  C   UNL     1       1.091   9.230  20.294  0.00  0.00    +0.000 A 
ATOM      4  C   UNL     1       1.483   9.627  19.020  0.00  0.00    +0.000 A 
ATOM      5  C   UNL     1       1.091  10.870  18.525  0.00  0.00    +0.000 A 
ATOM      6  C   UNL     1       0.317  11.716  19.362  0.00  0.00    +0.000 A 
ATOM      7  C   UNL     1      -0.008  11.290  20.678  0.00  0.00    +0.000 A 
ATOM      8  C   UNL     1       0.381  10.042  21.169  0.00  0.00    +0.000 A 
ATOM      9  C   UNL     1       2.321   8.513  18.459  0.00  0.00    +0.000 C 
ATOM     10  O   UNL     1       2.917   8.580  17.400  0.00  0.00    +0.000 OA
ENDROOT
BRANCH   1  15
ATOM     11  C   UNL     1       5.197   5.199  18.896  0.00  0.00    +0.000 A 
ATOM     12  C   UNL     1       4.580   3.959  19.103  0.00  0.00    +0.000 A 
ATOM     13  C   UNL     1       3.239   3.866  19.531  0.00  0.00    +0.000 A 
ATOM     14  C   UNL     1       2.452   5.012  19.738  0.00  0.00    +0.000 A 
ATOM     15  C   UNL     1       3.004   6.254  19.488  0.00  0.00    +0.000 A 
ATOM     16  C   UNL     1       4.376   6.312  19.144  0.00  0.00    +0.000 A 
BRANCH  11  17
ATOM     17  C   UNL     1       6.705   5.439  18.354  0.00  0.00    +0.000 C 
ATOM     18  C   UNL     1       7.758   5.874  19.427  0.00  0.00    +0.000 C 
ATOM     19  O   UNL     1       8.020   7.121  18.753  0.00  0.00    +0.000 OA
ATOM     20  C   UNL     1       7.047   6.821  17.734  0.00  0.00    +0.000 C 
BRANCH  17  21
ATOM     21  C   UNL     1       7.149   4.298  17.418  0.00  0.00    +0.000 C 
BRANCH  21  27
ATOM     22  C   UNL     1       4.530   3.534  15.822  0.00  0.00    +0.000 C 
ATOM     23  N   UNL     1       5.689   4.220  15.319  0.00  0.00    +0.000 N 
ATOM     24  C   UNL     1       5.806   4.739  14.065  0.00  0.00    +0.000 A 
ATOM     25  N   UNL     1       7.004   5.250  13.914  0.00  0.00    +0.000 NA
ATOM     26  N   UNL     1       7.672   5.101  15.106  0.00  0.00    +0.000 NA
ATOM     27  C   UNL     1       6.866   4.508  15.966  0.00  0.00    +0.000 A 
ENDBRANCH  21  27
ENDBRANCH  17  21
ENDBRANCH  11  17
ENDBRANCH   1  15
BRANCH   8  28
ATOM     28  C   UNL     1       0.055   9.604  22.577  0.00  0.00    +0.000 C 
ATOM     29  F   UNL     1      -0.567  10.560  23.324  0.00  0.00    +0.000 F 
ATOM     30  F   UNL     1      -0.780   8.529  22.604  0.00  0.00    +0.000 F 
ATOM     31  F   UNL     1       1.159   9.254  23.286  0.00  0.00    +0.000 F 
ENDBRANCH   8  28
BRANCH   6  32
ATOM     32  C   UNL     1      -0.257  13.056  18.889  0.00  0.00    +0.000 C 
BRANCH  32  33
ATOM     33  N   UNL     1      -0.097  14.121  19.893  0.00  0.00    +0.000 NA
ATOM     34  C   UNL     1       1.295  14.477  20.182  0.00  0.00    +0.000 C 
ATOM     35  C   UNL     1       1.952  15.358  19.119  0.00  0.00    +0.000 C 
ATOM     36  C   UNL     1       1.111  16.587  18.774  0.00  0.00    +0.000 C 
ATOM     37  C   UNL     1       1.673  17.308  17.549  0.00  0.00    +0.000 C 
ATOM     38  F   UNL     1       1.192  17.456  19.828  0.00  0.00    +0.000 F 
ATOM     39  C   UNL     1      -0.363  16.245  18.563  0.00  0.00    +0.000 C 
ATOM     40  C   UNL     1      -0.900  15.325  19.656  0.00  0.00    +0.000 C 
ENDBRANCH  32  33
ENDBRANCH   6  32
TORSDOF 7
ENDMDL
MODEL 3
REMARK VINA RESULT:      -9.3      3.346      9.096
REMARK  Name = 
REMARK  9 active torsions:
REMARK  status: ('A' for Active; 'I' for Inactive)
REMARK    1  A    between atoms: C_1  and  N_2
REMARK    2  A    between atoms: C_6  and  C_7
REMARK    3  A    between atoms: C_7  and  C_8
REMARK    4  A    between atoms: C_8  and  C_9
REMARK    5  A    between atoms: C_13  and  N_14
REMARK    6  A    between atoms: C_19  and  C_20
REMARK    7  A    between atoms: C_20  and  N_21
REMARK    8  A    between atoms: C_24  and  C_25
REMARK    9  A    between atoms: C_30  and  C_31
REMARK                            x       y       z     vdW  Elec       q    Type
REMARK                         _______ _______ _______ _____ _____    ______ ____
ROOT
ATOM      1  N   UNL     1       1.382   8.053  20.305  0.00  0.00    +0.000 N 
ATOM      2  C   UNL     1       1.446   6.700  20.792  0.00  0.00    +0.000 C 
ATOM      3  C   UNL     1       2.121   5.949  19.716  0.00  0.00    +0.000 A 
ATOM      4  C   UNL     1       2.534   6.814  18.709  0.00  0.00    +0.000 A 
ATOM      5  C   UNL     1       3.306   6.336  17.651  0.00  0.00    +0.000 A 
ATOM      6  C   UNL     1       3.626   4.952  17.620  0.00  0.00    +0.000 A 
ATOM      7  C   UNL     1       3.130   4.098  18.642  0.00  0.00    +0.000 A 
ATOM      8  C   UNL     1       2.361   4.582  19.702  0.00  0.00    +0.000 A 
ATOM      9  C   UNL     1       1.975   8.168  19.045  0.00  0.00    +0.000 C 
ATOM     10  O   UNL     1       2.056   9.136  18.313  0.00  0.00    +0.000 OA
ENDROOT
BRANCH   1  15
ATOM     11  C   UNL     1      -0.744  11.082  20.856  0.00  0.00    +0.000 A 
ATOM     12  C   UNL     1      -0.778  11.099  22.255  0.00  0.00    +0.000 A 
ATOM     13  C   UNL     1      -0.223  10.051  23.018  0.00  0.00    +0.000 A 
ATOM     14  C   UNL     1       0.419   8.958  22.409  0.00  0.00    +0.000 A 
ATOM     15  C   UNL     1       0.528   8.931  21.032  0.00  0.00    +0.000 A 
ATOM     16  C   UNL     1      -0.117   9.956  20.297  0.00  0.00    +0.000 A 
BRANCH  11  17
ATOM     17  C   UNL     1      -1.294  12.245  19.871  0.00  0.00    +0.000 C 
ATOM     18  C   UNL     1      -2.782  12.104  19.407  0.00  0.00    +0.000 C 
ATOM     19  O   UNL     1      -2.404  12.018  18.018  0.00  0.00    +0.000 OA
ATOM     20  C   UNL     1      -1.006  12.112  18.350  0.00  0.00    +0.000 C 
BRANCH  17  21
ATOM     21  C   UNL     1      -0.891  13.644  20.381  0.00  0.00    +0.000 C 
BRANCH  21  27
ATOM     22  C   UNL     1      -0.304  16.185  18.595  0.00  0.00    +0.000 C 
ATOM     23  N   UNL     1       0.657  15.292  19.186  0.00  0.00    +0.000 N 
ATOM     24  C   UNL     1       2.009  15.456  19.138  0.00  0.00    +0.000 A 
ATOM     25  N   UNL     1       2.593  14.441  19.727  0.00  0.00    +0.000 NA
ATOM     26  N   UNL     1       1.606  13.615  20.207  0.00  0.00    +0.000 NA
ATOM     27  C   UNL     1       0.435  14.145  19.909  0.00  0.00    +0.000 A 
ENDBRANCH  21  27
ENDBRANCH  17  21
ENDBRANCH  11  17
ENDBRANCH   1  15
BRANCH   8  28
ATOM     28  C   UNL     1       1.816   3.666  20.772  0.00  0.00    +0.000 C 
ATOM     29  F   UNL     1       2.244   3.968  22.031  0.00  0.00    +0.000 F 
ATOM     30  F   UNL     1       0.457   3.699  20.839  0.00  0.00    +0.000 F 
ATOM     31  F   UNL     1       2.161   2.367  20.576  0.00  0.00    +0.000 F 
ENDBRANCH   8  28
BRANCH   6  32
ATOM     32  C   UNL     1       4.551   4.335  16.567  0.00  0.00    +0.000 C 
BRANCH  32  33
ATOM     33  N   UNL     1       5.901   4.069  17.091  0.00  0.00    +0.000 NA
ATOM     34  C   UNL     1       6.988   4.534  16.226  0.00  0.00    +0.000 C 
ATOM     35  C   UNL     1       7.242   6.041  16.289  0.00  0.00    +0.000 C 
ATOM     36  C   UNL     1       7.400   6.549  17.723  0.00  0.00    +0.000 C 
ATOM     37  C   UNL     1       7.408   8.077  17.763  0.00  0.00    +0.000 C 
ATOM     38  F   UNL     1       8.616   6.125  18.184  0.00  0.00    +0.000 F 
ATOM     39  C   UNL     1       6.326   5.997  18.659  0.00  0.00    +0.000 C 
ATOM     40  C   UNL     1       6.125   4.495  18.477  0.00  0.00    +0.000 C 
ENDBRANCH  32  33
ENDBRANCH   6  32
TORSDOF 7
ENDMDL
MODEL 4
REMARK VINA RESULT:      -9.2      3.667      9.882
REMARK  Name = 
REMARK  9 active torsions:
REMARK  status: ('A' for Active; 'I' for Inactive)
REMARK    1  A    between atoms: C_1  and  N_2
REMARK    2  A    between atoms: C_6  and  C_7
REMARK    3  A    between atoms: C_7  and  C_8
REMARK    4  A    between atoms: C_8  and  C_9
REMARK    5  A    between atoms: C_13  and  N_14
REMARK    6  A    between atoms: C_19  and  C_20
REMARK    7  A    between atoms: C_20  and  N_21
REMARK    8  A    between atoms: C_24  and  C_25
REMARK    9  A    between atoms: C_30  and  C_31
REMARK                            x       y       z     vdW  Elec       q    Type
REMARK                         _______ _______ _______ _____ _____    ______ ____
ROOT
ATOM      1  N   UNL     1       1.284   8.198  20.384  0.00  0.00    +0.000 N 
ATOM      2  C   UNL     1       1.354   6.832  20.834  0.00  0.00    +0.000 C 
ATOM      3  C   UNL     1       2.027   6.112  19.736  0.00  0.00    +0.000 A 
ATOM      4  C   UNL     1       2.435   7.005  18.752  0.00  0.00    +0.000 A 
ATOM      5  C   UNL     1       3.205   6.557  17.680  0.00  0.00    +0.000 A 
ATOM      6  C   UNL     1       3.528   5.176  17.611  0.00  0.00    +0.000 A 
ATOM      7  C   UNL     1       3.038   4.293  18.610  0.00  0.00    +0.000 A 
ATOM      8  C   UNL     1       2.271   4.746  19.686  0.00  0.00    +0.000 A 
ATOM      9  C   UNL     1       1.873   8.348  19.126  0.00  0.00    +0.000 C 
ATOM     10  O   UNL     1       1.949   9.336  18.419  0.00  0.00    +0.000 OA
ENDROOT
BRANCH   1  15
ATOM     11  C   UNL     1      -0.872  11.190  21.012  0.00  0.00    +0.000 A 
ATOM     12  C   UNL     1      -0.886  11.186  22.412  0.00  0.00    +0.000 A 
ATOM     13  C   UNL     1      -0.306  10.133  23.151  0.00  0.00    +0.000 A 
ATOM     14  C   UNL     1       0.341   9.058  22.516  0.00  0.00    +0.000 A 
ATOM     15  C   UNL     1       0.430   9.053  21.137  0.00  0.00    +0.000 A 
ATOM     16  C   UNL     1      -0.239  10.080  20.427  0.00  0.00    +0.000 A 
BRANCH  11  17
ATOM     17  C   UNL     1      -1.451  12.361  20.054  0.00  0.00    +0.000 C 
ATOM     18  C   UNL     1      -2.043  11.894  18.682  0.00  0.00    +0.000 C 
ATOM     19  O   UNL     1      -1.079  12.664  17.935  0.00  0.00    +0.000 OA
ATOM     20  C   UNL     1      -0.449  13.124  19.145  0.00  0.00    +0.000 C 
BRANCH  17  21
ATOM     21  C   UNL     1      -2.327  13.350  20.848  0.00  0.00    +0.000 C 
BRANCH  21  27
ATOM     22  C   UNL     1      -3.940  12.704  23.488  0.00  0.00    +0.000 C 
ATOM     23  N   UNL     1      -4.453  12.766  22.146  0.00  0.00    +0.000 N 
ATOM     24  C   UNL     1      -5.765  12.638  21.804  0.00  0.00    +0.000 A 
ATOM     25  N   UNL     1      -5.883  12.691  20.499  0.00  0.00    +0.000 NA
ATOM     26  N   UNL     1      -4.630  12.900  19.977  0.00  0.00    +0.000 NA
ATOM     27  C   UNL     1      -3.769  12.978  20.973  0.00  0.00    +0.000 A 
ENDBRANCH  21  27
ENDBRANCH  17  21
ENDBRANCH  11  17
ENDBRANCH   1  15
BRANCH   8  28
ATOM     28  C   UNL     1       1.731   3.800  20.732  0.00  0.00    +0.000 C 
ATOM     29  F   UNL     1       2.176   4.060  21.995  0.00  0.00    +0.000 F 
ATOM     30  F   UNL     1       0.374   3.841  20.816  0.00  0.00    +0.000 F 
ATOM     31  F   UNL     1       2.065   2.506  20.491  0.00  0.00    +0.000 F 
ENDBRANCH   8  28
BRANCH   6  32
ATOM     32  C   UNL     1       4.452   4.590  16.538  0.00  0.00    +0.000 C 
BRANCH  32  33
ATOM     33  N   UNL     1       5.711   4.076  17.102  0.00  0.00    +0.000 NA
ATOM     34  C   UNL     1       6.903   4.398  16.313  0.00  0.00    +0.000 C 
ATOM     35  C   UNL     1       7.397   5.836  16.479  0.00  0.00    +0.000 C 
ATOM     36  C   UNL     1       7.561   6.233  17.947  0.00  0.00    +0.000 C 
ATOM     37  C   UNL     1       7.818   7.734  18.081  0.00  0.00    +0.000 C 
ATOM     38  F   UNL     1       8.666   5.588  18.432  0.00  0.00    +0.000 F 
ATOM     39  C   UNL     1       6.365   5.819  18.801  0.00  0.00    +0.000 C 
ATOM     40  C   UNL     1       5.930   4.383  18.519  0.00  0.00    +0.000 C 
ENDBRANCH  32  33
ENDBRANCH   6  32
TORSDOF 7
ENDMDL
MODEL 5
REMARK VINA RESULT:      -9.2      0.621      1.010
REMARK  Name = 
REMARK  9 active torsions:
REMARK  status: ('A' for Active; 'I' for Inactive)
REMARK    1  A    between atoms: C_1  and  N_2
REMARK    2  A    between atoms: C_6  and  C_7
REMARK    3  A    between atoms: C_7  and  C_8
REMARK    4  A    between atoms: C_8  and  C_9
REMARK    5  A    between atoms: C_13  and  N_14
REMARK    6  A    between atoms: C_19  and  C_20
REMARK    7  A    between atoms: C_20  and  N_21
REMARK    8  A    between atoms: C_24  and  C_25
REMARK    9  A    between atoms: C_30  and  C_31
REMARK                            x       y       z     vdW  Elec       q    Type
REMARK                         _______ _______ _______ _____ _____    ______ ____
ROOT
ATOM      1  N   UNL     1       2.186   7.410  19.068  0.00  0.00    +0.000 N 
ATOM      2  C   UNL     1       1.496   7.742  20.287  0.00  0.00    +0.000 C 
ATOM      3  C   UNL     1       1.127   9.162  20.131  0.00  0.00    +0.000 A 
ATOM      4  C   UNL     1       1.469   9.613  18.861  0.00  0.00    +0.000 A 
ATOM      5  C   UNL     1       1.097  10.892  18.451  0.00  0.00    +0.000 A 
ATOM      6  C   UNL     1       0.395  11.717  19.369  0.00  0.00    +0.000 A 
ATOM      7  C   UNL     1       0.120  11.232  20.676  0.00  0.00    +0.000 A 
ATOM      8  C   UNL     1       0.490   9.948  21.081  0.00  0.00    +0.000 A 
ATOM      9  C   UNL     1       2.240   8.504  18.201  0.00  0.00    +0.000 C 
ATOM     10  O   UNL     1       2.784   8.607  17.118  0.00  0.00    +0.000 OA
ENDROOT
BRANCH   1  15
ATOM     11  C   UNL     1       4.520   4.793  17.764  0.00  0.00    +0.000 A 
ATOM     12  C   UNL     1       4.088   3.692  18.512  0.00  0.00    +0.000 A 
ATOM     13  C   UNL     1       3.128   3.829  19.537  0.00  0.00    +0.000 A 
ATOM     14  C   UNL     1       2.538   5.071  19.830  0.00  0.00    +0.000 A 
ATOM     15  C   UNL     1       2.893   6.173  19.076  0.00  0.00    +0.000 A 
ATOM     16  C   UNL     1       3.922   6.014  18.116  0.00  0.00    +0.000 A 
BRANCH  11  17
ATOM     17  C   UNL     1       5.570   4.759  16.530  0.00  0.00    +0.000 C 
ATOM     18  C   UNL     1       5.199   5.636  15.288  0.00  0.00    +0.000 C 
ATOM     19  O   UNL     1       5.146   4.489  14.417  0.00  0.00    +0.000 OA
ATOM     20  C   UNL     1       5.455   3.598  15.505  0.00  0.00    +0.000 C 
BRANCH  17  21
ATOM     21  C   UNL     1       7.022   4.902  17.029  0.00  0.00    +0.000 C 
BRANCH  21  27
ATOM     22  C   UNL     1       8.137   5.715  19.873  0.00  0.00    +0.000 C 
ATOM     23  N   UNL     1       7.951   6.570  18.732  0.00  0.00    +0.000 N 
ATOM     24  C   UNL     1       8.317   7.881  18.669  0.00  0.00    +0.000 A 
ATOM     25  N   UNL     1       7.959   8.380  17.511  0.00  0.00    +0.000 NA
ATOM     26  N   UNL     1       7.385   7.366  16.782  0.00  0.00    +0.000 NA
ATOM     27  C   UNL     1       7.409   6.264  17.507  0.00  0.00    +0.000 A 
ENDBRANCH  21  27
ENDBRANCH  17  21
ENDBRANCH  11  17
ENDBRANCH   1  15
BRANCH   8  28
ATOM     28  C   UNL     1       0.218   9.447  22.479  0.00  0.00    +0.000 C 
ATOM     29  F   UNL     1       1.330   9.005  23.135  0.00  0.00    +0.000 F 
ATOM     30  F   UNL     1      -0.311  10.409  23.282  0.00  0.00    +0.000 F 
ATOM     31  F   UNL     1      -0.651   8.403  22.502  0.00  0.00    +0.000 F 
ENDBRANCH   8  28
BRANCH   6  32
ATOM     32  C   UNL     1      -0.154  13.098  18.995  0.00  0.00    +0.000 C 
BRANCH  32  33
ATOM     33  N   UNL     1       0.569  14.191  19.666  0.00  0.00    +0.000 NA
ATOM     34  C   UNL     1       0.923  15.310  18.789  0.00  0.00    +0.000 C 
ATOM     35  C   UNL     1      -0.239  16.253  18.472  0.00  0.00    +0.000 C 
ATOM     36  C   UNL     1      -0.971  16.724  19.729  0.00  0.00    +0.000 C 
ATOM     37  C   UNL     1      -2.260  17.460  19.367  0.00  0.00    +0.000 C 
ATOM     38  F   UNL     1      -0.160  17.620  20.371  0.00  0.00    +0.000 F 
ATOM     39  C   UNL     1      -1.263  15.580  20.698  0.00  0.00    +0.000 C 
ATOM     40  C   UNL     1      -0.049  14.678  20.903  0.00  0.00    +0.000 C 
ENDBRANCH  32  33
ENDBRANCH   6  32
TORSDOF 7
ENDMDL
MODEL 6
REMARK VINA RESULT:      -9.2      1.626      2.509
REMARK  Name = 
REMARK  9 active torsions:
REMARK  status: ('A' for Active; 'I' for Inactive)
REMARK    1  A    between atoms: C_1  and  N_2
REMARK    2  A    between atoms: C_6  and  C_7
REMARK    3  A    between atoms: C_7  and  C_8
REMARK    4  A    between atoms: C_8  and  C_9
REMARK    5  A    between atoms: C_13  and  N_14
REMARK    6  A    between atoms: C_19  and  C_20
REMARK    7  A    between atoms: C_20  and  N_21
REMARK    8  A    between atoms: C_24  and  C_25
REMARK    9  A    between atoms: C_30  and  C_31
REMARK                            x       y       z     vdW  Elec       q    Type
REMARK                         _______ _______ _______ _____ _____    ______ ____
ROOT
ATOM      1  N   UNL     1       2.020   7.579  18.919  0.00  0.00    +0.000 N 
ATOM      2  C   UNL     1       1.351   7.905  20.152  0.00  0.00    +0.000 C 
ATOM      3  C   UNL     1       1.134   9.363  20.083  0.00  0.00    +0.000 A 
ATOM      4  C   UNL     1       1.540   9.854  18.847  0.00  0.00    +0.000 A 
ATOM      5  C   UNL     1       1.309  11.188  18.516  0.00  0.00    +0.000 A 
ATOM      6  C   UNL     1       0.683  12.024  19.479  0.00  0.00    +0.000 A 
ATOM      7  C   UNL     1       0.341  11.490  20.751  0.00  0.00    +0.000 A 
ATOM      8  C   UNL     1       0.569  10.152  21.077  0.00  0.00    +0.000 A 
ATOM      9  C   UNL     1       2.200   8.713  18.124  0.00  0.00    +0.000 C 
ATOM     10  O   UNL     1       2.768   8.827  17.054  0.00  0.00    +0.000 OA
ENDROOT
BRANCH   1  15
ATOM     11  C   UNL     1       4.434   4.956  17.785  0.00  0.00    +0.000 A 
ATOM     12  C   UNL     1       3.711   3.804  18.119  0.00  0.00    +0.000 A 
ATOM     13  C   UNL     1       2.497   3.879  18.835  0.00  0.00    +0.000 A 
ATOM     14  C   UNL     1       1.943   5.113  19.216  0.00  0.00    +0.000 A 
ATOM     15  C   UNL     1       2.594   6.277  18.854  0.00  0.00    +0.000 A 
ATOM     16  C   UNL     1       3.852   6.160  18.214  0.00  0.00    +0.000 A 
BRANCH  11  17
ATOM     17  C   UNL     1       5.805   5.008  16.923  0.00  0.00    +0.000 C 
ATOM     18  C   UNL     1       7.114   4.631  17.693  0.00  0.00    +0.000 C 
ATOM     19  O   UNL     1       7.695   5.932  17.465  0.00  0.00    +0.000 OA
ATOM     20  C   UNL     1       6.518   6.379  16.766  0.00  0.00    +0.000 C 
BRANCH  17  21
ATOM     21  C   UNL     1       5.627   4.328  15.551  0.00  0.00    +0.000 C 
BRANCH  21  27
ATOM     22  C   UNL     1       5.757   3.363  12.544  0.00  0.00    +0.000 C 
ATOM     23  N   UNL     1       6.643   4.284  13.204  0.00  0.00    +0.000 N 
ATOM     24  C   UNL     1       7.652   4.969  12.597  0.00  0.00    +0.000 A 
ATOM     25  N   UNL     1       8.297   5.679  13.490  0.00  0.00    +0.000 NA
ATOM     26  N   UNL     1       7.674   5.490  14.700  0.00  0.00    +0.000 NA
ATOM     27  C   UNL     1       6.654   4.672  14.522  0.00  0.00    +0.000 A 
ENDBRANCH  21  27
ENDBRANCH  17  21
ENDBRANCH  11  17
ENDBRANCH   1  15
BRANCH   8  28
ATOM     28  C   UNL     1       0.227   9.595  22.438  0.00  0.00    +0.000 C 
ATOM     29  F   UNL     1       1.305   9.132  23.133  0.00  0.00    +0.000 F 
ATOM     30  F   UNL     1      -0.349  10.524  23.248  0.00  0.00    +0.000 F 
ATOM     31  F   UNL     1      -0.638   8.549  22.374  0.00  0.00    +0.000 F 
ENDBRANCH   8  28
BRANCH   6  32
ATOM     32  C   UNL     1       0.287  13.475  19.189  0.00  0.00    +0.000 C 
BRANCH  32  33
ATOM     33  N   UNL     1       1.063  14.440  19.987  0.00  0.00    +0.000 NA
ATOM     34  C   UNL     1       2.508  14.392  19.756  0.00  0.00    +0.000 C 
ATOM     35  C   UNL     1       2.962  15.072  18.463  0.00  0.00    +0.000 C 
ATOM     36  C   UNL     1       2.410  16.491  18.323  0.00  0.00    +0.000 C 
ATOM     37  C   UNL     1       2.678  17.045  16.924  0.00  0.00    +0.000 C 
ATOM     38  F   UNL     1       3.081  17.287  19.210  0.00  0.00    +0.000 F 
ATOM     39  C   UNL     1       0.921  16.573  18.653  0.00  0.00    +0.000 C 
ATOM     40  C   UNL     1       0.576  15.822  19.936  0.00  0.00    +0.000 C 
ENDBRANCH  32  33
ENDBRANCH   6  32
TORSDOF 7
ENDMDL
MODEL 7
REMARK VINA RESULT:      -9.1      3.413      9.333
REMARK  Name = 
REMARK  9 active torsions:
REMARK  status: ('A' for Active; 'I' for Inactive)
REMARK    1  A    between atoms: C_1  and  N_2
REMARK    2  A    between atoms: C_6  and  C_7
REMARK    3  A    between atoms: C_7  and  C_8
REMARK    4  A    between atoms: C_8  and  C_9
REMARK    5  A    between atoms: C_13  and  N_14
REMARK    6  A    between atoms: C_19  and  C_20
REMARK    7  A    between atoms: C_20  and  N_21
REMARK    8  A    between atoms: C_24  and  C_25
REMARK    9  A    between atoms: C_30  and  C_31
REMARK                            x       y       z     vdW  Elec       q    Type
REMARK                         _______ _______ _______ _____ _____    ______ ____
ROOT
ATOM      1  N   UNL     1       1.332   8.137  20.337  0.00  0.00    +0.000 N 
ATOM      2  C   UNL     1       1.403   6.780  20.813  0.00  0.00    +0.000 C 
ATOM      3  C   UNL     1       2.067   6.038  19.724  0.00  0.00    +0.000 A 
ATOM      4  C   UNL     1       2.469   6.912  18.720  0.00  0.00    +0.000 A 
ATOM      5  C   UNL     1       3.230   6.442  17.650  0.00  0.00    +0.000 A 
ATOM      6  C   UNL     1       3.551   5.060  17.605  0.00  0.00    +0.000 A 
ATOM      7  C   UNL     1       3.066   4.197  18.625  0.00  0.00    +0.000 A 
ATOM      8  C   UNL     1       2.308   4.671  19.697  0.00  0.00    +0.000 A 
ATOM      9  C   UNL     1       1.912   8.263  19.072  0.00  0.00    +0.000 C 
ATOM     10  O   UNL     1       1.984   9.237  18.347  0.00  0.00    +0.000 OA
ENDROOT
BRANCH   1  15
ATOM     11  C   UNL     1      -0.515  11.305  21.078  0.00  0.00    +0.000 A 
ATOM     12  C   UNL     1      -0.738  11.137  22.450  0.00  0.00    +0.000 A 
ATOM     13  C   UNL     1      -0.407   9.934  23.108  0.00  0.00    +0.000 A 
ATOM     14  C   UNL     1       0.193   8.862  22.423  0.00  0.00    +0.000 A 
ATOM     15  C   UNL     1       0.485   9.009  21.080  0.00  0.00    +0.000 A 
ATOM     16  C   UNL     1       0.059  10.195  20.436  0.00  0.00    +0.000 A 
BRANCH  11  17
ATOM     17  C   UNL     1      -0.798  12.650  20.221  0.00  0.00    +0.000 C 
ATOM     18  C   UNL     1      -1.822  12.511  19.044  0.00  0.00    +0.000 C 
ATOM     19  O   UNL     1      -0.834  12.880  18.061  0.00  0.00    +0.000 OA
ATOM     20  C   UNL     1       0.184  13.005  19.071  0.00  0.00    +0.000 C 
BRANCH  17  21
ATOM     21  C   UNL     1      -1.016  13.865  21.144  0.00  0.00    +0.000 C 
BRANCH  21  27
ATOM     22  C   UNL     1      -0.328  16.760  20.079  0.00  0.00    +0.000 C 
ATOM     23  N   UNL     1       0.437  15.966  21.002  0.00  0.00    +0.000 N 
ATOM     24  C   UNL     1       1.563  16.383  21.645  0.00  0.00    +0.000 A 
ATOM     25  N   UNL     1       2.041  15.401  22.370  0.00  0.00    +0.000 NA
ATOM     26  N   UNL     1       1.189  14.331  22.234  0.00  0.00    +0.000 NA
ATOM     27  C   UNL     1       0.202  14.682  21.433  0.00  0.00    +0.000 A 
ENDBRANCH  21  27
ENDBRANCH  17  21
ENDBRANCH  11  17
ENDBRANCH   1  15
BRANCH   8  28
ATOM     28  C   UNL     1       1.775   3.747  20.765  0.00  0.00    +0.000 C 
ATOM     29  F   UNL     1       2.146   2.444  20.604  0.00  0.00    +0.000 F 
ATOM     30  F   UNL     1       2.204   4.090  22.010  0.00  0.00    +0.000 F 
ATOM     31  F   UNL     1       0.417   3.731  20.815  0.00  0.00    +0.000 F 
ENDBRANCH   8  28
BRANCH   6  32
ATOM     32  C   UNL     1       4.465   4.452  16.537  0.00  0.00    +0.000 C 
BRANCH  32  33
ATOM     33  N   UNL     1       5.770   4.040  17.082  0.00  0.00    +0.000 NA
ATOM     34  C   UNL     1       6.918   4.420  16.256  0.00  0.00    +0.000 C 
ATOM     35  C   UNL     1       7.317   5.892  16.369  0.00  0.00    +0.000 C 
ATOM     36  C   UNL     1       7.487   6.342  17.820  0.00  0.00    +0.000 C 
ATOM     37  C   UNL     1       7.644   7.860  17.906  0.00  0.00    +0.000 C 
ATOM     38  F   UNL     1       8.644   5.788  18.295  0.00  0.00    +0.000 F 
ATOM     39  C   UNL     1       6.342   5.873  18.716  0.00  0.00    +0.000 C 
ATOM     40  C   UNL     1       6.000   4.403  18.485  0.00  0.00    +0.000 C 
ENDBRANCH  32  33
ENDBRANCH   6  32
TORSDOF 7
ENDMDL
MODEL 8
REMARK VINA RESULT:      -9.1      0.795      1.460
REMARK  Name = 
REMARK  9 active torsions:
REMARK  status: ('A' for Active; 'I' for Inactive)
REMARK    1  A    between atoms: C_1  and  N_2
REMARK    2  A    between atoms: C_6  and  C_7
REMARK    3  A    between atoms: C_7  and  C_8
REMARK    4  A    between atoms: C_8  and  C_9
REMARK    5  A    between atoms: C_13  and  N_14
REMARK    6  A    between atoms: C_19  and  C_20
REMARK    7  A    between atoms: C_20  and  N_21
REMARK    8  A    between atoms: C_24  and  C_25
REMARK    9  A    between atoms: C_30  and  C_31
REMARK                            x       y       z     vdW  Elec       q    Type
REMARK                         _______ _______ _______ _____ _____    ______ ____
ROOT
ATOM      1  N   UNL     1       2.207   7.334  18.998  0.00  0.00    +0.000 N 
ATOM      2  C   UNL     1       1.503   7.654  20.212  0.00  0.00    +0.000 C 
ATOM      3  C   UNL     1       1.187   9.090  20.091  0.00  0.00    +0.000 A 
ATOM      4  C   UNL     1       1.573   9.566  18.843  0.00  0.00    +0.000 A 
ATOM      5  C   UNL     1       1.254  10.869  18.464  0.00  0.00    +0.000 A 
ATOM      6  C   UNL     1       0.562  11.692  19.391  0.00  0.00    +0.000 A 
ATOM      7  C   UNL     1       0.242  11.179  20.677  0.00  0.00    +0.000 A 
ATOM      8  C   UNL     1       0.558   9.871  21.051  0.00  0.00    +0.000 A 
ATOM      9  C   UNL     1       2.318   8.450  18.166  0.00  0.00    +0.000 C 
ATOM     10  O   UNL     1       2.890   8.566  17.098  0.00  0.00    +0.000 OA
ENDROOT
BRANCH   1  15
ATOM     11  C   UNL     1       4.503   4.689  17.683  0.00  0.00    +0.000 A 
ATOM     12  C   UNL     1       4.002   3.574  18.366  0.00  0.00    +0.000 A 
ATOM     13  C   UNL     1       3.004   3.705  19.355  0.00  0.00    +0.000 A 
ATOM     14  C   UNL     1       2.446   4.955  19.676  0.00  0.00    +0.000 A 
ATOM     15  C   UNL     1       2.870   6.073  18.984  0.00  0.00    +0.000 A 
ATOM     16  C   UNL     1       3.933   5.916  18.061  0.00  0.00    +0.000 A 
BRANCH  11  17
ATOM     17  C   UNL     1       5.603   4.666  16.493  0.00  0.00    +0.000 C 
ATOM     18  C   UNL     1       5.277   5.547  15.241  0.00  0.00    +0.000 C 
ATOM     19  O   UNL     1       5.267   4.403  14.363  0.00  0.00    +0.000 OA
ATOM     20  C   UNL     1       5.537   3.509  15.459  0.00  0.00    +0.000 C 
BRANCH  17  21
ATOM     21  C   UNL     1       7.032   4.816  17.052  0.00  0.00    +0.000 C 
BRANCH  21  27
ATOM     22  C   UNL     1       8.102   5.706  19.890  0.00  0.00    +0.000 C 
ATOM     23  N   UNL     1       7.933   6.530  18.723  0.00  0.00    +0.000 N 
ATOM     24  C   UNL     1       8.298   7.839  18.632  0.00  0.00    +0.000 A 
ATOM     25  N   UNL     1       7.958   8.306  17.455  0.00  0.00    +0.000 NA
ATOM     26  N   UNL     1       7.396   7.273  16.745  0.00  0.00    +0.000 NA
ATOM     27  C   UNL     1       7.410   6.191  17.499  0.00  0.00    +0.000 A 
ENDBRANCH  21  27
ENDBRANCH  17  21
ENDBRANCH  11  17
ENDBRANCH   1  15
BRANCH   8  28
ATOM     28  C   UNL     1       0.238   9.338  22.427  0.00  0.00    +0.000 C 
ATOM     29  F   UNL     1      -0.334  10.257  23.258  0.00  0.00    +0.000 F 
ATOM     30  F   UNL     1      -0.638   8.297  22.390  0.00  0.00    +0.000 F 
ATOM     31  F   UNL     1       1.339   8.893  23.087  0.00  0.00    +0.000 F 
ENDBRANCH   8  28
BRANCH   6  32
ATOM     32  C   UNL     1       0.070  13.101  19.048  0.00  0.00    +0.000 C 
BRANCH  32  33
ATOM     33  N   UNL     1       1.176  14.062  18.899  0.00  0.00    +0.000 NA
ATOM     34  C   UNL     1       0.751  15.452  18.723  0.00  0.00    +0.000 C 
ATOM     35  C   UNL     1       0.305  16.142  20.013  0.00  0.00    +0.000 C 
ATOM     36  C   UNL     1       1.330  15.999  21.138  0.00  0.00    +0.000 C 
ATOM     37  C   UNL     1       0.752  16.483  22.468  0.00  0.00    +0.000 C 
ATOM     38  F   UNL     1       2.391  16.808  20.840  0.00  0.00    +0.000 F 
ATOM     39  C   UNL     1       1.854  14.570  21.272  0.00  0.00    +0.000 C 
ATOM     40  C   UNL     1       2.224  13.967  19.920  0.00  0.00    +0.000 C 
ENDBRANCH  32  33
ENDBRANCH   6  32
TORSDOF 7
ENDMDL
MODEL 9
REMARK VINA RESULT:      -9.1      3.522      9.465
REMARK  Name = 
REMARK  9 active torsions:
REMARK  status: ('A' for Active; 'I' for Inactive)
REMARK    1  A    between atoms: C_1  and  N_2
REMARK    2  A    between atoms: C_6  and  C_7
REMARK    3  A    between atoms: C_7  and  C_8
REMARK    4  A    between atoms: C_8  and  C_9
REMARK    5  A    between atoms: C_13  and  N_14
REMARK    6  A    between atoms: C_19  and  C_20
REMARK    7  A    between atoms: C_20  and  N_21
REMARK    8  A    between atoms: C_24  and  C_25
REMARK    9  A    between atoms: C_30  and  C_31
REMARK                            x       y       z     vdW  Elec       q    Type
REMARK                         _______ _______ _______ _____ _____    ______ ____
ROOT
ATOM      1  N   UNL     1       1.446   8.190  20.197  0.00  0.00    +0.000 N 
ATOM      2  C   UNL     1       1.489   6.848  20.715  0.00  0.00    +0.000 C 
ATOM      3  C   UNL     1       2.145   6.060  19.653  0.00  0.00    +0.000 A 
ATOM      4  C   UNL     1       2.568   6.894  18.625  0.00  0.00    +0.000 A 
ATOM      5  C   UNL     1       3.326   6.378  17.575  0.00  0.00    +0.000 A 
ATOM      6  C   UNL     1       3.621   4.989  17.575  0.00  0.00    +0.000 A 
ATOM      7  C   UNL     1       3.116   4.167  18.619  0.00  0.00    +0.000 A 
ATOM      8  C   UNL     1       2.361   4.689  19.671  0.00  0.00    +0.000 A 
ATOM      9  C   UNL     1       2.034   8.265  18.932  0.00  0.00    +0.000 C 
ATOM     10  O   UNL     1       2.128   9.215  18.177  0.00  0.00    +0.000 OA
ENDROOT
BRANCH   1  15
ATOM     11  C   UNL     1       0.214  11.537  21.327  0.00  0.00    +0.000 A 
ATOM     12  C   UNL     1      -0.504  11.156  22.467  0.00  0.00    +0.000 A 
ATOM     13  C   UNL     1      -0.700   9.797  22.794  0.00  0.00    +0.000 A 
ATOM     14  C   UNL     1      -0.155   8.766  22.008  0.00  0.00    +0.000 A 
ATOM     15  C   UNL     1       0.610   9.100  20.907  0.00  0.00    +0.000 A 
ATOM     16  C   UNL     1       0.711  10.469  20.562  0.00  0.00    +0.000 A 
BRANCH  11  17
ATOM     17  C   UNL     1       0.554  13.055  20.875  0.00  0.00    +0.000 C 
ATOM     18  C   UNL     1       2.073  13.411  20.756  0.00  0.00    +0.000 C 
ATOM     19  O   UNL     1       1.976  14.433  21.769  0.00  0.00    +0.000 OA
ATOM     20  C   UNL     1       0.578  14.156  21.971  0.00  0.00    +0.000 C 
BRANCH  17  21
ATOM     21  C   UNL     1      -0.322  13.491  19.684  0.00  0.00    +0.000 C 
BRANCH  21  27
ATOM     22  C   UNL     1      -2.868  14.141  21.441  0.00  0.00    +0.000 C 
ATOM     23  N   UNL     1      -2.777  13.210  20.348  0.00  0.00    +0.000 N 
ATOM     24  C   UNL     1      -3.822  12.508  19.830  0.00  0.00    +0.000 A 
ATOM     25  N   UNL     1      -3.388  11.714  18.882  0.00  0.00    +0.000 NA
ATOM     26  N   UNL     1      -2.038  11.929  18.746  0.00  0.00    +0.000 NA
ATOM     27  C   UNL     1      -1.673  12.857  19.610  0.00  0.00    +0.000 A 
ENDBRANCH  21  27
ENDBRANCH  17  21
ENDBRANCH  11  17
ENDBRANCH   1  15
BRANCH   8  28
ATOM     28  C   UNL     1       1.805   3.808  20.764  0.00  0.00    +0.000 C 
ATOM     29  F   UNL     1       2.266   4.115  22.011  0.00  0.00    +0.000 F 
ATOM     30  F   UNL     1       0.450   3.887  20.855  0.00  0.00    +0.000 F 
ATOM     31  F   UNL     1       2.104   2.495  20.583  0.00  0.00    +0.000 F 
ENDBRANCH   8  28
BRANCH   6  32
ATOM     32  C   UNL     1       4.530   4.331  16.532  0.00  0.00    +0.000 C 
BRANCH  32  33
ATOM     33  N   UNL     1       5.876   4.047  17.059  0.00  0.00    +0.000 NA
ATOM     34  C   UNL     1       6.971   4.502  16.198  0.00  0.00    +0.000 C 
ATOM     35  C   UNL     1       7.243   6.005  16.266  0.00  0.00    +0.000 C 
ATOM     36  C   UNL     1       7.403   6.506  17.702  0.00  0.00    +0.000 C 
ATOM     37  C   UNL     1       7.431   8.034  17.747  0.00  0.00    +0.000 C 
ATOM     38  F   UNL     1       8.613   6.066  18.164  0.00  0.00    +0.000 F 
ATOM     39  C   UNL     1       6.321   5.964  18.633  0.00  0.00    +0.000 C 
ATOM     40  C   UNL     1       6.102   4.465  18.446  0.00  0.00    +0.000 C 
ENDBRANCH  32  33
ENDBRANCH   6  32
TORSDOF 7
ENDMDL
