MODEL 1
REMARK VINA RESULT:      -9.7      0.000      0.000
REMARK  Name = 
REMARK  10 active torsions:
REMARK  status: ('A' for Active; 'I' for Inactive)
REMARK    1  A    between atoms: C_1  and  C_2
REMARK    2  A    between atoms: C_2  and  C_3
REMARK    3  A    between atoms: C_2  and  N_32
REMARK    4  A    between atoms: C_7  and  C_8
REMARK    5  A    between atoms: N_14  and  C_15
REMARK    6  A    between atoms: C_19  and  C_20
REMARK    7  A    between atoms: C_20  and  C_21
REMARK    8  A    between atoms: C_20  and  C_22
REMARK    9  A    between atoms: C_22  and  C_23
REMARK   10  A    between atoms: N_27  and  C_28
REMARK                            x       y       z     vdW  Elec       q    Type
REMARK                         _______ _______ _______ _____ _____    ______ ____
ROOT
ATOM      1  C   UNL     1      -0.281  11.109  19.011  0.00  0.00    +0.000 A 
ATOM      2  C   UNL     1       0.619  10.291  18.309  0.00  0.00    +0.000 A 
ATOM      3  C   UNL     1       1.192   9.226  18.977  0.00  0.00    +0.000 A 
ATOM      4  C   UNL     1       0.906   8.936  20.307  0.00  0.00    +0.000 A 
ATOM      5  C   UNL     1       0.055   9.744  21.048  0.00  0.00    +0.000 A 
ATOM      6  C   UNL     1      -0.542  10.829  20.376  0.00  0.00    +0.000 A 
ATOM      7  C   UNL     1       1.634   7.697  20.713  0.00  0.00    +0.000 C 
ATOM      8  N   UNL     1       2.336   7.312  19.500  0.00  0.00    +0.000 N 
ATOM      9  C   UNL     1       2.143   8.223  18.470  0.00  0.00    +0.000 C 
ATOM     10  O   UNL     1       2.602   8.261  17.340  0.00  0.00    +0.000 OA
ENDROOT
BRANCH   8  11
ATOM     11  C   UNL     1       3.222   6.212  19.495  0.00  0.00    +0.000 A 
ATOM     12  C   UNL     1       2.818   4.951  19.927  0.00  0.00    +0.000 A 
ATOM     13  C   UNL     1       3.672   3.855  19.789  0.00  0.00    +0.000 A 
ATOM     14  C   UNL     1       4.960   4.017  19.269  0.00  0.00    +0.000 A 
ATOM     15  C   UNL     1       5.420   5.286  18.905  0.00  0.00    +0.000 A 
ATOM     16  C   UNL     1       4.528   6.368  19.000  0.00  0.00    +0.000 A 
BRANCH  15  17
ATOM     17  C   UNL     1       6.824   5.559  18.370  0.00  0.00    +0.000 C 
ATOM     18  C   UNL     1       6.832   6.923  17.663  0.00  0.00    +0.000 C 
BRANCH  17  19
ATOM     19  C   UNL     1       7.391   4.431  17.476  0.00  0.00    +0.000 C 
BRANCH  19  20
ATOM     20  C   UNL     1       6.987   4.583  16.044  0.00  0.00    +0.000 A 
ATOM     21  N   UNL     1       7.674   5.176  15.086  0.00  0.00    +0.000 NA
ATOM     22  N   UNL     1       6.884   5.240  13.964  0.00  0.00    +0.000 NA
ATOM     23  C   UNL     1       5.748   4.651  14.247  0.00  0.00    +0.000 A 
ATOM     24  N   UNL     1       5.794   4.162  15.515  0.00  0.00    +0.000 N 
ATOM     25  C   UNL     1       4.795   3.342  16.143  0.00  0.00    +0.000 C 
ENDBRANCH  19  20
ENDBRANCH  17  19
ENDBRANCH  15  17
ENDBRANCH   8  11
BRANCH   5  26
ATOM     26  C   UNL     1      -0.233   9.505  22.507  0.00  0.00    +0.000 C 
ATOM     27  F   UNL     1      -0.951  10.501  23.096  0.00  0.00    +0.000 F 
ATOM     28  F   UNL     1      -0.946   8.364  22.713  0.00  0.00    +0.000 F 
ATOM     29  F   UNL     1       0.903   9.378  23.245  0.00  0.00    +0.000 F 
ENDBRANCH   5  26
BRANCH   1  31
ATOM     30  C   UNL     1      -0.926  13.542  19.150  0.00  0.00    +0.000 C 
ATOM     31  C   UNL     1      -0.934  12.277  18.277  0.00  0.00    +0.000 C 
BRANCH  31  32
ATOM     32  N   UNL     1      -2.245  11.995  17.686  0.00  0.00    +0.000 NA
ATOM     33  C   UNL     1      -2.285  11.065  16.559  0.00  0.00    +0.000 C 
ATOM     34  C   UNL     1      -3.065   9.856  17.046  0.00  0.00    +0.000 C 
ATOM     35  C   UNL     1      -4.018  10.421  18.075  0.00  0.00    +0.000 C 
ATOM     36  F   UNL     1      -5.210  10.692  17.477  0.00  0.00    +0.000 F 
ATOM     37  C   UNL     1      -3.386  11.724  18.556  0.00  0.00    +0.000 C 
ENDBRANCH  31  32
ENDBRANCH   1  31
TORSDOF 7
ENDMDL
MODEL 2
REMARK VINA RESULT:      -9.7      2.806      9.468
REMARK  Name = 
REMARK  10 active torsions:
REMARK  status: ('A' for Active; 'I' for Inactive)
REMARK    1  A    between atoms: C_1  and  C_2
REMARK    2  A    between atoms: C_2  and  C_3
REMARK    3  A    between atoms: C_2  and  N_32
REMARK    4  A    between atoms: C_7  and  C_8
REMARK    5  A    between atoms: N_14  and  C_15
REMARK    6  A    between atoms: C_19  and  C_20
REMARK    7  A    between atoms: C_20  and  C_21
REMARK    8  A    between atoms: C_20  and  C_22
REMARK    9  A    between atoms: C_22  and  C_23
REMARK   10  A    between atoms: N_27  and  C_28
REMARK                            x       y       z     vdW  Elec       q    Type
REMARK                         _______ _______ _______ _____ _____    ______ ____
ROOT
ATOM      1  C   UNL     1       3.922   5.445  17.906  0.00  0.00    +0.000 A 
ATOM      2  C   UNL     1       3.466   6.771  17.967  0.00  0.00    +0.000 A 
ATOM      3  C   UNL     1       2.568   7.110  18.961  0.00  0.00    +0.000 A 
ATOM      4  C   UNL     1       2.109   6.191  19.899  0.00  0.00    +0.000 A 
ATOM      5  C   UNL     1       2.503   4.861  19.849  0.00  0.00    +0.000 A 
ATOM      6  C   UNL     1       3.424   4.505  18.844  0.00  0.00    +0.000 A 
ATOM      7  C   UNL     1       1.204   6.879  20.866  0.00  0.00    +0.000 C 
ATOM      8  N   UNL     1       1.206   8.257  20.402  0.00  0.00    +0.000 N 
ATOM      9  C   UNL     1       1.956   8.419  19.245  0.00  0.00    +0.000 C 
ATOM     10  O   UNL     1       2.149   9.402  18.549  0.00  0.00    +0.000 OA
ENDROOT
BRANCH   8  11
ATOM     11  C   UNL     1       0.386   9.228  21.015  0.00  0.00    +0.000 A 
ATOM     12  C   UNL     1       0.191   9.249  22.395  0.00  0.00    +0.000 A 
ATOM     13  C   UNL     1      -0.518  10.296  22.988  0.00  0.00    +0.000 A 
ATOM     14  C   UNL     1      -1.086  11.304  22.204  0.00  0.00    +0.000 A 
ATOM     15  C   UNL     1      -0.976  11.263  20.810  0.00  0.00    +0.000 A 
ATOM     16  C   UNL     1      -0.214  10.231  20.236  0.00  0.00    +0.000 A 
BRANCH  15  17
ATOM     17  C   UNL     1      -1.601  12.297  19.877  0.00  0.00    +0.000 C 
ATOM     18  C   UNL     1      -0.948  13.663  20.138  0.00  0.00    +0.000 C 
BRANCH  17  19
ATOM     19  C   UNL     1      -3.146  12.362  19.947  0.00  0.00    +0.000 C 
BRANCH  19  20
ATOM     20  C   UNL     1      -3.792  11.923  18.672  0.00  0.00    +0.000 A 
ATOM     21  N   UNL     1      -3.227  11.246  17.690  0.00  0.00    +0.000 NA
ATOM     22  N   UNL     1      -4.111  11.188  16.641  0.00  0.00    +0.000 NA
ATOM     23  C   UNL     1      -5.211  11.795  17.017  0.00  0.00    +0.000 A 
ATOM     24  N   UNL     1      -5.082  12.209  18.305  0.00  0.00    +0.000 N 
ATOM     25  C   UNL     1      -6.115  12.796  19.113  0.00  0.00    +0.000 C 
ENDBRANCH  19  20
ENDBRANCH  17  19
ENDBRANCH  15  17
ENDBRANCH   8  11
BRANCH   5  26
ATOM     26  C   UNL     1       1.983   3.819  20.804  0.00  0.00    +0.000 C 
ATOM     27  F   UNL     1       2.328   4.043  22.102  0.00  0.00    +0.000 F 
ATOM     28  F   UNL     1       0.625   3.738  20.791  0.00  0.00    +0.000 F 
ATOM     29  F   UNL     1       2.439   2.572  20.508  0.00  0.00    +0.000 F 
ENDBRANCH   5  26
BRANCH   1  31
ATOM     30  C   UNL     1       4.500   3.773  16.110  0.00  0.00    +0.000 C 
ATOM     31  C   UNL     1       4.929   5.065  16.824  0.00  0.00    +0.000 C 
BRANCH  31  32
ATOM     32  N   UNL     1       6.332   5.050  17.247  0.00  0.00    +0.000 NA
ATOM     33  C   UNL     1       7.172   6.166  16.818  0.00  0.00    +0.000 C 
ATOM     34  C   UNL     1       7.565   6.901  18.088  0.00  0.00    +0.000 C 
ATOM     35  C   UNL     1       7.575   5.825  19.150  0.00  0.00    +0.000 C 
ATOM     36  F   UNL     1       8.841   5.344  19.283  0.00  0.00    +0.000 F 
ATOM     37  C   UNL     1       6.666   4.718  18.629  0.00  0.00    +0.000 C 
ENDBRANCH  31  32
ENDBRANCH   1  31
TORSDOF 7
ENDMDL
MODEL 3
REMARK VINA RESULT:      -9.6      1.257      2.131
REMARK  Name = 
REMARK  10 active torsions:
REMARK  status: ('A' for Active; 'I' for Inactive)
REMARK    1  A    between atoms: C_1  and  C_2
REMARK    2  A    between atoms: C_2  and  C_3
REMARK    3  A    between atoms: C_2  and  N_32
REMARK    4  A    between atoms: C_7  and  C_8
REMARK    5  A    between atoms: N_14  and  C_15
REMARK    6  A    between atoms: C_19  and  C_20
REMARK    7  A    between atoms: C_20  and  C_21
REMARK    8  A    between atoms: C_20  and  C_22
REMARK    9  A    between atoms: C_22  and  C_23
REMARK   10  A    between atoms: N_27  and  C_28
REMARK                            x       y       z     vdW  Elec       q    Type
REMARK                         _______ _______ _______ _____ _____    ______ ____
ROOT
ATOM      1  C   UNL     1      -0.342  11.234  19.263  0.00  0.00    +0.000 A 
ATOM      2  C   UNL     1       0.469  10.435  18.441  0.00  0.00    +0.000 A 
ATOM      3  C   UNL     1       1.064   9.318  18.996  0.00  0.00    +0.000 A 
ATOM      4  C   UNL     1       0.886   8.959  20.327  0.00  0.00    +0.000 A 
ATOM      5  C   UNL     1       0.127   9.745  21.184  0.00  0.00    +0.000 A 
ATOM      6  C   UNL     1      -0.492  10.882  20.628  0.00  0.00    +0.000 A 
ATOM      7  C   UNL     1       1.607   7.681  20.598  0.00  0.00    +0.000 C 
ATOM      8  N   UNL     1       2.190   7.348  19.308  0.00  0.00    +0.000 N 
ATOM      9  C   UNL     1       1.937   8.323  18.351  0.00  0.00    +0.000 C 
ATOM     10  O   UNL     1       2.297   8.414  17.190  0.00  0.00    +0.000 OA
ENDROOT
BRANCH   8  11
ATOM     11  C   UNL     1       3.038   6.229  19.164  0.00  0.00    +0.000 A 
ATOM     12  C   UNL     1       3.052   5.201  20.106  0.00  0.00    +0.000 A 
ATOM     13  C   UNL     1       3.802   4.047  19.873  0.00  0.00    +0.000 A 
ATOM     14  C   UNL     1       4.589   3.929  18.724  0.00  0.00    +0.000 A 
ATOM     15  C   UNL     1       4.658   4.979  17.803  0.00  0.00    +0.000 A 
ATOM     16  C   UNL     1       3.854   6.110  18.027  0.00  0.00    +0.000 A 
BRANCH  15  17
ATOM     17  C   UNL     1       5.523   4.952  16.546  0.00  0.00    +0.000 C 
ATOM     18  C   UNL     1       5.172   3.701  15.726  0.00  0.00    +0.000 C 
BRANCH  17  19
ATOM     19  C   UNL     1       7.042   5.067  16.819  0.00  0.00    +0.000 C 
BRANCH  19  20
ATOM     20  C   UNL     1       7.421   6.404  17.371  0.00  0.00    +0.000 A 
ATOM     21  N   UNL     1       7.356   7.566  16.748  0.00  0.00    +0.000 NA
ATOM     22  N   UNL     1       7.945   8.517  17.544  0.00  0.00    +0.000 NA
ATOM     23  C   UNL     1       8.322   7.926  18.653  0.00  0.00    +0.000 A 
ATOM     24  N   UNL     1       7.951   6.619  18.618  0.00  0.00    +0.000 N 
ATOM     25  C   UNL     1       8.070   5.676  19.696  0.00  0.00    +0.000 C 
ENDBRANCH  19  20
ENDBRANCH  17  19
ENDBRANCH  15  17
ENDBRANCH   8  11
BRANCH   5  26
ATOM     26  C   UNL     1      -0.042   9.429  22.647  0.00  0.00    +0.000 C 
ATOM     27  F   UNL     1       1.135   9.253  23.309  0.00  0.00    +0.000 F 
ATOM     28  F   UNL     1      -0.699  10.414  23.316  0.00  0.00    +0.000 F 
ATOM     29  F   UNL     1      -0.758   8.290  22.851  0.00  0.00    +0.000 F 
ENDBRANCH   5  26
BRANCH   1  31
ATOM     30  C   UNL     1      -1.126  13.592  19.689  0.00  0.00    +0.000 C 
ATOM     31  C   UNL     1      -1.019  12.459  18.655  0.00  0.00    +0.000 C 
BRANCH  31  32
ATOM     32  N   UNL     1      -2.281  12.198  17.956  0.00  0.00    +0.000 NA
ATOM     33  C   UNL     1      -2.221  11.365  16.757  0.00  0.00    +0.000 C 
ATOM     34  C   UNL     1      -2.998  10.103  17.090  0.00  0.00    +0.000 C 
ATOM     35  C   UNL     1      -4.031  10.559  18.096  0.00  0.00    +0.000 C 
ATOM     36  F   UNL     1      -5.188  10.853  17.443  0.00  0.00    +0.000 F 
ATOM     37  C   UNL     1      -3.468  11.831  18.722  0.00  0.00    +0.000 C 
ENDBRANCH  31  32
ENDBRANCH   1  31
TORSDOF 7
ENDMDL
MODEL 4
REMARK VINA RESULT:      -9.6      3.021      9.880
REMARK  Name = 
REMARK  10 active torsions:
REMARK  status: ('A' for Active; 'I' for Inactive)
REMARK    1  A    between atoms: C_1  and  C_2
REMARK    2  A    between atoms: C_2  and  C_3
REMARK    3  A    between atoms: C_2  and  N_32
REMARK    4  A    between atoms: C_7  and  C_8
REMARK    5  A    between atoms: N_14  and  C_15
REMARK    6  A    between atoms: C_19  and  C_20
REMARK    7  A    between atoms: C_20  and  C_21
REMARK    8  A    between atoms: C_20  and  C_22
REMARK    9  A    between atoms: C_22  and  C_23
REMARK   10  A    between atoms: N_27  and  C_28
REMARK                            x       y       z     vdW  Elec       q    Type
REMARK                         _______ _______ _______ _____ _____    ______ ____
ROOT
ATOM      1  C   UNL     1       3.945   5.397  17.910  0.00  0.00    +0.000 A 
ATOM      2  C   UNL     1       3.488   6.724  17.934  0.00  0.00    +0.000 A 
ATOM      3  C   UNL     1       2.579   7.085  18.910  0.00  0.00    +0.000 A 
ATOM      4  C   UNL     1       2.110   6.188  19.864  0.00  0.00    +0.000 A 
ATOM      5  C   UNL     1       2.505   4.858  19.849  0.00  0.00    +0.000 A 
ATOM      6  C   UNL     1       3.437   4.479  18.864  0.00  0.00    +0.000 A 
ATOM      7  C   UNL     1       1.194   6.898  20.805  0.00  0.00    +0.000 C 
ATOM      8  N   UNL     1       1.201   8.265  20.308  0.00  0.00    +0.000 N 
ATOM      9  C   UNL     1       1.964   8.400  19.156  0.00  0.00    +0.000 C 
ATOM     10  O   UNL     1       2.164   9.367  18.440  0.00  0.00    +0.000 OA
ENDROOT
BRANCH   8  11
ATOM     11  C   UNL     1       0.373   9.250  20.889  0.00  0.00    +0.000 A 
ATOM     12  C   UNL     1       0.369   9.478  22.264  0.00  0.00    +0.000 A 
ATOM     13  C   UNL     1      -0.359  10.543  22.797  0.00  0.00    +0.000 A 
ATOM     14  C   UNL     1      -1.135  11.360  21.969  0.00  0.00    +0.000 A 
ATOM     15  C   UNL     1      -1.214  11.103  20.596  0.00  0.00    +0.000 A 
ATOM     16  C   UNL     1      -0.432  10.060  20.071  0.00  0.00    +0.000 A 
BRANCH  15  17
ATOM     17  C   UNL     1      -2.069  11.916  19.628  0.00  0.00    +0.000 C 
ATOM     18  C   UNL     1      -1.188  12.390  18.461  0.00  0.00    +0.000 C 
BRANCH  17  19
ATOM     19  C   UNL     1      -2.842  13.081  20.290  0.00  0.00    +0.000 C 
BRANCH  19  20
ATOM     20  C   UNL     1      -4.220  12.682  20.712  0.00  0.00    +0.000 A 
ATOM     21  N   UNL     1      -4.661  12.544  21.949  0.00  0.00    +0.000 NA
ATOM     22  N   UNL     1      -5.926  12.011  21.900  0.00  0.00    +0.000 NA
ATOM     23  C   UNL     1      -6.247  11.872  20.636  0.00  0.00    +0.000 A 
ATOM     24  N   UNL     1      -5.238  12.344  19.857  0.00  0.00    +0.000 N 
ATOM     25  C   UNL     1      -5.267  12.484  18.427  0.00  0.00    +0.000 C 
ENDBRANCH  19  20
ENDBRANCH  17  19
ENDBRANCH  15  17
ENDBRANCH   8  11
BRANCH   5  26
ATOM     26  C   UNL     1       1.974   3.839  20.823  0.00  0.00    +0.000 C 
ATOM     27  F   UNL     1       2.434   2.576  20.602  0.00  0.00    +0.000 F 
ATOM     28  F   UNL     1       2.303   4.132  22.110  0.00  0.00    +0.000 F 
ATOM     29  F   UNL     1       0.616   3.750  20.791  0.00  0.00    +0.000 F 
ENDBRANCH   5  26
BRANCH   1  31
ATOM     30  C   UNL     1       4.559   3.667  16.182  0.00  0.00    +0.000 C 
ATOM     31  C   UNL     1       4.964   4.992  16.847  0.00  0.00    +0.000 C 
BRANCH  31  32
ATOM     32  N   UNL     1       6.364   5.015  17.278  0.00  0.00    +0.000 NA
ATOM     33  C   UNL     1       7.181   6.144  16.839  0.00  0.00    +0.000 C 
ATOM     34  C   UNL     1       7.549   6.906  18.100  0.00  0.00    +0.000 C 
ATOM     35  C   UNL     1       7.579   5.845  19.177  0.00  0.00    +0.000 C 
ATOM     36  F   UNL     1       8.855   5.395  19.323  0.00  0.00    +0.000 F 
ATOM     37  C   UNL     1       6.698   4.709  18.667  0.00  0.00    +0.000 C 
ENDBRANCH  31  32
ENDBRANCH   1  31
TORSDOF 7
ENDMDL
MODEL 5
REMARK VINA RESULT:      -9.6      3.033      9.853
REMARK  Name = 
REMARK  10 active torsions:
REMARK  status: ('A' for Active; 'I' for Inactive)
REMARK    1  A    between atoms: C_1  and  C_2
REMARK    2  A    between atoms: C_2  and  C_3
REMARK    3  A    between atoms: C_2  and  N_32
REMARK    4  A    between atoms: C_7  and  C_8
REMARK    5  A    between atoms: N_14  and  C_15
REMARK    6  A    between atoms: C_19  and  C_20
REMARK    7  A    between atoms: C_20  and  C_21
REMARK    8  A    between atoms: C_20  and  C_22
REMARK    9  A    between atoms: C_22  and  C_23
REMARK   10  A    between atoms: N_27  and  C_28
REMARK                            x       y       z     vdW  Elec       q    Type
REMARK                         _______ _______ _______ _____ _____    ______ ____
ROOT
ATOM      1  C   UNL     1       3.909   5.234  17.962  0.00  0.00    +0.000 A 
ATOM      2  C   UNL     1       3.484   6.571  18.017  0.00  0.00    +0.000 A 
ATOM      3  C   UNL     1       2.582   6.931  19.000  0.00  0.00    +0.000 A 
ATOM      4  C   UNL     1       2.088   6.023  19.931  0.00  0.00    +0.000 A 
ATOM      5  C   UNL     1       2.450   4.684  19.885  0.00  0.00    +0.000 A 
ATOM      6  C   UNL     1       3.376   4.306  18.892  0.00  0.00    +0.000 A 
ATOM      7  C   UNL     1       1.187   6.733  20.886  0.00  0.00    +0.000 C 
ATOM      8  N   UNL     1       1.229   8.110  20.423  0.00  0.00    +0.000 N 
ATOM      9  C   UNL     1       1.998   8.254  19.276  0.00  0.00    +0.000 C 
ATOM     10  O   UNL     1       2.225   9.233  18.584  0.00  0.00    +0.000 OA
ENDROOT
BRANCH   8  11
ATOM     11  C   UNL     1       0.425   9.101  21.026  0.00  0.00    +0.000 A 
ATOM     12  C   UNL     1       0.289   9.184  22.411  0.00  0.00    +0.000 A 
ATOM     13  C   UNL     1      -0.406  10.251  22.985  0.00  0.00    +0.000 A 
ATOM     14  C   UNL     1      -1.019  11.216  22.181  0.00  0.00    +0.000 A 
ATOM     15  C   UNL     1      -0.967  11.112  20.787  0.00  0.00    +0.000 A 
ATOM     16  C   UNL     1      -0.218  10.062  20.228  0.00  0.00    +0.000 A 
BRANCH  15  17
ATOM     17  C   UNL     1      -1.643  12.096  19.836  0.00  0.00    +0.000 C 
ATOM     18  C   UNL     1      -0.565  12.801  18.999  0.00  0.00    +0.000 C 
BRANCH  17  19
ATOM     19  C   UNL     1      -2.594  13.098  20.532  0.00  0.00    +0.000 C 
BRANCH  19  20
ATOM     20  C   UNL     1      -4.024  12.666  20.467  0.00  0.00    +0.000 A 
ATOM     21  N   UNL     1      -4.677  12.247  19.399  0.00  0.00    +0.000 NA
ATOM     22  N   UNL     1      -6.002  12.104  19.731  0.00  0.00    +0.000 NA
ATOM     23  C   UNL     1      -6.125  12.399  21.003  0.00  0.00    +0.000 A 
ATOM     24  N   UNL     1      -4.901  12.687  21.521  0.00  0.00    +0.000 N 
ATOM     25  C   UNL     1      -4.605  12.931  22.906  0.00  0.00    +0.000 C 
ENDBRANCH  19  20
ENDBRANCH  17  19
ENDBRANCH  15  17
ENDBRANCH   8  11
BRANCH   5  26
ATOM     26  C   UNL     1       1.892   3.655  20.832  0.00  0.00    +0.000 C 
ATOM     27  F   UNL     1       2.216   3.876  22.136  0.00  0.00    +0.000 F 
ATOM     28  F   UNL     1       0.533   3.599  20.793  0.00  0.00    +0.000 F 
ATOM     29  F   UNL     1       2.330   2.398  20.548  0.00  0.00    +0.000 F 
ENDBRANCH   5  26
BRANCH   1  31
ATOM     30  C   UNL     1       4.535   3.483  16.260  0.00  0.00    +0.000 C 
ATOM     31  C   UNL     1       4.920   4.830  16.892  0.00  0.00    +0.000 C 
BRANCH  31  32
ATOM     32  N   UNL     1       6.326   4.893  17.301  0.00  0.00    +0.000 NA
ATOM     33  C   UNL     1       7.130   5.989  16.765  0.00  0.00    +0.000 C 
ATOM     34  C   UNL     1       7.511   6.846  17.960  0.00  0.00    +0.000 C 
ATOM     35  C   UNL     1       7.561   5.870  19.114  0.00  0.00    +0.000 C 
ATOM     36  F   UNL     1       8.841   5.439  19.276  0.00  0.00    +0.000 F 
ATOM     37  C   UNL     1       6.680   4.695  18.704  0.00  0.00    +0.000 C 
ENDBRANCH  31  32
ENDBRANCH   1  31
TORSDOF 7
ENDMDL
MODEL 6
REMARK VINA RESULT:      -9.6      0.804      1.265
REMARK  Name = 
REMARK  10 active torsions:
REMARK  status: ('A' for Active; 'I' for Inactive)
REMARK    1  A    between atoms: C_1  and  C_2
REMARK    2  A    between atoms: C_2  and  C_3
REMARK    3  A    between atoms: C_2  and  N_32
REMARK    4  A    between atoms: C_7  and  C_8
REMARK    5  A    between atoms: N_14  and  C_15
REMARK    6  A    between atoms: C_19  and  C_20
REMARK    7  A    between atoms: C_20  and  C_21
REMARK    8  A    between atoms: C_20  and  C_22
REMARK    9  A    between atoms: C_22  and  C_23
REMARK   10  A    between atoms: N_27  and  C_28
REMARK                            x       y       z     vdW  Elec       q    Type
REMARK                         _______ _______ _______ _____ _____    ______ ____
ROOT
ATOM      1  C   UNL     1      -0.162  11.123  18.963  0.00  0.00    +0.000 A 
ATOM      2  C   UNL     1       0.672  10.292  18.197  0.00  0.00    +0.000 A 
ATOM      3  C   UNL     1       1.252   9.200  18.813  0.00  0.00    +0.000 A 
ATOM      4  C   UNL     1       1.034   8.894  20.153  0.00  0.00    +0.000 A 
ATOM      5  C   UNL     1       0.249   9.711  20.954  0.00  0.00    +0.000 A 
ATOM      6  C   UNL     1      -0.353  10.825  20.336  0.00  0.00    +0.000 A 
ATOM      7  C   UNL     1       1.747   7.628  20.495  0.00  0.00    +0.000 C 
ATOM      8  N   UNL     1       2.368   7.245  19.237  0.00  0.00    +0.000 N 
ATOM      9  C   UNL     1       2.143   8.181  18.236  0.00  0.00    +0.000 C 
ATOM     10  O   UNL     1       2.538   8.226  17.082  0.00  0.00    +0.000 OA
ENDROOT
BRANCH   8  11
ATOM     11  C   UNL     1       3.220   6.122  19.163  0.00  0.00    +0.000 A 
ATOM     12  C   UNL     1       3.044   5.020  19.997  0.00  0.00    +0.000 A 
ATOM     13  C   UNL     1       3.817   3.871  19.814  0.00  0.00    +0.000 A 
ATOM     14  C   UNL     1       4.812   3.832  18.833  0.00  0.00    +0.000 A 
ATOM     15  C   UNL     1       5.065   4.953  18.037  0.00  0.00    +0.000 A 
ATOM     16  C   UNL     1       4.241   6.080  18.199  0.00  0.00    +0.000 A 
BRANCH  15  17
ATOM     17  C   UNL     1       6.158   5.011  16.973  0.00  0.00    +0.000 C 
ATOM     18  C   UNL     1       6.647   6.461  16.837  0.00  0.00    +0.000 C 
BRANCH  17  19
ATOM     19  C   UNL     1       5.749   4.399  15.611  0.00  0.00    +0.000 C 
BRANCH  19  20
ATOM     20  C   UNL     1       6.729   4.717  14.527  0.00  0.00    +0.000 A 
ATOM     21  N   UNL     1       7.806   5.474  14.630  0.00  0.00    +0.000 NA
ATOM     22  N   UNL     1       8.338   5.641  13.375  0.00  0.00    +0.000 NA
ATOM     23  C   UNL     1       7.600   4.952  12.538  0.00  0.00    +0.000 A 
ATOM     24  N   UNL     1       6.624   4.301  13.225  0.00  0.00    +0.000 N 
ATOM     25  C   UNL     1       5.699   3.346  12.680  0.00  0.00    +0.000 C 
ENDBRANCH  19  20
ENDBRANCH  17  19
ENDBRANCH  15  17
ENDBRANCH   8  11
BRANCH   5  26
ATOM     26  C   UNL     1       0.038   9.454  22.423  0.00  0.00    +0.000 C 
ATOM     27  F   UNL     1       1.173   9.102  23.088  0.00  0.00    +0.000 F 
ATOM     28  F   UNL     1      -0.449  10.544  23.074  0.00  0.00    +0.000 F 
ATOM     29  F   UNL     1      -0.852   8.450  22.650  0.00  0.00    +0.000 F 
ENDBRANCH   5  26
BRANCH   1  31
ATOM     30  C   UNL     1      -0.749  13.564  19.189  0.00  0.00    +0.000 C 
ATOM     31  C   UNL     1      -0.822  12.322  18.287  0.00  0.00    +0.000 C 
BRANCH  31  32
ATOM     32  N   UNL     1      -2.163  12.081  17.748  0.00  0.00    +0.000 NA
ATOM     33  C   UNL     1      -2.264  11.249  16.551  0.00  0.00    +0.000 C 
ATOM     34  C   UNL     1      -3.013   9.998  16.977  0.00  0.00    +0.000 C 
ATOM     35  C   UNL     1      -3.908  10.468  18.102  0.00  0.00    +0.000 C 
ATOM     36  F   UNL     1      -5.132  10.779  17.596  0.00  0.00    +0.000 F 
ATOM     37  C   UNL     1      -3.253  11.729  18.654  0.00  0.00    +0.000 C 
ENDBRANCH  31  32
ENDBRANCH   1  31
TORSDOF 7
ENDMDL
MODEL 7
REMARK VINA RESULT:      -9.4      2.723      9.139
REMARK  Name = 
REMARK  10 active torsions:
REMARK  status: ('A' for Active; 'I' for Inactive)
REMARK    1  A    between atoms: C_1  and  C_2
REMARK    2  A    between atoms: C_2  and  C_3
REMARK    3  A    between atoms: C_2  and  N_32
REMARK    4  A    between atoms: C_7  and  C_8
REMARK    5  A    between atoms: N_14  and  C_15
REMARK    6  A    between atoms: C_19  and  C_20
REMARK    7  A    between atoms: C_20  and  C_21
REMARK    8  A    between atoms: C_20  and  C_22
REMARK    9  A    between atoms: C_22  and  C_23
REMARK   10  A    between atoms: N_27  and  C_28
REMARK                            x       y       z     vdW  Elec       q    Type
REMARK                         _______ _______ _______ _____ _____    ______ ____
ROOT
ATOM      1  C   UNL     1       4.004   5.450  17.825  0.00  0.00    +0.000 A 
ATOM      2  C   UNL     1       3.559   6.782  17.805  0.00  0.00    +0.000 A 
ATOM      3  C   UNL     1       2.644   7.180  18.760  0.00  0.00    +0.000 A 
ATOM      4  C   UNL     1       2.157   6.317  19.736  0.00  0.00    +0.000 A 
ATOM      5  C   UNL     1       2.540   4.983  19.765  0.00  0.00    +0.000 A 
ATOM      6  C   UNL     1       3.478   4.566  18.800  0.00  0.00    +0.000 A 
ATOM      7  C   UNL     1       1.239   7.063  20.646  0.00  0.00    +0.000 C 
ATOM      8  N   UNL     1       1.264   8.414  20.109  0.00  0.00    +0.000 N 
ATOM      9  C   UNL     1       2.039   8.508  18.961  0.00  0.00    +0.000 C 
ATOM     10  O   UNL     1       2.255   9.451  18.218  0.00  0.00    +0.000 OA
ENDROOT
BRANCH   8  11
ATOM     11  C   UNL     1       0.440   9.424  20.652  0.00  0.00    +0.000 A 
ATOM     12  C   UNL     1       0.572   9.836  21.977  0.00  0.00    +0.000 A 
ATOM     13  C   UNL     1      -0.164  10.924  22.450  0.00  0.00    +0.000 A 
ATOM     14  C   UNL     1      -1.081  11.577  21.622  0.00  0.00    +0.000 A 
ATOM     15  C   UNL     1      -1.293  11.132  20.313  0.00  0.00    +0.000 A 
ATOM     16  C   UNL     1      -0.504  10.071  19.838  0.00  0.00    +0.000 A 
BRANCH  15  17
ATOM     17  C   UNL     1      -2.303  11.759  19.356  0.00  0.00    +0.000 C 
ATOM     18  C   UNL     1      -2.919  12.999  20.023  0.00  0.00    +0.000 C 
BRANCH  17  19
ATOM     19  C   UNL     1      -3.380  10.777  18.837  0.00  0.00    +0.000 C 
BRANCH  19  20
ATOM     20  C   UNL     1      -3.325  10.605  17.352  0.00  0.00    +0.000 A 
ATOM     21  N   UNL     1      -2.484   9.848  16.673  0.00  0.00    +0.000 NA
ATOM     22  N   UNL     1      -2.663  10.097  15.334  0.00  0.00    +0.000 NA
ATOM     23  C   UNL     1      -3.635  10.969  15.221  0.00  0.00    +0.000 A 
ATOM     24  N   UNL     1      -4.127  11.262  16.455  0.00  0.00    +0.000 N 
ATOM     25  C   UNL     1      -5.279  12.074  16.736  0.00  0.00    +0.000 C 
ENDBRANCH  19  20
ENDBRANCH  17  19
ENDBRANCH  15  17
ENDBRANCH   8  11
BRANCH   5  26
ATOM     26  C   UNL     1       1.990   3.998  20.764  0.00  0.00    +0.000 C 
ATOM     27  F   UNL     1       2.350   4.262  22.050  0.00  0.00    +0.000 F 
ATOM     28  F   UNL     1       0.630   3.963  20.759  0.00  0.00    +0.000 F 
ATOM     29  F   UNL     1       2.402   2.725  20.516  0.00  0.00    +0.000 F 
ENDBRANCH   5  26
BRANCH   1  31
ATOM     30  C   UNL     1       4.618   3.664  16.155  0.00  0.00    +0.000 C 
ATOM     31  C   UNL     1       5.029   5.005  16.785  0.00  0.00    +0.000 C 
BRANCH  31  32
ATOM     32  N   UNL     1       6.425   5.028  17.229  0.00  0.00    +0.000 NA
ATOM     33  C   UNL     1       7.225   6.195  16.862  0.00  0.00    +0.000 C 
ATOM     34  C   UNL     1       7.569   6.888  18.168  0.00  0.00    +0.000 C 
ATOM     35  C   UNL     1       7.610   5.767  19.183  0.00  0.00    +0.000 C 
ATOM     36  F   UNL     1       8.892   5.332  19.314  0.00  0.00    +0.000 F 
ATOM     37  C   UNL     1       6.754   4.648  18.600  0.00  0.00    +0.000 C 
ENDBRANCH  31  32
ENDBRANCH   1  31
TORSDOF 7
ENDMDL
MODEL 8
REMARK VINA RESULT:      -9.4      2.989      9.002
REMARK  Name = 
REMARK  10 active torsions:
REMARK  status: ('A' for Active; 'I' for Inactive)
REMARK    1  A    between atoms: C_1  and  C_2
REMARK    2  A    between atoms: C_2  and  C_3
REMARK    3  A    between atoms: C_2  and  N_32
REMARK    4  A    between atoms: C_7  and  C_8
REMARK    5  A    between atoms: N_14  and  C_15
REMARK    6  A    between atoms: C_19  and  C_20
REMARK    7  A    between atoms: C_20  and  C_21
REMARK    8  A    between atoms: C_20  and  C_22
REMARK    9  A    between atoms: C_22  and  C_23
REMARK   10  A    between atoms: N_27  and  C_28
REMARK                            x       y       z     vdW  Elec       q    Type
REMARK                         _______ _______ _______ _____ _____    ______ ____
ROOT
ATOM      1  C   UNL     1       3.910   5.228  17.963  0.00  0.00    +0.000 A 
ATOM      2  C   UNL     1       3.474   6.562  17.996  0.00  0.00    +0.000 A 
ATOM      3  C   UNL     1       2.574   6.932  18.978  0.00  0.00    +0.000 A 
ATOM      4  C   UNL     1       2.095   6.038  19.929  0.00  0.00    +0.000 A 
ATOM      5  C   UNL     1       2.469   4.702  19.905  0.00  0.00    +0.000 A 
ATOM      6  C   UNL     1       3.392   4.313  18.914  0.00  0.00    +0.000 A 
ATOM      7  C   UNL     1       1.194   6.757  20.877  0.00  0.00    +0.000 C 
ATOM      8  N   UNL     1       1.220   8.126  20.388  0.00  0.00    +0.000 N 
ATOM      9  C   UNL     1       1.981   8.256  19.233  0.00  0.00    +0.000 C 
ATOM     10  O   UNL     1       2.194   9.223  18.521  0.00  0.00    +0.000 OA
ENDROOT
BRANCH   8  11
ATOM     11  C   UNL     1       0.411   9.121  20.977  0.00  0.00    +0.000 A 
ATOM     12  C   UNL     1       0.288   9.233  22.361  0.00  0.00    +0.000 A 
ATOM     13  C   UNL     1      -0.413  10.304  22.919  0.00  0.00    +0.000 A 
ATOM     14  C   UNL     1      -1.045  11.244  22.100  0.00  0.00    +0.000 A 
ATOM     15  C   UNL     1      -1.008  11.109  20.708  0.00  0.00    +0.000 A 
ATOM     16  C   UNL     1      -0.252  10.056  20.165  0.00  0.00    +0.000 A 
BRANCH  15  17
ATOM     17  C   UNL     1      -1.705  12.064  19.743  0.00  0.00    +0.000 C 
ATOM     18  C   UNL     1      -1.735  11.427  18.346  0.00  0.00    +0.000 C 
BRANCH  17  19
ATOM     19  C   UNL     1      -1.110  13.492  19.725  0.00  0.00    +0.000 C 
BRANCH  19  20
ATOM     20  C   UNL     1       0.378  13.488  19.576  0.00  0.00    +0.000 A 
ATOM     21  N   UNL     1       1.066  13.100  18.519  0.00  0.00    +0.000 NA
ATOM     22  N   UNL     1       2.400  13.100  18.849  0.00  0.00    +0.000 NA
ATOM     23  C   UNL     1       2.501  13.524  20.085  0.00  0.00    +0.000 A 
ATOM     24  N   UNL     1       1.267  13.846  20.556  0.00  0.00    +0.000 N 
ATOM     25  C   UNL     1       0.979  14.467  21.820  0.00  0.00    +0.000 C 
ENDBRANCH  19  20
ENDBRANCH  17  19
ENDBRANCH  15  17
ENDBRANCH   8  11
BRANCH   5  26
ATOM     26  C   UNL     1       1.926   3.685  20.875  0.00  0.00    +0.000 C 
ATOM     27  F   UNL     1       2.371   2.418  20.650  0.00  0.00    +0.000 F 
ATOM     28  F   UNL     1       2.260   3.970  22.163  0.00  0.00    +0.000 F 
ATOM     29  F   UNL     1       0.568   3.614  20.845  0.00  0.00    +0.000 F 
ENDBRANCH   5  26
BRANCH   1  31
ATOM     30  C   UNL     1       4.563   3.434  16.316  0.00  0.00    +0.000 C 
ATOM     31  C   UNL     1       4.918   4.814  16.895  0.00  0.00    +0.000 C 
BRANCH  31  32
ATOM     32  N   UNL     1       6.328   4.930  17.281  0.00  0.00    +0.000 NA
ATOM     33  C   UNL     1       7.086   6.044  16.718  0.00  0.00    +0.000 C 
ATOM     34  C   UNL     1       7.455   6.931  17.894  0.00  0.00    +0.000 C 
ATOM     35  C   UNL     1       7.555   5.975  19.062  0.00  0.00    +0.000 C 
ATOM     36  F   UNL     1       8.852   5.589  19.210  0.00  0.00    +0.000 F 
ATOM     37  C   UNL     1       6.709   4.765  18.681  0.00  0.00    +0.000 C 
ENDBRANCH  31  32
ENDBRANCH   1  31
TORSDOF 7
ENDMDL
MODEL 9
REMARK VINA RESULT:      -9.3      3.124      9.021
REMARK  Name = 
REMARK  10 active torsions:
REMARK  status: ('A' for Active; 'I' for Inactive)
REMARK    1  A    between atoms: C_1  and  C_2
REMARK    2  A    between atoms: C_2  and  C_3
REMARK    3  A    between atoms: C_2  and  N_32
REMARK    4  A    between atoms: C_7  and  C_8
REMARK    5  A    between atoms: N_14  and  C_15
REMARK    6  A    between atoms: C_19  and  C_20
REMARK    7  A    between atoms: C_20  and  C_21
REMARK    8  A    between atoms: C_20  and  C_22
REMARK    9  A    between atoms: C_22  and  C_23
REMARK   10  A    between atoms: N_27  and  C_28
REMARK                            x       y       z     vdW  Elec       q    Type
REMARK                         _______ _______ _______ _____ _____    ______ ____
ROOT
ATOM      1  C   UNL     1       3.918   5.497  17.915  0.00  0.00    +0.000 A 
ATOM      2  C   UNL     1       3.456   6.822  17.969  0.00  0.00    +0.000 A 
ATOM      3  C   UNL     1       2.556   7.161  18.960  0.00  0.00    +0.000 A 
ATOM      4  C   UNL     1       2.100   6.245  19.902  0.00  0.00    +0.000 A 
ATOM      5  C   UNL     1       2.500   4.917  19.859  0.00  0.00    +0.000 A 
ATOM      6  C   UNL     1       3.423   4.560  18.857  0.00  0.00    +0.000 A 
ATOM      7  C   UNL     1       1.191   6.934  20.866  0.00  0.00    +0.000 C 
ATOM      8  N   UNL     1       1.188   8.310  20.394  0.00  0.00    +0.000 N 
ATOM      9  C   UNL     1       1.938   8.469  19.237  0.00  0.00    +0.000 C 
ATOM     10  O   UNL     1       2.128   9.450  18.536  0.00  0.00    +0.000 OA
ENDROOT
BRANCH   8  11
ATOM     11  C   UNL     1       0.363   9.281  21.002  0.00  0.00    +0.000 A 
ATOM     12  C   UNL     1       0.103   9.261  22.371  0.00  0.00    +0.000 A 
ATOM     13  C   UNL     1      -0.607  10.305  22.966  0.00  0.00    +0.000 A 
ATOM     14  C   UNL     1      -1.113  11.353  22.191  0.00  0.00    +0.000 A 
ATOM     15  C   UNL     1      -0.939  11.356  20.804  0.00  0.00    +0.000 A 
ATOM     16  C   UNL     1      -0.175  10.325  20.231  0.00  0.00    +0.000 A 
BRANCH  15  17
ATOM     17  C   UNL     1      -1.494  12.436  19.880  0.00  0.00    +0.000 C 
ATOM     18  C   UNL     1      -1.462  11.920  18.433  0.00  0.00    +0.000 C 
BRANCH  17  19
ATOM     19  C   UNL     1      -0.803  13.813  20.027  0.00  0.00    +0.000 C 
BRANCH  19  20
ATOM     20  C   UNL     1       0.624  13.690  20.459  0.00  0.00    +0.000 A 
ATOM     21  N   UNL     1       1.091  13.795  21.689  0.00  0.00    +0.000 NA
ATOM     22  N   UNL     1       2.463  13.781  21.633  0.00  0.00    +0.000 NA
ATOM     23  C   UNL     1       2.805  13.629  20.376  0.00  0.00    +0.000 A 
ATOM     24  N   UNL     1       1.687  13.497  19.615  0.00  0.00    +0.000 N 
ATOM     25  C   UNL     1       1.649  13.184  18.213  0.00  0.00    +0.000 C 
ENDBRANCH  19  20
ENDBRANCH  17  19
ENDBRANCH  15  17
ENDBRANCH   8  11
BRANCH   5  26
ATOM     26  C   UNL     1       1.983   3.878  20.819  0.00  0.00    +0.000 C 
ATOM     27  F   UNL     1       2.429   2.618  20.558  0.00  0.00    +0.000 F 
ATOM     28  F   UNL     1       2.342   4.138  22.106  0.00  0.00    +0.000 F 
ATOM     29  F   UNL     1       0.624   3.799  20.816  0.00  0.00    +0.000 F 
ENDBRANCH   5  26
BRANCH   1  31
ATOM     30  C   UNL     1       4.488   3.835  16.107  0.00  0.00    +0.000 C 
ATOM     31  C   UNL     1       4.927   5.116  16.835  0.00  0.00    +0.000 C 
BRANCH  31  32
ATOM     32  N   UNL     1       6.327   5.080  17.267  0.00  0.00    +0.000 NA
ATOM     33  C   UNL     1       7.184   6.187  16.849  0.00  0.00    +0.000 C 
ATOM     34  C   UNL     1       7.578   6.911  18.125  0.00  0.00    +0.000 C 
ATOM     35  C   UNL     1       7.568   5.830  19.182  0.00  0.00    +0.000 C 
ATOM     36  F   UNL     1       8.827   5.331  19.320  0.00  0.00    +0.000 F 
ATOM     37  C   UNL     1       6.648   4.737  18.650  0.00  0.00    +0.000 C 
ENDBRANCH  31  32
ENDBRANCH   1  31
TORSDOF 7
ENDMDL
