MODEL 1
REMARK VINA RESULT:     -10.6      0.000      0.000
REMARK  Name = 
REMARK  8 active torsions:
REMARK  status: ('A' for Active; 'I' for Inactive)
REMARK    1  A    between atoms: C_1  and  N_2
REMARK    2  A    between atoms: C_6  and  C_7
REMARK    3  A    between atoms: C_7  and  C_8
REMARK    4  A    between atoms: C_8  and  C_9
REMARK    5  A    between atoms: C_13  and  N_14
REMARK    6  A    between atoms: C_19  and  C_20
REMARK    7  A    between atoms: C_20  and  N_21
REMARK    8  A    between atoms: C_30  and  C_31
REMARK                            x       y       z     vdW  Elec       q    Type
REMARK                         _______ _______ _______ _____ _____    ______ ____
ROOT
ATOM      1  N   UNL     1       1.529   8.093  20.266  0.00  0.00    +0.000 N 
ATOM      2  C   UNL     1       1.605   6.766  20.839  0.00  0.00    +0.000 C 
ATOM      3  C   UNL     1       2.312   5.962  19.827  0.00  0.00    +0.000 A 
ATOM      4  C   UNL     1       2.762   6.776  18.785  0.00  0.00    +0.000 A 
ATOM      5  C   UNL     1       3.513   6.230  17.753  0.00  0.00    +0.000 A 
ATOM      6  C   UNL     1       3.772   4.833  17.767  0.00  0.00    +0.000 A 
ATOM      7  C   UNL     1       3.243   4.036  18.810  0.00  0.00    +0.000 A 
ATOM      8  C   UNL     1       2.506   4.582  19.860  0.00  0.00    +0.000 A 
ATOM      9  C   UNL     1       2.226   8.161  19.055  0.00  0.00    +0.000 C 
ATOM     10  O   UNL     1       2.388   9.097  18.295  0.00  0.00    +0.000 OA
ENDROOT
BRANCH   1  15
ATOM     11  C   UNL     1      -0.735  11.093  20.616  0.00  0.00    +0.000 A 
ATOM     12  C   UNL     1      -0.880  11.111  22.009  0.00  0.00    +0.000 A 
ATOM     13  C   UNL     1      -0.313  10.124  22.828  0.00  0.00    +0.000 A 
ATOM     14  C   UNL     1       0.461   9.082  22.287  0.00  0.00    +0.000 A 
ATOM     15  C   UNL     1       0.669   9.027  20.919  0.00  0.00    +0.000 A 
ATOM     16  C   UNL     1       0.033  10.019  20.130  0.00  0.00    +0.000 A 
BRANCH  11  17
ATOM     17  C   UNL     1      -1.376  12.173  19.587  0.00  0.00    +0.000 C 
ATOM     18  C   UNL     1      -0.464  12.569  18.393  0.00  0.00    +0.000 C 
ATOM     19  O   UNL     1      -0.443  13.957  18.776  0.00  0.00    +0.000 OA
ATOM     20  C   UNL     1      -1.249  13.688  19.942  0.00  0.00    +0.000 C 
BRANCH  17  21
ATOM     21  C   UNL     1      -2.814  11.787  19.154  0.00  0.00    +0.000 C 
BRANCH  21  27
ATOM     22  C   UNL     1      -5.192  12.095  17.094  0.00  0.00    +0.000 C 
ATOM     23  N   UNL     1      -3.973  11.351  16.910  0.00  0.00    +0.000 N 
ATOM     24  C   UNL     1      -3.667  10.628  15.798  0.00  0.00    +0.000 A 
ATOM     25  N   UNL     1      -2.498  10.050  15.963  0.00  0.00    +0.000 NA
ATOM     26  N   UNL     1      -2.040  10.391  17.209  0.00  0.00    +0.000 NA
ATOM     27  C   UNL     1      -2.918  11.196  17.779  0.00  0.00    +0.000 A 
ENDBRANCH  21  27
ENDBRANCH  17  21
ENDBRANCH  11  17
ENDBRANCH   1  15
BRANCH   8  28
ATOM     28  C   UNL     1       1.943   3.714  20.952  0.00  0.00    +0.000 C 
ATOM     29  F   UNL     1       2.208   2.390  20.805  0.00  0.00    +0.000 F 
ATOM     30  F   UNL     1       2.420   4.062  22.178  0.00  0.00    +0.000 F 
ATOM     31  F   UNL     1       0.587   3.803  21.031  0.00  0.00    +0.000 F 
ENDBRANCH   8  28
BRANCH   6  32
ATOM     32  C   UNL     1       4.673   4.142  16.750  0.00  0.00    +0.000 C 
BRANCH  32  33
ATOM     33  N   UNL     1       5.722   5.028  16.183  0.00  0.00    +0.000 NA
ATOM     34  C   UNL     1       6.951   4.271  15.849  0.00  0.00    +0.000 C 
ATOM     35  C   UNL     1       6.659   3.712  14.494  0.00  0.00    +0.000 C 
ATOM     36  C   UNL     1       5.605   4.585  13.884  0.00  0.00    +0.000 C 
ATOM     37  C   UNL     1       5.282   5.631  14.898  0.00  0.00    +0.000 C 
ATOM     38  C   UNL     1       6.937   4.461  13.253  0.00  0.00    +0.000 C 
ATOM     39  F   UNL     1       7.065   3.781  12.060  0.00  0.00    +0.000 F 
ATOM     40  F   UNL     1       7.823   5.510  13.220  0.00  0.00    +0.000 F 
ENDBRANCH  32  33
ENDBRANCH   6  32
TORSDOF 7
ENDMDL
MODEL 2
REMARK VINA RESULT:     -10.4      1.947      2.970
REMARK  Name = 
REMARK  8 active torsions:
REMARK  status: ('A' for Active; 'I' for Inactive)
REMARK    1  A    between atoms: C_1  and  N_2
REMARK    2  A    between atoms: C_6  and  C_7
REMARK    3  A    between atoms: C_7  and  C_8
REMARK    4  A    between atoms: C_8  and  C_9
REMARK    5  A    between atoms: C_13  and  N_14
REMARK    6  A    between atoms: C_19  and  C_20
REMARK    7  A    between atoms: C_20  and  N_21
REMARK    8  A    between atoms: C_30  and  C_31
REMARK                            x       y       z     vdW  Elec       q    Type
REMARK                         _______ _______ _______ _____ _____    ______ ____
ROOT
ATOM      1  N   UNL     1       1.519   8.031  20.315  0.00  0.00    +0.000 N 
ATOM      2  C   UNL     1       1.613   6.702  20.880  0.00  0.00    +0.000 C 
ATOM      3  C   UNL     1       2.300   5.906  19.850  0.00  0.00    +0.000 A 
ATOM      4  C   UNL     1       2.723   6.725  18.801  0.00  0.00    +0.000 A 
ATOM      5  C   UNL     1       3.453   6.187  17.750  0.00  0.00    +0.000 A 
ATOM      6  C   UNL     1       3.717   4.790  17.752  0.00  0.00    +0.000 A 
ATOM      7  C   UNL     1       3.216   3.988  18.804  0.00  0.00    +0.000 A 
ATOM      8  C   UNL     1       2.501   4.526  19.873  0.00  0.00    +0.000 A 
ATOM      9  C   UNL     1       2.187   8.107  19.088  0.00  0.00    +0.000 C 
ATOM     10  O   UNL     1       2.328   9.046  18.329  0.00  0.00    +0.000 OA
ENDROOT
BRANCH   1  15
ATOM     11  C   UNL     1      -0.694  11.059  20.745  0.00  0.00    +0.000 A 
ATOM     12  C   UNL     1      -0.851  11.034  22.137  0.00  0.00    +0.000 A 
ATOM     13  C   UNL     1      -0.310  10.010  22.927  0.00  0.00    +0.000 A 
ATOM     14  C   UNL     1       0.451   8.972  22.358  0.00  0.00    +0.000 A 
ATOM     15  C   UNL     1       0.670   8.959  20.991  0.00  0.00    +0.000 A 
ATOM     16  C   UNL     1       0.059   9.988  20.230  0.00  0.00    +0.000 A 
BRANCH  11  17
ATOM     17  C   UNL     1      -1.306  12.184  19.746  0.00  0.00    +0.000 C 
ATOM     18  C   UNL     1      -2.847  12.131  19.559  0.00  0.00    +0.000 C 
ATOM     19  O   UNL     1      -2.739  11.900  18.141  0.00  0.00    +0.000 OA
ATOM     20  C   UNL     1      -1.298  11.883  18.214  0.00  0.00    +0.000 C 
BRANCH  17  21
ATOM     21  C   UNL     1      -0.780  13.606  20.072  0.00  0.00    +0.000 C 
BRANCH  21  27
ATOM     22  C   UNL     1       1.738  13.307  18.184  0.00  0.00    +0.000 C 
ATOM     23  N   UNL     1       1.739  13.525  19.607  0.00  0.00    +0.000 N 
ATOM     24  C   UNL     1       2.859  13.615  20.377  0.00  0.00    +0.000 A 
ATOM     25  N   UNL     1       2.512  13.788  21.632  0.00  0.00    +0.000 NA
ATOM     26  N   UNL     1       1.141  13.800  21.684  0.00  0.00    +0.000 NA
ATOM     27  C   UNL     1       0.668  13.664  20.460  0.00  0.00    +0.000 A 
ENDBRANCH  21  27
ENDBRANCH  17  21
ENDBRANCH  11  17
ENDBRANCH   1  15
BRANCH   8  28
ATOM     28  C   UNL     1       1.966   3.651  20.974  0.00  0.00    +0.000 C 
ATOM     29  F   UNL     1       0.611   3.652  21.078  0.00  0.00    +0.000 F 
ATOM     30  F   UNL     1       2.333   2.351  20.815  0.00  0.00    +0.000 F 
ATOM     31  F   UNL     1       2.422   4.030  22.198  0.00  0.00    +0.000 F 
ENDBRANCH   8  28
BRANCH   6  32
ATOM     32  C   UNL     1       4.598   4.108  16.712  0.00  0.00    +0.000 C 
BRANCH  32  33
ATOM     33  N   UNL     1       5.738   4.942  16.255  0.00  0.00    +0.000 NA
ATOM     34  C   UNL     1       6.898   4.110  15.859  0.00  0.00    +0.000 C 
ATOM     35  C   UNL     1       6.585   3.724  14.450  0.00  0.00    +0.000 C 
ATOM     36  C   UNL     1       5.633   4.752  13.920  0.00  0.00    +0.000 C 
ATOM     37  C   UNL     1       5.387   5.714  15.035  0.00  0.00    +0.000 C 
ATOM     38  C   UNL     1       6.961   4.567  13.297  0.00  0.00    +0.000 C 
ATOM     39  F   UNL     1       7.052   4.004  12.042  0.00  0.00    +0.000 F 
ATOM     40  F   UNL     1       7.943   5.524  13.387  0.00  0.00    +0.000 F 
ENDBRANCH  32  33
ENDBRANCH   6  32
TORSDOF 7
ENDMDL
MODEL 3
REMARK VINA RESULT:     -10.3      1.961      2.801
REMARK  Name = 
REMARK  8 active torsions:
REMARK  status: ('A' for Active; 'I' for Inactive)
REMARK    1  A    between atoms: C_1  and  N_2
REMARK    2  A    between atoms: C_6  and  C_7
REMARK    3  A    between atoms: C_7  and  C_8
REMARK    4  A    between atoms: C_8  and  C_9
REMARK    5  A    between atoms: C_13  and  N_14
REMARK    6  A    between atoms: C_19  and  C_20
REMARK    7  A    between atoms: C_20  and  N_21
REMARK    8  A    between atoms: C_30  and  C_31
REMARK                            x       y       z     vdW  Elec       q    Type
REMARK                         _______ _______ _______ _____ _____    ______ ____
ROOT
ATOM      1  N   UNL     1       1.478   8.027  20.403  0.00  0.00    +0.000 N 
ATOM      2  C   UNL     1       1.587   6.693  20.955  0.00  0.00    +0.000 C 
ATOM      3  C   UNL     1       2.253   5.907  19.903  0.00  0.00    +0.000 A 
ATOM      4  C   UNL     1       2.651   6.735  18.853  0.00  0.00    +0.000 A 
ATOM      5  C   UNL     1       3.359   6.207  17.781  0.00  0.00    +0.000 A 
ATOM      6  C   UNL     1       3.626   4.811  17.766  0.00  0.00    +0.000 A 
ATOM      7  C   UNL     1       3.149   3.999  18.822  0.00  0.00    +0.000 A 
ATOM      8  C   UNL     1       2.457   4.527  19.911  0.00  0.00    +0.000 A 
ATOM      9  C   UNL     1       2.119   8.113  19.163  0.00  0.00    +0.000 C 
ATOM     10  O   UNL     1       2.242   9.059  18.408  0.00  0.00    +0.000 OA
ENDROOT
BRANCH   1  15
ATOM     11  C   UNL     1      -0.648  11.100  20.934  0.00  0.00    +0.000 A 
ATOM     12  C   UNL     1      -0.840  11.011  22.318  0.00  0.00    +0.000 A 
ATOM     13  C   UNL     1      -0.351   9.933  23.069  0.00  0.00    +0.000 A 
ATOM     14  C   UNL     1       0.390   8.900  22.466  0.00  0.00    +0.000 A 
ATOM     15  C   UNL     1       0.642   8.947  21.105  0.00  0.00    +0.000 A 
ATOM     16  C   UNL     1       0.083  10.032  20.383  0.00  0.00    +0.000 A 
BRANCH  11  17
ATOM     17  C   UNL     1      -1.200  12.292  19.979  0.00  0.00    +0.000 C 
ATOM     18  C   UNL     1      -2.695  12.175  19.575  0.00  0.00    +0.000 C 
ATOM     19  O   UNL     1      -2.385  12.108  18.170  0.00  0.00    +0.000 OA
ATOM     20  C   UNL     1      -0.969  12.163  18.440  0.00  0.00    +0.000 C 
BRANCH  17  21
ATOM     21  C   UNL     1      -0.822  13.697  20.517  0.00  0.00    +0.000 C 
BRANCH  21  27
ATOM     22  C   UNL     1      -0.331  16.142  18.574  0.00  0.00    +0.000 C 
ATOM     23  N   UNL     1       0.666  15.292  19.171  0.00  0.00    +0.000 N 
ATOM     24  C   UNL     1       2.007  15.404  18.961  0.00  0.00    +0.000 A 
ATOM     25  N   UNL     1       2.632  14.461  19.630  0.00  0.00    +0.000 NA
ATOM     26  N   UNL     1       1.682  13.713  20.276  0.00  0.00    +0.000 NA
ATOM     27  C   UNL     1       0.492  14.224  20.021  0.00  0.00    +0.000 A 
ENDBRANCH  21  27
ENDBRANCH  17  21
ENDBRANCH  11  17
ENDBRANCH   1  15
BRANCH   8  28
ATOM     28  C   UNL     1       1.947   3.642  21.016  0.00  0.00    +0.000 C 
ATOM     29  F   UNL     1       2.318   4.037  22.262  0.00  0.00    +0.000 F 
ATOM     30  F   UNL     1       0.589   3.573  21.028  0.00  0.00    +0.000 F 
ATOM     31  F   UNL     1       2.394   2.362  20.896  0.00  0.00    +0.000 F 
ENDBRANCH   8  28
BRANCH   6  32
ATOM     32  C   UNL     1       4.485   4.139  16.702  0.00  0.00    +0.000 C 
BRANCH  32  33
ATOM     33  N   UNL     1       5.698   4.915  16.335  0.00  0.00    +0.000 NA
ATOM     34  C   UNL     1       6.806   4.026  15.916  0.00  0.00    +0.000 C 
ATOM     35  C   UNL     1       6.513   3.760  14.475  0.00  0.00    +0.000 C 
ATOM     36  C   UNL     1       5.656   4.890  13.992  0.00  0.00    +0.000 C 
ATOM     37  C   UNL     1       5.443   5.791  15.162  0.00  0.00    +0.000 C 
ATOM     38  C   UNL     1       6.987   4.648  13.394  0.00  0.00    +0.000 C 
ATOM     39  F   UNL     1       7.078   4.166  12.106  0.00  0.00    +0.000 F 
ATOM     40  F   UNL     1       8.032   5.521  13.578  0.00  0.00    +0.000 F 
ENDBRANCH  32  33
ENDBRANCH   6  32
TORSDOF 7
ENDMDL
MODEL 4
REMARK VINA RESULT:     -10.2      1.905      2.888
REMARK  Name = 
REMARK  8 active torsions:
REMARK  status: ('A' for Active; 'I' for Inactive)
REMARK    1  A    between atoms: C_1  and  N_2
REMARK    2  A    between atoms: C_6  and  C_7
REMARK    3  A    between atoms: C_7  and  C_8
REMARK    4  A    between atoms: C_8  and  C_9
REMARK    5  A    between atoms: C_13  and  N_14
REMARK    6  A    between atoms: C_19  and  C_20
REMARK    7  A    between atoms: C_20  and  N_21
REMARK    8  A    between atoms: C_30  and  C_31
REMARK                            x       y       z     vdW  Elec       q    Type
REMARK                         _______ _______ _______ _____ _____    ______ ____
ROOT
ATOM      1  N   UNL     1       1.489   8.023  20.367  0.00  0.00    +0.000 N 
ATOM      2  C   UNL     1       1.586   6.687  20.917  0.00  0.00    +0.000 C 
ATOM      3  C   UNL     1       2.261   5.901  19.871  0.00  0.00    +0.000 A 
ATOM      4  C   UNL     1       2.676   6.730  18.827  0.00  0.00    +0.000 A 
ATOM      5  C   UNL     1       3.394   6.201  17.763  0.00  0.00    +0.000 A 
ATOM      6  C   UNL     1       3.654   4.805  17.748  0.00  0.00    +0.000 A 
ATOM      7  C   UNL     1       3.161   3.992  18.796  0.00  0.00    +0.000 A 
ATOM      8  C   UNL     1       2.459   4.521  19.877  0.00  0.00    +0.000 A 
ATOM      9  C   UNL     1       2.146   8.110  19.134  0.00  0.00    +0.000 C 
ATOM     10  O   UNL     1       2.282   9.057  18.383  0.00  0.00    +0.000 OA
ENDROOT
BRANCH   1  15
ATOM     11  C   UNL     1      -0.738  11.033  20.843  0.00  0.00    +0.000 A 
ATOM     12  C   UNL     1      -0.860  11.011  22.238  0.00  0.00    +0.000 A 
ATOM     13  C   UNL     1      -0.290   9.995  23.018  0.00  0.00    +0.000 A 
ATOM     14  C   UNL     1       0.465   8.962  22.433  0.00  0.00    +0.000 A 
ATOM     15  C   UNL     1       0.650   8.946  21.061  0.00  0.00    +0.000 A 
ATOM     16  C   UNL     1       0.011   9.966  20.313  0.00  0.00    +0.000 A 
BRANCH  11  17
ATOM     17  C   UNL     1      -1.386  12.148  19.856  0.00  0.00    +0.000 C 
ATOM     18  C   UNL     1      -2.141  13.303  20.570  0.00  0.00    +0.000 C 
ATOM     19  O   UNL     1      -3.387  12.984  19.923  0.00  0.00    +0.000 OA
ATOM     20  C   UNL     1      -2.793  11.857  19.247  0.00  0.00    +0.000 C 
BRANCH  17  21
ATOM     21  C   UNL     1      -0.373  12.648  18.793  0.00  0.00    +0.000 C 
BRANCH  21  27
ATOM     22  C   UNL     1       2.157  13.243  20.591  0.00  0.00    +0.000 C 
ATOM     23  N   UNL     1       1.347  14.202  19.886  0.00  0.00    +0.000 N 
ATOM     24  C   UNL     1       1.542  15.549  19.910  0.00  0.00    +0.000 A 
ATOM     25  N   UNL     1       0.616  16.136  19.186  0.00  0.00    +0.000 NA
ATOM     26  N   UNL     1      -0.206  15.156  18.692  0.00  0.00    +0.000 NA
ATOM     27  C   UNL     1       0.244  13.981  19.093  0.00  0.00    +0.000 A 
ENDBRANCH  21  27
ENDBRANCH  17  21
ENDBRANCH  11  17
ENDBRANCH   1  15
BRANCH   8  28
ATOM     28  C   UNL     1       1.932   3.635  20.974  0.00  0.00    +0.000 C 
ATOM     29  F   UNL     1       2.338   3.991  22.221  0.00  0.00    +0.000 F 
ATOM     30  F   UNL     1       0.572   3.619  21.008  0.00  0.00    +0.000 F 
ATOM     31  F   UNL     1       2.326   2.341  20.823  0.00  0.00    +0.000 F 
ENDBRANCH   8  28
BRANCH   6  32
ATOM     32  C   UNL     1       4.524   4.131  16.692  0.00  0.00    +0.000 C 
BRANCH  32  33
ATOM     33  N   UNL     1       5.687   4.950  16.264  0.00  0.00    +0.000 NA
ATOM     34  C   UNL     1       6.840   4.101  15.885  0.00  0.00    +0.000 C 
ATOM     35  C   UNL     1       6.549   3.732  14.466  0.00  0.00    +0.000 C 
ATOM     36  C   UNL     1       5.625   4.781  13.927  0.00  0.00    +0.000 C 
ATOM     37  C   UNL     1       5.372   5.738  15.044  0.00  0.00    +0.000 C 
ATOM     38  C   UNL     1       6.962   4.578  13.329  0.00  0.00    +0.000 C 
ATOM     39  F   UNL     1       7.068   4.025  12.070  0.00  0.00    +0.000 F 
ATOM     40  F   UNL     1       7.957   5.518  13.446  0.00  0.00    +0.000 F 
ENDBRANCH  32  33
ENDBRANCH   6  32
TORSDOF 7
ENDMDL
MODEL 5
REMARK VINA RESULT:     -10.1      1.841      2.654
REMARK  Name = 
REMARK  8 active torsions:
REMARK  status: ('A' for Active; 'I' for Inactive)
REMARK    1  A    between atoms: C_1  and  N_2
REMARK    2  A    between atoms: C_6  and  C_7
REMARK    3  A    between atoms: C_7  and  C_8
REMARK    4  A    between atoms: C_8  and  C_9
REMARK    5  A    between atoms: C_13  and  N_14
REMARK    6  A    between atoms: C_19  and  C_20
REMARK    7  A    between atoms: C_20  and  N_21
REMARK    8  A    between atoms: C_30  and  C_31
REMARK                            x       y       z     vdW  Elec       q    Type
REMARK                         _______ _______ _______ _____ _____    ______ ____
ROOT
ATOM      1  N   UNL     1       1.441   8.068  20.354  0.00  0.00    +0.000 N 
ATOM      2  C   UNL     1       1.599   6.748  20.927  0.00  0.00    +0.000 C 
ATOM      3  C   UNL     1       2.261   5.960  19.874  0.00  0.00    +0.000 A 
ATOM      4  C   UNL     1       2.611   6.780  18.798  0.00  0.00    +0.000 A 
ATOM      5  C   UNL     1       3.306   6.250  17.720  0.00  0.00    +0.000 A 
ATOM      6  C   UNL     1       3.610   4.862  17.723  0.00  0.00    +0.000 A 
ATOM      7  C   UNL     1       3.180   4.057  18.805  0.00  0.00    +0.000 A 
ATOM      8  C   UNL     1       2.501   4.587  19.901  0.00  0.00    +0.000 A 
ATOM      9  C   UNL     1       2.050   8.149  19.097  0.00  0.00    +0.000 C 
ATOM     10  O   UNL     1       2.128   9.083  18.322  0.00  0.00    +0.000 OA
ENDROOT
BRANCH   1  15
ATOM     11  C   UNL     1      -0.802  11.061  20.866  0.00  0.00    +0.000 A 
ATOM     12  C   UNL     1      -0.919  11.025  22.261  0.00  0.00    +0.000 A 
ATOM     13  C   UNL     1      -0.340  10.005  23.030  0.00  0.00    +0.000 A 
ATOM     14  C   UNL     1       0.419   8.981  22.433  0.00  0.00    +0.000 A 
ATOM     15  C   UNL     1       0.599   8.979  21.060  0.00  0.00    +0.000 A 
ATOM     16  C   UNL     1      -0.049  10.004  20.323  0.00  0.00    +0.000 A 
BRANCH  11  17
ATOM     17  C   UNL     1      -1.459  12.182  19.892  0.00  0.00    +0.000 C 
ATOM     18  C   UNL     1      -2.472  11.637  18.848  0.00  0.00    +0.000 C 
ATOM     19  O   UNL     1      -1.685  12.104  17.736  0.00  0.00    +0.000 OA
ATOM     20  C   UNL     1      -0.660  12.603  18.619  0.00  0.00    +0.000 C 
BRANCH  17  21
ATOM     21  C   UNL     1      -1.995  13.403  20.683  0.00  0.00    +0.000 C 
BRANCH  21  27
ATOM     22  C   UNL     1      -2.556  14.017  23.733  0.00  0.00    +0.000 C 
ATOM     23  N   UNL     1      -3.462  13.424  22.785  0.00  0.00    +0.000 N 
ATOM     24  C   UNL     1      -4.725  13.005  23.077  0.00  0.00    +0.000 A 
ATOM     25  N   UNL     1      -5.271  12.488  21.999  0.00  0.00    +0.000 NA
ATOM     26  N   UNL     1      -4.345  12.559  20.991  0.00  0.00    +0.000 NA
ATOM     27  C   UNL     1      -3.257  13.145  21.453  0.00  0.00    +0.000 A 
ENDBRANCH  21  27
ENDBRANCH  17  21
ENDBRANCH  11  17
ENDBRANCH   1  15
BRANCH   8  28
ATOM     28  C   UNL     1       2.043   3.710  21.034  0.00  0.00    +0.000 C 
ATOM     29  F   UNL     1       2.449   4.127  22.261  0.00  0.00    +0.000 F 
ATOM     30  F   UNL     1       0.687   3.621  21.093  0.00  0.00    +0.000 F 
ATOM     31  F   UNL     1       2.504   2.435  20.916  0.00  0.00    +0.000 F 
ENDBRANCH   8  28
BRANCH   6  32
ATOM     32  C   UNL     1       4.461   4.193  16.650  0.00  0.00    +0.000 C 
BRANCH  32  33
ATOM     33  N   UNL     1       5.671   4.968  16.278  0.00  0.00    +0.000 NA
ATOM     34  C   UNL     1       6.796   4.078  15.910  0.00  0.00    +0.000 C 
ATOM     35  C   UNL     1       6.532   3.758  14.474  0.00  0.00    +0.000 C 
ATOM     36  C   UNL     1       5.672   4.860  13.936  0.00  0.00    +0.000 C 
ATOM     37  C   UNL     1       5.429   5.799  15.070  0.00  0.00    +0.000 C 
ATOM     38  C   UNL     1       7.017   4.612  13.371  0.00  0.00    +0.000 C 
ATOM     39  F   UNL     1       7.136   4.085  12.103  0.00  0.00    +0.000 F 
ATOM     40  F   UNL     1       8.049   5.502  13.542  0.00  0.00    +0.000 F 
ENDBRANCH  32  33
ENDBRANCH   6  32
TORSDOF 7
ENDMDL
MODEL 6
REMARK VINA RESULT:     -10.1      1.096      1.525
REMARK  Name = 
REMARK  8 active torsions:
REMARK  status: ('A' for Active; 'I' for Inactive)
REMARK    1  A    between atoms: C_1  and  N_2
REMARK    2  A    between atoms: C_6  and  C_7
REMARK    3  A    between atoms: C_7  and  C_8
REMARK    4  A    between atoms: C_8  and  C_9
REMARK    5  A    between atoms: C_13  and  N_14
REMARK    6  A    between atoms: C_19  and  C_20
REMARK    7  A    between atoms: C_20  and  N_21
REMARK    8  A    between atoms: C_30  and  C_31
REMARK                            x       y       z     vdW  Elec       q    Type
REMARK                         _______ _______ _______ _____ _____    ______ ____
ROOT
ATOM      1  N   UNL     1       1.548   8.045  20.351  0.00  0.00    +0.000 N 
ATOM      2  C   UNL     1       1.649   6.708  20.898  0.00  0.00    +0.000 C 
ATOM      3  C   UNL     1       2.286   5.916  19.834  0.00  0.00    +0.000 A 
ATOM      4  C   UNL     1       2.677   6.741  18.777  0.00  0.00    +0.000 A 
ATOM      5  C   UNL     1       3.359   6.205  17.693  0.00  0.00    +0.000 A 
ATOM      6  C   UNL     1       3.607   4.806  17.671  0.00  0.00    +0.000 A 
ATOM      7  C   UNL     1       3.137   3.998  18.734  0.00  0.00    +0.000 A 
ATOM      8  C   UNL     1       2.471   4.534  19.835  0.00  0.00    +0.000 A 
ATOM      9  C   UNL     1       2.169   8.125  19.099  0.00  0.00    +0.000 C 
ATOM     10  O   UNL     1       2.291   9.071  18.344  0.00  0.00    +0.000 OA
ENDROOT
BRANCH   1  15
ATOM     11  C   UNL     1       0.116  11.400  21.320  0.00  0.00    +0.000 A 
ATOM     12  C   UNL     1      -0.594  11.025  22.467  0.00  0.00    +0.000 A 
ATOM     13  C   UNL     1      -0.672   9.690  22.890  0.00  0.00    +0.000 A 
ATOM     14  C   UNL     1      -0.008   8.664  22.193  0.00  0.00    +0.000 A 
ATOM     15  C   UNL     1       0.737   8.975  21.069  0.00  0.00    +0.000 A 
ATOM     16  C   UNL     1       0.743  10.331  20.654  0.00  0.00    +0.000 A 
BRANCH  11  17
ATOM     17  C   UNL     1       0.239  12.911  20.738  0.00  0.00    +0.000 C 
ATOM     18  C   UNL     1       1.362  13.124  19.686  0.00  0.00    +0.000 C 
ATOM     19  O   UNL     1       2.036  14.103  20.498  0.00  0.00    +0.000 OA
ATOM     20  C   UNL     1       1.072  13.945  21.559  0.00  0.00    +0.000 C 
BRANCH  17  21
ATOM     21  C   UNL     1      -1.133  13.480  20.290  0.00  0.00    +0.000 C 
BRANCH  21  27
ATOM     22  C   UNL     1      -4.142  12.514  20.367  0.00  0.00    +0.000 C 
ATOM     23  N   UNL     1      -3.167  12.242  19.343  0.00  0.00    +0.000 N 
ATOM     24  C   UNL     1      -3.398  11.486  18.235  0.00  0.00    +0.000 A 
ATOM     25  N   UNL     1      -2.298  11.413  17.520  0.00  0.00    +0.000 NA
ATOM     26  N   UNL     1      -1.328  12.123  18.181  0.00  0.00    +0.000 NA
ATOM     27  C   UNL     1      -1.854  12.647  19.273  0.00  0.00    +0.000 A 
ENDBRANCH  21  27
ENDBRANCH  17  21
ENDBRANCH  11  17
ENDBRANCH   1  15
BRANCH   8  28
ATOM     28  C   UNL     1       1.970   3.653  20.947  0.00  0.00    +0.000 C 
ATOM     29  F   UNL     1       2.392   4.023  22.184  0.00  0.00    +0.000 F 
ATOM     30  F   UNL     1       0.611   3.626  21.003  0.00  0.00    +0.000 F 
ATOM     31  F   UNL     1       2.372   2.361  20.801  0.00  0.00    +0.000 F 
ENDBRANCH   8  28
BRANCH   6  32
ATOM     32  C   UNL     1       4.438   4.125  16.591  0.00  0.00    +0.000 C 
BRANCH  32  33
ATOM     33  N   UNL     1       5.659   4.880  16.211  0.00  0.00    +0.000 NA
ATOM     34  C   UNL     1       6.754   3.973  15.796  0.00  0.00    +0.000 C 
ATOM     35  C   UNL     1       6.451   3.696  14.358  0.00  0.00    +0.000 C 
ATOM     36  C   UNL     1       5.607   4.833  13.868  0.00  0.00    +0.000 C 
ATOM     37  C   UNL     1       5.412   5.748  15.030  0.00  0.00    +0.000 C 
ATOM     38  C   UNL     1       6.932   4.567  13.267  0.00  0.00    +0.000 C 
ATOM     39  F   UNL     1       7.011   4.071  11.983  0.00  0.00    +0.000 F 
ATOM     40  F   UNL     1       7.989   5.427  13.437  0.00  0.00    +0.000 F 
ENDBRANCH  32  33
ENDBRANCH   6  32
TORSDOF 7
ENDMDL
MODEL 7
REMARK VINA RESULT:     -10.1      1.713      2.139
REMARK  Name = 
REMARK  8 active torsions:
REMARK  status: ('A' for Active; 'I' for Inactive)
REMARK    1  A    between atoms: C_1  and  N_2
REMARK    2  A    between atoms: C_6  and  C_7
REMARK    3  A    between atoms: C_7  and  C_8
REMARK    4  A    between atoms: C_8  and  C_9
REMARK    5  A    between atoms: C_13  and  N_14
REMARK    6  A    between atoms: C_19  and  C_20
REMARK    7  A    between atoms: C_20  and  N_21
REMARK    8  A    between atoms: C_30  and  C_31
REMARK                            x       y       z     vdW  Elec       q    Type
REMARK                         _______ _______ _______ _____ _____    ______ ____
ROOT
ATOM      1  N   UNL     1       1.374   8.325  20.232  0.00  0.00    +0.000 N 
ATOM      2  C   UNL     1       1.425   6.960  20.714  0.00  0.00    +0.000 C 
ATOM      3  C   UNL     1       2.137   6.218  19.660  0.00  0.00    +0.000 A 
ATOM      4  C   UNL     1       2.613   7.095  18.682  0.00  0.00    +0.000 A 
ATOM      5  C   UNL     1       3.373   6.611  17.626  0.00  0.00    +0.000 A 
ATOM      6  C   UNL     1       3.614   5.212  17.548  0.00  0.00    +0.000 A 
ATOM      7  C   UNL     1       3.060   4.354  18.527  0.00  0.00    +0.000 A 
ATOM      8  C   UNL     1       2.314   4.837  19.601  0.00  0.00    +0.000 A 
ATOM      9  C   UNL     1       2.089   8.465  19.038  0.00  0.00    +0.000 C 
ATOM     10  O   UNL     1       2.274   9.448  18.346  0.00  0.00    +0.000 OA
ENDROOT
BRANCH   1  15
ATOM     11  C   UNL     1      -0.915  11.283  20.735  0.00  0.00    +0.000 A 
ATOM     12  C   UNL     1      -1.037  11.246  22.130  0.00  0.00    +0.000 A 
ATOM     13  C   UNL     1      -0.445  10.235  22.901  0.00  0.00    +0.000 A 
ATOM     14  C   UNL     1       0.331   9.223  22.307  0.00  0.00    +0.000 A 
ATOM     15  C   UNL     1       0.515   9.223  20.935  0.00  0.00    +0.000 A 
ATOM     16  C   UNL     1      -0.145  10.237  20.195  0.00  0.00    +0.000 A 
BRANCH  11  17
ATOM     17  C   UNL     1      -1.586  12.394  19.759  0.00  0.00    +0.000 C 
ATOM     18  C   UNL     1      -0.660  12.927  18.631  0.00  0.00    +0.000 C 
ATOM     19  O   UNL     1      -0.737  14.283  19.110  0.00  0.00    +0.000 OA
ATOM     20  C   UNL     1      -1.564  13.884  20.223  0.00  0.00    +0.000 C 
BRANCH  17  21
ATOM     21  C   UNL     1      -2.983  11.956  19.246  0.00  0.00    +0.000 C 
BRANCH  21  27
ATOM     22  C   UNL     1      -5.311  12.131  17.115  0.00  0.00    +0.000 C 
ATOM     23  N   UNL     1      -4.029  11.496  16.952  0.00  0.00    +0.000 N 
ATOM     24  C   UNL     1      -3.628  10.838  15.830  0.00  0.00    +0.000 A 
ATOM     25  N   UNL     1      -2.420  10.354  16.018  0.00  0.00    +0.000 NA
ATOM     26  N   UNL     1      -2.033  10.692  17.289  0.00  0.00    +0.000 NA
ATOM     27  C   UNL     1      -2.992  11.403  17.851  0.00  0.00    +0.000 A 
ENDBRANCH  21  27
ENDBRANCH  17  21
ENDBRANCH  11  17
ENDBRANCH   1  15
BRANCH   8  28
ATOM     28  C   UNL     1       1.724   3.903  20.623  0.00  0.00    +0.000 C 
ATOM     29  F   UNL     1       1.985   2.590  20.396  0.00  0.00    +0.000 F 
ATOM     30  F   UNL     1       2.178   4.168  21.878  0.00  0.00    +0.000 F 
ATOM     31  F   UNL     1       0.367   3.997  20.681  0.00  0.00    +0.000 F 
ENDBRANCH   8  28
BRANCH   6  32
ATOM     32  C   UNL     1       4.522   4.581  16.500  0.00  0.00    +0.000 C 
BRANCH  32  33
ATOM     33  N   UNL     1       5.757   3.979  17.064  0.00  0.00    +0.000 NA
ATOM     34  C   UNL     1       6.975   4.578  16.470  0.00  0.00    +0.000 C 
ATOM     35  C   UNL     1       7.183   5.818  17.279  0.00  0.00    +0.000 C 
ATOM     36  C   UNL     1       6.490   5.601  18.590  0.00  0.00    +0.000 C 
ATOM     37  C   UNL     1       5.870   4.245  18.521  0.00  0.00    +0.000 C 
ATOM     38  C   UNL     1       7.952   5.820  18.539  0.00  0.00    +0.000 C 
ATOM     39  F   UNL     1       8.480   7.002  19.014  0.00  0.00    +0.000 F 
ATOM     40  F   UNL     1       8.845   4.823  18.847  0.00  0.00    +0.000 F 
ENDBRANCH  32  33
ENDBRANCH   6  32
TORSDOF 7
ENDMDL
MODEL 8
REMARK VINA RESULT:     -10.1      0.839      1.411
REMARK  Name = 
REMARK  8 active torsions:
REMARK  status: ('A' for Active; 'I' for Inactive)
REMARK    1  A    between atoms: C_1  and  N_2
REMARK    2  A    between atoms: C_6  and  C_7
REMARK    3  A    between atoms: C_7  and  C_8
REMARK    4  A    between atoms: C_8  and  C_9
REMARK    5  A    between atoms: C_13  and  N_14
REMARK    6  A    between atoms: C_19  and  C_20
REMARK    7  A    between atoms: C_20  and  N_21
REMARK    8  A    between atoms: C_30  and  C_31
REMARK                            x       y       z     vdW  Elec       q    Type
REMARK                         _______ _______ _______ _____ _____    ______ ____
ROOT
ATOM      1  N   UNL     1       1.513   8.075  20.257  0.00  0.00    +0.000 N 
ATOM      2  C   UNL     1       1.603   6.753  20.841  0.00  0.00    +0.000 C 
ATOM      3  C   UNL     1       2.304   5.945  19.829  0.00  0.00    +0.000 A 
ATOM      4  C   UNL     1       2.737   6.750  18.775  0.00  0.00    +0.000 A 
ATOM      5  C   UNL     1       3.480   6.199  17.739  0.00  0.00    +0.000 A 
ATOM      6  C   UNL     1       3.746   4.803  17.763  0.00  0.00    +0.000 A 
ATOM      7  C   UNL     1       3.234   4.014  18.821  0.00  0.00    +0.000 A 
ATOM      8  C   UNL     1       2.506   4.566  19.873  0.00  0.00    +0.000 A 
ATOM      9  C   UNL     1       2.196   8.135  19.037  0.00  0.00    +0.000 C 
ATOM     10  O   UNL     1       2.343   9.064  18.266  0.00  0.00    +0.000 OA
ENDROOT
BRANCH   1  15
ATOM     11  C   UNL     1      -0.279  11.345  20.840  0.00  0.00    +0.000 A 
ATOM     12  C   UNL     1      -0.806  11.095  22.114  0.00  0.00    +0.000 A 
ATOM     13  C   UNL     1      -0.647   9.858  22.754  0.00  0.00    +0.000 A 
ATOM     14  C   UNL     1       0.082   8.814  22.156  0.00  0.00    +0.000 A 
ATOM     15  C   UNL     1       0.655   9.010  20.911  0.00  0.00    +0.000 A 
ATOM     16  C   UNL     1       0.423  10.261  20.284  0.00  0.00    +0.000 A 
BRANCH  11  17
ATOM     17  C   UNL     1      -0.435  12.732  20.010  0.00  0.00    +0.000 C 
ATOM     18  C   UNL     1       0.798  13.674  20.061  0.00  0.00    +0.000 C 
ATOM     19  O   UNL     1       0.048  14.741  20.671  0.00  0.00    +0.000 OA
ATOM     20  C   UNL     1      -1.145  13.930  20.715  0.00  0.00    +0.000 C 
BRANCH  17  21
ATOM     21  C   UNL     1      -0.964  12.496  18.571  0.00  0.00    +0.000 C 
BRANCH  21  27
ATOM     22  C   UNL     1      -1.797   9.860  17.038  0.00  0.00    +0.000 C 
ATOM     23  N   UNL     1      -2.650  10.720  17.816  0.00  0.00    +0.000 N 
ATOM     24  C   UNL     1      -3.987  10.532  17.992  0.00  0.00    +0.000 A 
ATOM     25  N   UNL     1      -4.470  11.506  18.729  0.00  0.00    +0.000 NA
ATOM     26  N   UNL     1      -3.433  12.352  19.029  0.00  0.00    +0.000 NA
ATOM     27  C   UNL     1      -2.325  11.870  18.498  0.00  0.00    +0.000 A 
ENDBRANCH  21  27
ENDBRANCH  17  21
ENDBRANCH  11  17
ENDBRANCH   1  15
BRANCH   8  28
ATOM     28  C   UNL     1       1.960   3.705  20.980  0.00  0.00    +0.000 C 
ATOM     29  F   UNL     1       0.605   3.711  21.074  0.00  0.00    +0.000 F 
ATOM     30  F   UNL     1       2.325   2.402  20.839  0.00  0.00    +0.000 F 
ATOM     31  F   UNL     1       2.408   4.096  22.204  0.00  0.00    +0.000 F 
ENDBRANCH   8  28
BRANCH   6  32
ATOM     32  C   UNL     1       4.640   4.108  16.743  0.00  0.00    +0.000 C 
BRANCH  32  33
ATOM     33  N   UNL     1       5.702   4.984  16.185  0.00  0.00    +0.000 NA
ATOM     34  C   UNL     1       6.921   4.213  15.847  0.00  0.00    +0.000 C 
ATOM     35  C   UNL     1       6.623   3.669  14.487  0.00  0.00    +0.000 C 
ATOM     36  C   UNL     1       5.583   4.561  13.882  0.00  0.00    +0.000 C 
ATOM     37  C   UNL     1       5.272   5.603  14.904  0.00  0.00    +0.000 C 
ATOM     38  C   UNL     1       6.914   4.423  13.252  0.00  0.00    +0.000 C 
ATOM     39  F   UNL     1       7.034   3.751  12.054  0.00  0.00    +0.000 F 
ATOM     40  F   UNL     1       7.814   5.461  13.229  0.00  0.00    +0.000 F 
ENDBRANCH  32  33
ENDBRANCH   6  32
TORSDOF 7
ENDMDL
MODEL 9
REMARK VINA RESULT:     -10.0      0.683      1.271
REMARK  Name = 
REMARK  8 active torsions:
REMARK  status: ('A' for Active; 'I' for Inactive)
REMARK    1  A    between atoms: C_1  and  N_2
REMARK    2  A    between atoms: C_6  and  C_7
REMARK    3  A    between atoms: C_7  and  C_8
REMARK    4  A    between atoms: C_8  and  C_9
REMARK    5  A    between atoms: C_13  and  N_14
REMARK    6  A    between atoms: C_19  and  C_20
REMARK    7  A    between atoms: C_20  and  N_21
REMARK    8  A    between atoms: C_30  and  C_31
REMARK                            x       y       z     vdW  Elec       q    Type
REMARK                         _______ _______ _______ _____ _____    ______ ____
ROOT
ATOM      1  N   UNL     1       1.533   7.966  20.343  0.00  0.00    +0.000 N 
ATOM      2  C   UNL     1       1.595   6.628  20.894  0.00  0.00    +0.000 C 
ATOM      3  C   UNL     1       2.283   5.831  19.864  0.00  0.00    +0.000 A 
ATOM      4  C   UNL     1       2.736   6.655  18.831  0.00  0.00    +0.000 A 
ATOM      5  C   UNL     1       3.471   6.116  17.785  0.00  0.00    +0.000 A 
ATOM      6  C   UNL     1       3.710   4.715  17.774  0.00  0.00    +0.000 A 
ATOM      7  C   UNL     1       3.178   3.909  18.809  0.00  0.00    +0.000 A 
ATOM      8  C   UNL     1       2.458   4.448  19.873  0.00  0.00    +0.000 A 
ATOM      9  C   UNL     1       2.221   8.043  19.127  0.00  0.00    +0.000 C 
ATOM     10  O   UNL     1       2.391   8.988  18.381  0.00  0.00    +0.000 OA
ENDROOT
BRANCH   1  15
ATOM     11  C   UNL     1      -0.687  10.989  20.759  0.00  0.00    +0.000 A 
ATOM     12  C   UNL     1      -0.820  10.988  22.153  0.00  0.00    +0.000 A 
ATOM     13  C   UNL     1      -0.258   9.982  22.952  0.00  0.00    +0.000 A 
ATOM     14  C   UNL     1       0.498   8.938  22.388  0.00  0.00    +0.000 A 
ATOM     15  C   UNL     1       0.692   8.901  21.018  0.00  0.00    +0.000 A 
ATOM     16  C   UNL     1       0.062   9.913  20.250  0.00  0.00    +0.000 A 
BRANCH  11  17
ATOM     17  C   UNL     1      -1.324  12.092  19.751  0.00  0.00    +0.000 C 
ATOM     18  C   UNL     1      -0.466  13.370  19.544  0.00  0.00    +0.000 C 
ATOM     19  O   UNL     1      -1.497  14.233  20.059  0.00  0.00    +0.000 OA
ATOM     20  C   UNL     1      -2.355  13.108  20.336  0.00  0.00    +0.000 C 
BRANCH  17  21
ATOM     21  C   UNL     1      -1.808  11.460  18.421  0.00  0.00    +0.000 C 
BRANCH  21  27
ATOM     22  C   UNL     1      -3.310  11.152  15.656  0.00  0.00    +0.000 C 
ATOM     23  N   UNL     1      -3.895  11.471  16.933  0.00  0.00    +0.000 N 
ATOM     24  C   UNL     1      -5.218  11.717  17.139  0.00  0.00    +0.000 A 
ATOM     25  N   UNL     1      -5.415  12.000  18.407  0.00  0.00    +0.000 NA
ATOM     26  N   UNL     1      -4.197  11.951  19.036  0.00  0.00    +0.000 NA
ATOM     27  C   UNL     1      -3.277  11.609  18.154  0.00  0.00    +0.000 A 
ENDBRANCH  21  27
ENDBRANCH  17  21
ENDBRANCH  11  17
ENDBRANCH   1  15
BRANCH   8  28
ATOM     28  C   UNL     1       1.890   3.570  20.955  0.00  0.00    +0.000 C 
ATOM     29  F   UNL     1       2.295   3.900  22.210  0.00  0.00    +0.000 F 
ATOM     30  F   UNL     1       0.530   3.601  20.976  0.00  0.00    +0.000 F 
ATOM     31  F   UNL     1       2.241   2.265  20.795  0.00  0.00    +0.000 F 
ENDBRANCH   8  28
BRANCH   6  32
ATOM     32  C   UNL     1       4.594   4.028  16.739  0.00  0.00    +0.000 C 
BRANCH  32  33
ATOM     33  N   UNL     1       5.733   4.862  16.279  0.00  0.00    +0.000 NA
ATOM     34  C   UNL     1       6.878   4.027  15.846  0.00  0.00    +0.000 C 
ATOM     35  C   UNL     1       6.538   3.674  14.434  0.00  0.00    +0.000 C 
ATOM     36  C   UNL     1       5.586   4.722  13.944  0.00  0.00    +0.000 C 
ATOM     37  C   UNL     1       5.368   5.662  15.082  0.00  0.00    +0.000 C 
ATOM     38  C   UNL     1       6.902   4.538  13.293  0.00  0.00    +0.000 C 
ATOM     39  F   UNL     1       6.965   4.002  12.025  0.00  0.00    +0.000 F 
ATOM     40  F   UNL     1       7.893   5.484  13.386  0.00  0.00    +0.000 F 
ENDBRANCH  32  33
ENDBRANCH   6  32
TORSDOF 7
ENDMDL
