MODEL 1
REMARK VINA RESULT:      -9.1      0.000      0.000
REMARK  Name = 
REMARK  7 active torsions:
REMARK  status: ('A' for Active; 'I' for Inactive)
REMARK    1  A    between atoms: C_1  and  N_2
REMARK    2  A    between atoms: C_6  and  C_7
REMARK    3  A    between atoms: C_7  and  C_8
REMARK    4  A    between atoms: C_8  and  C_9
REMARK    5  A    between atoms: C_13  and  N_14
REMARK    6  A    between atoms: C_15  and  C_17
REMARK    7  A    between atoms: C_19  and  C_20
REMARK                            x       y       z     vdW  Elec       q    Type
REMARK                         _______ _______ _______ _____ _____    ______ ____
ROOT
ATOM      1  C   UNL     1       4.498   5.142  17.420  0.00  0.00    +0.000 A 
ATOM      2  C   UNL     1       3.601   4.092  17.168  0.00  0.00    +0.000 A 
ATOM      3  C   UNL     1       2.256   4.167  17.533  0.00  0.00    +0.000 A 
ATOM      4  C   UNL     1       1.763   5.306  18.168  0.00  0.00    +0.000 A 
ATOM      5  C   UNL     1       2.606   6.379  18.448  0.00  0.00    +0.000 A 
ATOM      6  C   UNL     1       3.954   6.284  18.068  0.00  0.00    +0.000 A 
ENDROOT
BRANCH   1   7
ATOM      7  C   UNL     1       6.042   5.065  16.981  0.00  0.00    +0.000 C 
ATOM      8  C   UNL     1       7.050   4.798  18.140  0.00  0.00    +0.000 C 
ATOM      9  O   UNL     1       7.729   6.049  17.928  0.00  0.00    +0.000 OA
ATOM     10  C   UNL     1       6.837   6.397  16.849  0.00  0.00    +0.000 C 
BRANCH   7  11
ATOM     11  C   UNL     1       6.233   4.078  15.813  0.00  0.00    +0.000 C 
BRANCH  11  17
ATOM     12  C   UNL     1       5.660   3.366  12.749  0.00  0.00    +0.000 C 
ATOM     13  N   UNL     1       6.628   4.288  13.281  0.00  0.00    +0.000 N 
ATOM     14  C   UNL     1       7.536   4.975  12.528  0.00  0.00    +0.000 A 
ATOM     15  N   UNL     1       8.267   5.734  13.304  0.00  0.00    +0.000 NA
ATOM     16  N   UNL     1       7.843   5.535  14.595  0.00  0.00    +0.000 NA
ATOM     17  C   UNL     1       6.869   4.647  14.585  0.00  0.00    +0.000 A 
ENDBRANCH  11  17
ENDBRANCH   7  11
ENDBRANCH   1   7
BRANCH   5  18
ATOM     18  N   UNL     1       2.178   7.566  19.074  0.00  0.00    +0.000 N 
ATOM     19  C   UNL     1       1.833   8.753  18.462  0.00  0.00    +0.000 C 
ATOM     20  O   UNL     1       1.788   8.940  17.248  0.00  0.00    +0.000 OA
ATOM     21  H   UNL     1       2.094   7.534  20.094  0.00  0.00    +0.000 HD
BRANCH  19  22
ATOM     22  C   UNL     1       1.450   9.868  19.386  0.00  0.00    +0.000 A 
ATOM     23  C   UNL     1       1.737  11.121  18.977  0.00  0.00    +0.000 A 
ATOM     24  C   UNL     1       1.314  12.211  19.892  0.00  0.00    +0.000 A 
ATOM     25  N   UNL     1       0.688  12.066  21.020  0.00  0.00    +0.000 NA
ATOM     26  C   UNL     1       0.414  10.781  21.387  0.00  0.00    +0.000 A 
ATOM     27  C   UNL     1      -0.259  10.272  22.473  0.00  0.00    +0.000 A 
ATOM     28  C   UNL     1      -0.214   8.882  22.313  0.00  0.00    +0.000 A 
ATOM     29  N   UNL     1       0.415   8.506  21.197  0.00  0.00    +0.000 NA
ATOM     30  N   UNL     1       0.796   9.682  20.607  0.00  0.00    +0.000 N 
BRANCH  24  31
ATOM     31  C   UNL     1       1.582  13.600  19.446  0.00  0.00    +0.000 C 
ATOM     32  C   UNL     1       2.979  14.163  19.599  0.00  0.00    +0.000 C 
ATOM     33  C   UNL     1       2.417  13.926  18.231  0.00  0.00    +0.000 C 
ENDBRANCH  24  31
ENDBRANCH  19  22
ENDBRANCH   5  18
TORSDOF 6
ENDMDL
MODEL 2
REMARK VINA RESULT:      -8.8      1.612      1.964
REMARK  Name = 
REMARK  7 active torsions:
REMARK  status: ('A' for Active; 'I' for Inactive)
REMARK    1  A    between atoms: C_1  and  N_2
REMARK    2  A    between atoms: C_6  and  C_7
REMARK    3  A    between atoms: C_7  and  C_8
REMARK    4  A    between atoms: C_8  and  C_9
REMARK    5  A    between atoms: C_13  and  N_14
REMARK    6  A    between atoms: C_15  and  C_17
REMARK    7  A    between atoms: C_19  and  C_20
REMARK                            x       y       z     vdW  Elec       q    Type
REMARK                         _______ _______ _______ _____ _____    ______ ____
ROOT
ATOM      1  C   UNL     1       4.541   4.776  17.242  0.00  0.00    +0.000 A 
ATOM      2  C   UNL     1       3.905   3.532  17.097  0.00  0.00    +0.000 A 
ATOM      3  C   UNL     1       2.560   3.350  17.418  0.00  0.00    +0.000 A 
ATOM      4  C   UNL     1       1.801   4.416  17.899  0.00  0.00    +0.000 A 
ATOM      5  C   UNL     1       2.378   5.673  18.068  0.00  0.00    +0.000 A 
ATOM      6  C   UNL     1       3.732   5.835  17.734  0.00  0.00    +0.000 A 
ENDROOT
BRANCH   1   7
ATOM      7  C   UNL     1       6.085   4.992  16.852  0.00  0.00    +0.000 C 
ATOM      8  C   UNL     1       7.079   4.994  18.053  0.00  0.00    +0.000 C 
ATOM      9  O   UNL     1       7.500   6.344  17.789  0.00  0.00    +0.000 OA
ATOM     10  C   UNL     1       6.600   6.449  16.667  0.00  0.00    +0.000 C 
BRANCH   7  11
ATOM     11  C   UNL     1       6.516   4.006  15.749  0.00  0.00    +0.000 C 
BRANCH  11  17
ATOM     12  C   UNL     1       5.713   3.382  12.718  0.00  0.00    +0.000 C 
ATOM     13  N   UNL     1       6.700   4.310  13.202  0.00  0.00    +0.000 N 
ATOM     14  C   UNL     1       7.528   5.044  12.402  0.00  0.00    +0.000 A 
ATOM     15  N   UNL     1       8.302   5.796  13.144  0.00  0.00    +0.000 NA
ATOM     16  N   UNL     1       7.989   5.543  14.457  0.00  0.00    +0.000 NA
ATOM     17  C   UNL     1       7.038   4.632  14.494  0.00  0.00    +0.000 A 
ENDBRANCH  11  17
ENDBRANCH   7  11
ENDBRANCH   1   7
BRANCH   5  18
ATOM     18  N   UNL     1       1.672   6.799  18.536  0.00  0.00    +0.000 N 
ATOM     19  C   UNL     1       1.993   8.126  18.334  0.00  0.00    +0.000 C 
ATOM     20  O   UNL     1       2.927   8.535  17.649  0.00  0.00    +0.000 OA
ATOM     21  H   UNL     1       0.818   6.608  19.066  0.00  0.00    +0.000 HD
BRANCH  19  22
ATOM     22  C   UNL     1       1.077   9.116  18.985  0.00  0.00    +0.000 A 
ATOM     23  C   UNL     1       0.317   9.870  18.165  0.00  0.00    +0.000 A 
ATOM     24  C   UNL     1      -0.610  10.819  18.835  0.00  0.00    +0.000 A 
ATOM     25  N   UNL     1      -0.760  10.968  20.115  0.00  0.00    +0.000 NA
ATOM     26  C   UNL     1       0.025  10.179  20.903  0.00  0.00    +0.000 A 
ATOM     27  C   UNL     1       0.095  10.045  22.269  0.00  0.00    +0.000 A 
ATOM     28  C   UNL     1       1.094   9.089  22.494  0.00  0.00    +0.000 A 
ATOM     29  N   UNL     1       1.620   8.611  21.364  0.00  0.00    +0.000 NA
ATOM     30  N   UNL     1       0.951   9.273  20.368  0.00  0.00    +0.000 N 
BRANCH  24  31
ATOM     31  C   UNL     1      -1.486  11.630  17.955  0.00  0.00    +0.000 C 
ATOM     32  C   UNL     1      -2.389  10.924  16.967  0.00  0.00    +0.000 C 
ATOM     33  C   UNL     1      -2.987  11.682  18.112  0.00  0.00    +0.000 C 
ENDBRANCH  24  31
ENDBRANCH  19  22
ENDBRANCH   5  18
TORSDOF 6
ENDMDL
MODEL 3
REMARK VINA RESULT:      -8.8      4.177     10.148
REMARK  Name = 
REMARK  7 active torsions:
REMARK  status: ('A' for Active; 'I' for Inactive)
REMARK    1  A    between atoms: C_1  and  N_2
REMARK    2  A    between atoms: C_6  and  C_7
REMARK    3  A    between atoms: C_7  and  C_8
REMARK    4  A    between atoms: C_8  and  C_9
REMARK    5  A    between atoms: C_13  and  N_14
REMARK    6  A    between atoms: C_15  and  C_17
REMARK    7  A    between atoms: C_19  and  C_20
REMARK                            x       y       z     vdW  Elec       q    Type
REMARK                         _______ _______ _______ _____ _____    ______ ____
ROOT
ATOM      1  C   UNL     1      -1.572  10.849  17.771  0.00  0.00    +0.000 A 
ATOM      2  C   UNL     1      -1.113  12.127  18.130  0.00  0.00    +0.000 A 
ATOM      3  C   UNL     1       0.115  12.318  18.764  0.00  0.00    +0.000 A 
ATOM      4  C   UNL     1       0.930  11.226  19.061  0.00  0.00    +0.000 A 
ATOM      5  C   UNL     1       0.527   9.934  18.732  0.00  0.00    +0.000 A 
ATOM      6  C   UNL     1      -0.710   9.765  18.090  0.00  0.00    +0.000 A 
ENDROOT
BRANCH   1   7
ATOM      7  C   UNL     1      -2.977  10.629  17.022  0.00  0.00    +0.000 C 
ATOM      8  C   UNL     1      -2.933   9.670  15.793  0.00  0.00    +0.000 C 
ATOM      9  O   UNL     1      -3.353  10.704  14.886  0.00  0.00    +0.000 OA
ATOM     10  C   UNL     1      -3.411  11.674  15.953  0.00  0.00    +0.000 C 
BRANCH   7  11
ATOM     11  C   UNL     1      -4.077  10.231  18.024  0.00  0.00    +0.000 C 
BRANCH  11  17
ATOM     12  C   UNL     1      -3.991  12.676  20.083  0.00  0.00    +0.000 C 
ATOM     13  N   UNL     1      -5.066  12.289  19.210  0.00  0.00    +0.000 N 
ATOM     14  C   UNL     1      -6.291  12.890  19.178  0.00  0.00    +0.000 A 
ATOM     15  N   UNL     1      -7.041  12.312  18.273  0.00  0.00    +0.000 NA
ATOM     16  N   UNL     1      -6.303  11.302  17.707  0.00  0.00    +0.000 NA
ATOM     17  C   UNL     1      -5.119  11.273  18.286  0.00  0.00    +0.000 A 
ENDBRANCH  11  17
ENDBRANCH   7  11
ENDBRANCH   1   7
BRANCH   5  18
ATOM     18  N   UNL     1       1.302   8.785  18.987  0.00  0.00    +0.000 N 
ATOM     19  C   UNL     1       2.251   8.220  18.161  0.00  0.00    +0.000 C 
ATOM     20  O   UNL     1       2.616   8.678  17.081  0.00  0.00    +0.000 OA
ATOM     21  H   UNL     1       1.156   8.336  19.896  0.00  0.00    +0.000 HD
BRANCH  19  22
ATOM     22  C   UNL     1       2.895   6.971  18.679  0.00  0.00    +0.000 A 
ATOM     23  C   UNL     1       2.250   6.323  19.671  0.00  0.00    +0.000 A 
ATOM     24  C   UNL     1       2.887   5.067  20.143  0.00  0.00    +0.000 A 
ATOM     25  N   UNL     1       3.980   4.541  19.679  0.00  0.00    +0.000 NA
ATOM     26  C   UNL     1       4.592   5.229  18.673  0.00  0.00    +0.000 A 
ATOM     27  C   UNL     1       5.716   4.947  17.935  0.00  0.00    +0.000 A 
ATOM     28  C   UNL     1       5.856   6.025  17.052  0.00  0.00    +0.000 A 
ATOM     29  N   UNL     1       4.885   6.932  17.181  0.00  0.00    +0.000 NA
ATOM     30  N   UNL     1       4.085   6.438  18.178  0.00  0.00    +0.000 N 
BRANCH  24  31
ATOM     31  C   UNL     1       2.176   4.314  21.204  0.00  0.00    +0.000 C 
ATOM     32  C   UNL     1       1.155   3.271  20.805  0.00  0.00    +0.000 C 
ATOM     33  C   UNL     1       2.424   2.851  21.481  0.00  0.00    +0.000 C 
ENDBRANCH  24  31
ENDBRANCH  19  22
ENDBRANCH   5  18
TORSDOF 6
ENDMDL
MODEL 4
REMARK VINA RESULT:      -8.8      3.501      8.905
REMARK  Name = 
REMARK  7 active torsions:
REMARK  status: ('A' for Active; 'I' for Inactive)
REMARK    1  A    between atoms: C_1  and  N_2
REMARK    2  A    between atoms: C_6  and  C_7
REMARK    3  A    between atoms: C_7  and  C_8
REMARK    4  A    between atoms: C_8  and  C_9
REMARK    5  A    between atoms: C_13  and  N_14
REMARK    6  A    between atoms: C_15  and  C_17
REMARK    7  A    between atoms: C_19  and  C_20
REMARK                            x       y       z     vdW  Elec       q    Type
REMARK                         _______ _______ _______ _____ _____    ______ ____
ROOT
ATOM      1  C   UNL     1      -0.623  10.342  20.426  0.00  0.00    +0.000 A 
ATOM      2  C   UNL     1      -0.667  10.771  21.763  0.00  0.00    +0.000 A 
ATOM      3  C   UNL     1       0.062  10.131  22.765  0.00  0.00    +0.000 A 
ATOM      4  C   UNL     1       0.864   9.032  22.460  0.00  0.00    +0.000 A 
ATOM      5  C   UNL     1       0.944   8.559  21.152  0.00  0.00    +0.000 A 
ATOM      6  C   UNL     1       0.207   9.221  20.157  0.00  0.00    +0.000 A 
ENDROOT
BRANCH   1   7
ATOM      7  C   UNL     1      -1.446  11.092  19.266  0.00  0.00    +0.000 C 
ATOM      8  C   UNL     1      -0.575  11.798  18.183  0.00  0.00    +0.000 C 
ATOM      9  O   UNL     1      -1.110  13.094  18.500  0.00  0.00    +0.000 OA
ATOM     10  C   UNL     1      -1.946  12.541  19.538  0.00  0.00    +0.000 C 
BRANCH   7  11
ATOM     11  C   UNL     1      -2.494  10.151  18.639  0.00  0.00    +0.000 C 
BRANCH  11  17
ATOM     12  C   UNL     1      -4.883  11.832  17.339  0.00  0.00    +0.000 C 
ATOM     13  N   UNL     1      -3.854  11.085  16.667  0.00  0.00    +0.000 N 
ATOM     14  C   UNL     1      -3.780  10.916  15.314  0.00  0.00    +0.000 A 
ATOM     15  N   UNL     1      -2.727  10.197  15.017  0.00  0.00    +0.000 NA
ATOM     16  N   UNL     1      -2.102   9.873  16.196  0.00  0.00    +0.000 NA
ATOM     17  C   UNL     1      -2.792  10.390  17.193  0.00  0.00    +0.000 A 
ENDBRANCH  11  17
ENDBRANCH   7  11
ENDBRANCH   1   7
BRANCH   5  18
ATOM     18  N   UNL     1       1.743   7.465  20.764  0.00  0.00    +0.000 N 
ATOM     19  C   UNL     1       2.338   7.261  19.537  0.00  0.00    +0.000 C 
ATOM     20  O   UNL     1       2.312   8.049  18.595  0.00  0.00    +0.000 OA
ATOM     21  H   UNL     1       1.914   6.755  21.482  0.00  0.00    +0.000 HD
BRANCH  19  22
ATOM     22  C   UNL     1       3.102   5.981  19.396  0.00  0.00    +0.000 A 
ATOM     23  C   UNL     1       4.188   6.007  18.596  0.00  0.00    +0.000 A 
ATOM     24  C   UNL     1       4.952   4.737  18.501  0.00  0.00    +0.000 A 
ATOM     25  N   UNL     1       4.679   3.631  19.124  0.00  0.00    +0.000 NA
ATOM     26  C   UNL     1       3.576   3.655  19.926  0.00  0.00    +0.000 A 
ATOM     27  C   UNL     1       3.032   2.698  20.748  0.00  0.00    +0.000 A 
ATOM     28  C   UNL     1       1.899   3.298  21.310  0.00  0.00    +0.000 A 
ATOM     29  N   UNL     1       1.727   4.560  20.911  0.00  0.00    +0.000 NA
ATOM     30  N   UNL     1       2.774   4.796  20.060  0.00  0.00    +0.000 N 
BRANCH  24  31
ATOM     31  C   UNL     1       6.173   4.752  17.660  0.00  0.00    +0.000 C 
ATOM     32  C   UNL     1       6.915   6.058  17.469  0.00  0.00    +0.000 C 
ATOM     33  C   UNL     1       7.560   4.939  18.228  0.00  0.00    +0.000 C 
ENDBRANCH  24  31
ENDBRANCH  19  22
ENDBRANCH   5  18
TORSDOF 6
ENDMDL
MODEL 5
REMARK VINA RESULT:      -8.7      2.958      9.161
REMARK  Name = 
REMARK  7 active torsions:
REMARK  status: ('A' for Active; 'I' for Inactive)
REMARK    1  A    between atoms: C_1  and  N_2
REMARK    2  A    between atoms: C_6  and  C_7
REMARK    3  A    between atoms: C_7  and  C_8
REMARK    4  A    between atoms: C_8  and  C_9
REMARK    5  A    between atoms: C_13  and  N_14
REMARK    6  A    between atoms: C_15  and  C_17
REMARK    7  A    between atoms: C_19  and  C_20
REMARK                            x       y       z     vdW  Elec       q    Type
REMARK                         _______ _______ _______ _____ _____    ______ ____
ROOT
ATOM      1  C   UNL     1      -0.001  10.546  20.466  0.00  0.00    +0.000 A 
ATOM      2  C   UNL     1      -0.562  10.609  21.753  0.00  0.00    +0.000 A 
ATOM      3  C   UNL     1      -0.302   9.635  22.717  0.00  0.00    +0.000 A 
ATOM      4  C   UNL     1       0.533   8.558  22.423  0.00  0.00    +0.000 A 
ATOM      5  C   UNL     1       1.115   8.441  21.163  0.00  0.00    +0.000 A 
ATOM      6  C   UNL     1       0.844   9.434  20.208  0.00  0.00    +0.000 A 
ENDROOT
BRANCH   1   7
ATOM      7  C   UNL     1      -0.283  11.678  19.360  0.00  0.00    +0.000 C 
ATOM      8  C   UNL     1      -1.521  12.585  19.637  0.00  0.00    +0.000 C 
ATOM      9  O   UNL     1      -2.182  12.165  18.431  0.00  0.00    +0.000 OA
ATOM     10  C   UNL     1      -1.093  11.282  18.092  0.00  0.00    +0.000 C 
BRANCH   7  11
ATOM     11  C   UNL     1       0.988  12.506  19.086  0.00  0.00    +0.000 C 
BRANCH  11  17
ATOM     12  C   UNL     1       0.627  15.683  19.024  0.00  0.00    +0.000 C 
ATOM     13  N   UNL     1       1.211  14.876  20.061  0.00  0.00    +0.000 N 
ATOM     14  C   UNL     1       1.789  15.373  21.194  0.00  0.00    +0.000 A 
ATOM     15  N   UNL     1       2.217  14.385  21.939  0.00  0.00    +0.000 NA
ATOM     16  N   UNL     1       1.929  13.215  21.280  0.00  0.00    +0.000 NA
ATOM     17  C   UNL     1       1.342  13.510  20.137  0.00  0.00    +0.000 A 
ENDBRANCH  11  17
ENDBRANCH   7  11
ENDBRANCH   1   7
BRANCH   5  18
ATOM     18  N   UNL     1       1.979   7.389  20.796  0.00  0.00    +0.000 N 
ATOM     19  C   UNL     1       2.402   7.064  19.524  0.00  0.00    +0.000 C 
ATOM     20  O   UNL     1       2.133   7.692  18.503  0.00  0.00    +0.000 OA
ATOM     21  H   UNL     1       2.346   6.820  21.564  0.00  0.00    +0.000 HD
BRANCH  19  22
ATOM     22  C   UNL     1       3.294   5.865  19.429  0.00  0.00    +0.000 A 
ATOM     23  C   UNL     1       4.562   6.082  19.024  0.00  0.00    +0.000 A 
ATOM     24  C   UNL     1       5.438   4.884  18.974  0.00  0.00    +0.000 A 
ATOM     25  N   UNL     1       5.100   3.673  19.296  0.00  0.00    +0.000 NA
ATOM     26  C   UNL     1       3.810   3.504  19.706  0.00  0.00    +0.000 A 
ATOM     27  C   UNL     1       3.139   2.392  20.155  0.00  0.00    +0.000 A 
ATOM     28  C   UNL     1       1.837   2.831  20.422  0.00  0.00    +0.000 A 
ATOM     29  N   UNL     1       1.671   4.136  20.193  0.00  0.00    +0.000 NA
ATOM     30  N   UNL     1       2.898   4.566  19.762  0.00  0.00    +0.000 N 
BRANCH  24  31
ATOM     31  C   UNL     1       6.848   5.104  18.570  0.00  0.00    +0.000 C 
ATOM     32  C   UNL     1       7.287   4.693  17.181  0.00  0.00    +0.000 C 
ATOM     33  C   UNL     1       7.261   6.143  17.555  0.00  0.00    +0.000 C 
ENDBRANCH  24  31
ENDBRANCH  19  22
ENDBRANCH   5  18
TORSDOF 6
ENDMDL
MODEL 6
REMARK VINA RESULT:      -8.7      3.275      8.944
REMARK  Name = 
REMARK  7 active torsions:
REMARK  status: ('A' for Active; 'I' for Inactive)
REMARK    1  A    between atoms: C_1  and  N_2
REMARK    2  A    between atoms: C_6  and  C_7
REMARK    3  A    between atoms: C_7  and  C_8
REMARK    4  A    between atoms: C_8  and  C_9
REMARK    5  A    between atoms: C_13  and  N_14
REMARK    6  A    between atoms: C_15  and  C_17
REMARK    7  A    between atoms: C_19  and  C_20
REMARK                            x       y       z     vdW  Elec       q    Type
REMARK                         _______ _______ _______ _____ _____    ______ ____
ROOT
ATOM      1  C   UNL     1      -0.821  11.120  20.695  0.00  0.00    +0.000 A 
ATOM      2  C   UNL     1      -1.050  11.228  22.077  0.00  0.00    +0.000 A 
ATOM      3  C   UNL     1      -0.516  10.314  22.986  0.00  0.00    +0.000 A 
ATOM      4  C   UNL     1       0.271   9.254  22.537  0.00  0.00    +0.000 A 
ATOM      5  C   UNL     1       0.530   9.094  21.178  0.00  0.00    +0.000 A 
ATOM      6  C   UNL     1      -0.013  10.027  20.281  0.00  0.00    +0.000 A 
ENDROOT
BRANCH   1   7
ATOM      7  C   UNL     1      -1.419  12.184  19.649  0.00  0.00    +0.000 C 
ATOM      8  C   UNL     1      -0.482  12.541  18.456  0.00  0.00    +0.000 C 
ATOM      9  O   UNL     1      -0.419  13.927  18.832  0.00  0.00    +0.000 OA
ATOM     10  C   UNL     1      -1.270  13.699  19.975  0.00  0.00    +0.000 C 
BRANCH   7  11
ATOM     11  C   UNL     1      -2.822  11.758  19.173  0.00  0.00    +0.000 C 
BRANCH  11  17
ATOM     12  C   UNL     1      -5.145  12.060  16.998  0.00  0.00    +0.000 C 
ATOM     13  N   UNL     1      -3.924  11.309  16.893  0.00  0.00    +0.000 N 
ATOM     14  C   UNL     1      -3.591  10.519  15.831  0.00  0.00    +0.000 A 
ATOM     15  N   UNL     1      -2.416   9.979  16.036  0.00  0.00    +0.000 NA
ATOM     16  N   UNL     1      -1.971  10.408  17.262  0.00  0.00    +0.000 NA
ATOM     17  C   UNL     1      -2.889  11.193  17.790  0.00  0.00    +0.000 A 
ENDBRANCH  11  17
ENDBRANCH   7  11
ENDBRANCH   1   7
BRANCH   5  18
ATOM     18  N   UNL     1       1.327   8.057  20.652  0.00  0.00    +0.000 N 
ATOM     19  C   UNL     1       1.881   7.991  19.390  0.00  0.00    +0.000 C 
ATOM     20  O   UNL     1       1.813   8.873  18.537  0.00  0.00    +0.000 OA
ATOM     21  H   UNL     1       1.531   7.280  21.285  0.00  0.00    +0.000 HD
BRANCH  19  22
ATOM     22  C   UNL     1       2.654   6.744  19.090  0.00  0.00    +0.000 A 
ATOM     23  C   UNL     1       3.593   6.830  18.127  0.00  0.00    +0.000 A 
ATOM     24  C   UNL     1       4.373   5.591  17.873  0.00  0.00    +0.000 A 
ATOM     25  N   UNL     1       4.242   4.462  18.498  0.00  0.00    +0.000 NA
ATOM     26  C   UNL     1       3.284   4.426  19.469  0.00  0.00    +0.000 A 
ATOM     27  C   UNL     1       2.912   3.430  20.340  0.00  0.00    +0.000 A 
ATOM     28  C   UNL     1       1.866   3.974  21.095  0.00  0.00    +0.000 A 
ATOM     29  N   UNL     1       1.590   5.238  20.766  0.00  0.00    +0.000 NA
ATOM     30  N   UNL     1       2.477   5.533  19.764  0.00  0.00    +0.000 N 
BRANCH  24  31
ATOM     31  C   UNL     1       5.441   5.672  16.846  0.00  0.00    +0.000 C 
ATOM     32  C   UNL     1       5.313   4.840  15.588  0.00  0.00    +0.000 C 
ATOM     33  C   UNL     1       5.242   6.334  15.504  0.00  0.00    +0.000 C 
ENDBRANCH  24  31
ENDBRANCH  19  22
ENDBRANCH   5  18
TORSDOF 6
ENDMDL
MODEL 7
REMARK VINA RESULT:      -8.7      3.596      9.411
REMARK  Name = 
REMARK  7 active torsions:
REMARK  status: ('A' for Active; 'I' for Inactive)
REMARK    1  A    between atoms: C_1  and  N_2
REMARK    2  A    between atoms: C_6  and  C_7
REMARK    3  A    between atoms: C_7  and  C_8
REMARK    4  A    between atoms: C_8  and  C_9
REMARK    5  A    between atoms: C_13  and  N_14
REMARK    6  A    between atoms: C_15  and  C_17
REMARK    7  A    between atoms: C_19  and  C_20
REMARK                            x       y       z     vdW  Elec       q    Type
REMARK                         _______ _______ _______ _____ _____    ______ ____
ROOT
ATOM      1  C   UNL     1      -0.334  10.269  20.265  0.00  0.00    +0.000 A 
ATOM      2  C   UNL     1      -0.308  10.466  21.656  0.00  0.00    +0.000 A 
ATOM      3  C   UNL     1       0.497   9.695  22.494  0.00  0.00    +0.000 A 
ATOM      4  C   UNL     1       1.309   8.693  21.964  0.00  0.00    +0.000 A 
ATOM      5  C   UNL     1       1.323   8.449  20.592  0.00  0.00    +0.000 A 
ATOM      6  C   UNL     1       0.509   9.240  19.766  0.00  0.00    +0.000 A 
ENDROOT
BRANCH   1   7
ATOM      7  C   UNL     1      -1.245  11.171  19.296  0.00  0.00    +0.000 C 
ATOM      8  C   UNL     1      -0.472  12.229  18.452  0.00  0.00    +0.000 C 
ATOM      9  O   UNL     1      -1.177  13.326  19.058  0.00  0.00    +0.000 OA
ATOM     10  C   UNL     1      -1.935  12.430  19.897  0.00  0.00    +0.000 C 
BRANCH   7  11
ATOM     11  C   UNL     1      -2.156  10.288  18.420  0.00  0.00    +0.000 C 
BRANCH  11  17
ATOM     12  C   UNL     1      -3.060  10.950  15.425  0.00  0.00    +0.000 C 
ATOM     13  N   UNL     1      -3.757  11.244  16.648  0.00  0.00    +0.000 N 
ATOM     14  C   UNL     1      -4.927  11.943  16.722  0.00  0.00    +0.000 A 
ATOM     15  N   UNL     1      -5.307  12.034  17.972  0.00  0.00    +0.000 NA
ATOM     16  N   UNL     1      -4.364  11.395  18.738  0.00  0.00    +0.000 NA
ATOM     17  C   UNL     1      -3.417  10.936  17.944  0.00  0.00    +0.000 A 
ENDBRANCH  11  17
ENDBRANCH   7  11
ENDBRANCH   1   7
BRANCH   5  18
ATOM     18  N   UNL     1       2.126   7.465  19.982  0.00  0.00    +0.000 N 
ATOM     19  C   UNL     1       2.074   6.101  20.189  0.00  0.00    +0.000 C 
ATOM     20  O   UNL     1       1.261   5.522  20.906  0.00  0.00    +0.000 OA
ATOM     21  H   UNL     1       2.807   7.800  19.296  0.00  0.00    +0.000 HD
BRANCH  19  22
ATOM     22  C   UNL     1       3.081   5.295  19.428  0.00  0.00    +0.000 A 
ATOM     23  C   UNL     1       4.261   5.892  19.164  0.00  0.00    +0.000 A 
ATOM     24  C   UNL     1       5.257   5.061  18.441  0.00  0.00    +0.000 A 
ATOM     25  N   UNL     1       5.099   3.829  18.066  0.00  0.00    +0.000 NA
ATOM     26  C   UNL     1       3.892   3.266  18.361  0.00  0.00    +0.000 A 
ATOM     27  C   UNL     1       3.408   1.996  18.156  0.00  0.00    +0.000 A 
ATOM     28  C   UNL     1       2.103   2.014  18.662  0.00  0.00    +0.000 A 
ATOM     29  N   UNL     1       1.764   3.194  19.185  0.00  0.00    +0.000 NA
ATOM     30  N   UNL     1       2.876   3.976  19.015  0.00  0.00    +0.000 N 
BRANCH  24  31
ATOM     31  C   UNL     1       6.578   5.681  18.175  0.00  0.00    +0.000 C 
ATOM     32  C   UNL     1       7.617   5.696  19.276  0.00  0.00    +0.000 C 
ATOM     33  C   UNL     1       7.851   4.879  18.042  0.00  0.00    +0.000 C 
ENDBRANCH  24  31
ENDBRANCH  19  22
ENDBRANCH   5  18
TORSDOF 6
ENDMDL
MODEL 8
REMARK VINA RESULT:      -8.6      3.134      9.264
REMARK  Name = 
REMARK  7 active torsions:
REMARK  status: ('A' for Active; 'I' for Inactive)
REMARK    1  A    between atoms: C_1  and  N_2
REMARK    2  A    between atoms: C_6  and  C_7
REMARK    3  A    between atoms: C_7  and  C_8
REMARK    4  A    between atoms: C_8  and  C_9
REMARK    5  A    between atoms: C_13  and  N_14
REMARK    6  A    between atoms: C_15  and  C_17
REMARK    7  A    between atoms: C_19  and  C_20
REMARK                            x       y       z     vdW  Elec       q    Type
REMARK                         _______ _______ _______ _____ _____    ______ ____
ROOT
ATOM      1  C   UNL     1      -0.033  11.010  20.445  0.00  0.00    +0.000 A 
ATOM      2  C   UNL     1      -0.433  11.137  21.786  0.00  0.00    +0.000 A 
ATOM      3  C   UNL     1      -0.137  10.162  22.738  0.00  0.00    +0.000 A 
ATOM      4  C   UNL     1       0.575   9.018  22.377  0.00  0.00    +0.000 A 
ATOM      5  C   UNL     1       0.995   8.835  21.062  0.00  0.00    +0.000 A 
ATOM      6  C   UNL     1       0.691   9.831  20.120  0.00  0.00    +0.000 A 
ENDROOT
BRANCH   1   7
ATOM      7  C   UNL     1      -0.355  12.142  19.351  0.00  0.00    +0.000 C 
ATOM      8  C   UNL     1       0.892  12.862  18.753  0.00  0.00    +0.000 C 
ATOM      9  O   UNL     1       0.473  14.145  19.250  0.00  0.00    +0.000 OA
ATOM     10  C   UNL     1      -0.705  13.573  19.854  0.00  0.00    +0.000 C 
BRANCH   7  11
ATOM     11  C   UNL     1      -1.287  11.595  18.252  0.00  0.00    +0.000 C 
BRANCH  11  17
ATOM     12  C   UNL     1      -3.747  11.027  16.290  0.00  0.00    +0.000 C 
ATOM     13  N   UNL     1      -3.784  11.516  17.641  0.00  0.00    +0.000 N 
ATOM     14  C   UNL     1      -4.921  11.896  18.295  0.00  0.00    +0.000 A 
ATOM     15  N   UNL     1      -4.622  12.285  19.508  0.00  0.00    +0.000 NA
ATOM     16  N   UNL     1      -3.261  12.173  19.655  0.00  0.00    +0.000 NA
ATOM     17  C   UNL     1      -2.752  11.730  18.523  0.00  0.00    +0.000 A 
ENDBRANCH  11  17
ENDBRANCH   7  11
ENDBRANCH   1   7
BRANCH   5  18
ATOM     18  N   UNL     1       1.729   7.714  20.625  0.00  0.00    +0.000 N 
ATOM     19  C   UNL     1       2.203   7.473  19.352  0.00  0.00    +0.000 C 
ATOM     20  O   UNL     1       2.107   8.244  18.400  0.00  0.00    +0.000 OA
ATOM     21  H   UNL     1       1.951   7.015  21.339  0.00  0.00    +0.000 HD
BRANCH  19  22
ATOM     22  C   UNL     1       2.922   6.172  19.168  0.00  0.00    +0.000 A 
ATOM     23  C   UNL     1       3.885   6.140  18.224  0.00  0.00    +0.000 A 
ATOM     24  C   UNL     1       4.609   4.851  18.085  0.00  0.00    +0.000 A 
ATOM     25  N   UNL     1       4.412   3.780  18.792  0.00  0.00    +0.000 NA
ATOM     26  C   UNL     1       3.432   3.864  19.738  0.00  0.00    +0.000 A 
ATOM     27  C   UNL     1       2.995   2.957  20.673  0.00  0.00    +0.000 A 
ATOM     28  C   UNL     1       1.961   3.606  21.359  0.00  0.00    +0.000 A 
ATOM     29  N   UNL     1       1.752   4.851  20.927  0.00  0.00    +0.000 NA
ATOM     30  N   UNL     1       2.673   5.026  19.928  0.00  0.00    +0.000 N 
BRANCH  24  31
ATOM     31  C   UNL     1       5.701   4.802  17.082  0.00  0.00    +0.000 C 
ATOM     32  C   UNL     1       5.469   4.065  15.780  0.00  0.00    +0.000 C 
ATOM     33  C   UNL     1       5.648   5.552  15.773  0.00  0.00    +0.000 C 
ENDBRANCH  24  31
ENDBRANCH  19  22
ENDBRANCH   5  18
TORSDOF 6
ENDMDL
MODEL 9
REMARK VINA RESULT:      -8.6      2.877      8.863
REMARK  Name = 
REMARK  7 active torsions:
REMARK  status: ('A' for Active; 'I' for Inactive)
REMARK    1  A    between atoms: C_1  and  N_2
REMARK    2  A    between atoms: C_6  and  C_7
REMARK    3  A    between atoms: C_7  and  C_8
REMARK    4  A    between atoms: C_8  and  C_9
REMARK    5  A    between atoms: C_13  and  N_14
REMARK    6  A    between atoms: C_15  and  C_17
REMARK    7  A    between atoms: C_19  and  C_20
REMARK                            x       y       z     vdW  Elec       q    Type
REMARK                         _______ _______ _______ _____ _____    ______ ____
ROOT
ATOM      1  C   UNL     1      -0.664  10.883  20.491  0.00  0.00    +0.000 A 
ATOM      2  C   UNL     1      -0.871  11.107  21.862  0.00  0.00    +0.000 A 
ATOM      3  C   UNL     1      -0.289  10.296  22.837  0.00  0.00    +0.000 A 
ATOM      4  C   UNL     1       0.526   9.226  22.468  0.00  0.00    +0.000 A 
ATOM      5  C   UNL     1       0.764   8.953  21.123  0.00  0.00    +0.000 A 
ATOM      6  C   UNL     1       0.173   9.784  20.158  0.00  0.00    +0.000 A 
ENDROOT
BRANCH   1   7
ATOM      7  C   UNL     1      -1.318  11.828  19.367  0.00  0.00    +0.000 C 
ATOM      8  C   UNL     1      -2.876  11.861  19.351  0.00  0.00    +0.000 C 
ATOM      9  O   UNL     1      -2.940  11.334  18.014  0.00  0.00    +0.000 OA
ATOM     10  C   UNL     1      -1.502  11.249  17.935  0.00  0.00    +0.000 C 
BRANCH   7  11
ATOM     11  C   UNL     1      -0.712  13.244  19.421  0.00  0.00    +0.000 C 
BRANCH  11  17
ATOM     12  C   UNL     1       1.322  14.358  21.622  0.00  0.00    +0.000 C 
ATOM     13  N   UNL     1       1.626  13.833  20.318  0.00  0.00    +0.000 N 
ATOM     14  C   UNL     1       2.876  13.795  19.772  0.00  0.00    +0.000 A 
ATOM     15  N   UNL     1       2.820  13.252  18.582  0.00  0.00    +0.000 NA
ATOM     16  N   UNL     1       1.506  12.940  18.331  0.00  0.00    +0.000 NA
ATOM     17  C   UNL     1       0.782  13.309  19.369  0.00  0.00    +0.000 A 
ENDBRANCH  11  17
ENDBRANCH   7  11
ENDBRANCH   1   7
BRANCH   5  18
ATOM     18  N   UNL     1       1.586   7.900  20.674  0.00  0.00    +0.000 N 
ATOM     19  C   UNL     1       2.090   7.720  19.402  0.00  0.00    +0.000 C 
ATOM     20  O   UNL     1       1.947   8.501  18.464  0.00  0.00    +0.000 OA
ATOM     21  H   UNL     1       1.852   7.204  21.377  0.00  0.00    +0.000 HD
BRANCH  19  22
ATOM     22  C   UNL     1       2.907   6.481  19.202  0.00  0.00    +0.000 A 
ATOM     23  C   UNL     1       3.954   6.575  18.357  0.00  0.00    +0.000 A 
ATOM     24  C   UNL     1       4.773   5.345  18.203  0.00  0.00    +0.000 A 
ATOM     25  N   UNL     1       4.581   4.216  18.813  0.00  0.00    +0.000 NA
ATOM     26  C   UNL     1       3.514   4.172  19.662  0.00  0.00    +0.000 A 
ATOM     27  C   UNL     1       3.052   3.174  20.487  0.00  0.00    +0.000 A 
ATOM     28  C   UNL     1       1.917   3.708  21.110  0.00  0.00    +0.000 A 
ATOM     29  N   UNL     1       1.668   4.968  20.745  0.00  0.00    +0.000 NA
ATOM     30  N   UNL     1       2.665   5.270  19.855  0.00  0.00    +0.000 N 
BRANCH  24  31
ATOM     31  C   UNL     1       5.954   5.435  17.311  0.00  0.00    +0.000 C 
ATOM     32  C   UNL     1       7.193   6.152  17.804  0.00  0.00    +0.000 C 
ATOM     33  C   UNL     1       7.234   4.675  17.563  0.00  0.00    +0.000 C 
ENDBRANCH  24  31
ENDBRANCH  19  22
ENDBRANCH   5  18
TORSDOF 6
ENDMDL
