MODEL 1
REMARK VINA RESULT:      -8.7      0.000      0.000
REMARK  Name = 
REMARK  8 active torsions:
REMARK  status: ('A' for Active; 'I' for Inactive)
REMARK    1  A    between atoms: C_1  and  C_2
REMARK    2  A    between atoms: N_6  and  C_7
REMARK    3  A    between atoms: C_7  and  C_8
REMARK    4  A    between atoms: C_8  and  C_9
REMARK    5  A    between atoms: C_8  and  C_10
REMARK    6  A    between atoms: C_14  and  N_15
REMARK    7  A    between atoms: C_16  and  C_18
REMARK    8  A    between atoms: C_22  and  C_23
REMARK                            x       y       z     vdW  Elec       q    Type
REMARK                         _______ _______ _______ _____ _____    ______ ____
ROOT
ATOM      1  C   UNL     1       4.311   5.405  17.100  0.00  0.00    +0.000 A 
ATOM      2  C   UNL     1       3.758   4.130  17.299  0.00  0.00    +0.000 A 
ATOM      3  C   UNL     1       2.658   3.956  18.135  0.00  0.00    +0.000 A 
ATOM      4  C   UNL     1       2.087   5.049  18.779  0.00  0.00    +0.000 A 
ATOM      5  C   UNL     1       2.601   6.332  18.600  0.00  0.00    +0.000 A 
ATOM      6  C   UNL     1       3.706   6.505  17.749  0.00  0.00    +0.000 A 
ENDROOT
BRANCH   5   7
ATOM      7  N   UNL     1       2.049   7.468  19.237  0.00  0.00    +0.000 N 
ATOM      8  C   UNL     1       1.773   8.691  18.639  0.00  0.00    +0.000 C 
ATOM      9  O   UNL     1       1.935   8.987  17.462  0.00  0.00    +0.000 OA
ATOM     10  H   UNL     1       1.764   7.385  20.207  0.00  0.00    +0.000 HD
BRANCH   8  11
ATOM     11  C   UNL     1       1.176   9.711  19.558  0.00  0.00    +0.000 A 
ATOM     12  C   UNL     1       1.097  11.035  19.140  0.00  0.00    +0.000 A 
ATOM     13  C   UNL     1       0.503  11.961  19.986  0.00  0.00    +0.000 A 
ATOM     14  C   UNL     1       0.010  11.539  21.218  0.00  0.00    +0.000 A 
ATOM     15  C   UNL     1       0.124  10.192  21.580  0.00  0.00    +0.000 A 
ATOM     16  N   UNL     1       0.709   9.267  20.757  0.00  0.00    +0.000 NA
BRANCH  15  17
ATOM     17  C   UNL     1      -0.433   9.728  22.920  0.00  0.00    +0.000 C 
ATOM     18  F   UNL     1       0.527   9.539  23.873  0.00  0.00    +0.000 F 
ATOM     19  F   UNL     1      -1.313  10.619  23.460  0.00  0.00    +0.000 F 
ATOM     20  F   UNL     1      -1.102   8.543  22.834  0.00  0.00    +0.000 F 
ENDBRANCH  15  17
ENDBRANCH   8  11
ENDBRANCH   5   7
BRANCH   1  21
ATOM     21  C   UNL     1       5.505   5.622  16.169  0.00  0.00    +0.000 C 
ATOM     22  C   UNL     1       5.230   6.854  15.297  0.00  0.00    +0.000 C 
BRANCH  21  23
ATOM     23  C   UNL     1       5.858   4.384  15.308  0.00  0.00    +0.000 C 
BRANCH  23  29
ATOM     24  C   UNL     1       5.501   3.255  12.373  0.00  0.00    +0.000 C 
ATOM     25  C   UNL     1       6.559   4.166  12.859  0.00  0.00    +0.000 A 
ATOM     26  C   UNL     1       7.651   4.707  12.214  0.00  0.00    +0.000 A 
ATOM     27  N   UNL     1       8.352   5.497  13.075  0.00  0.00    +0.000 NA
ATOM     28  N   UNL     1       7.743   5.462  14.252  0.00  0.00    +0.000 NA
ATOM     29  N   UNL     1       6.665   4.669  14.136  0.00  0.00    +0.000 N 
ENDBRANCH  23  29
ENDBRANCH  21  23
ENDBRANCH   1  21
TORSDOF 6
ENDMDL
MODEL 2
REMARK VINA RESULT:      -8.6      5.855      8.119
REMARK  Name = 
REMARK  8 active torsions:
REMARK  status: ('A' for Active; 'I' for Inactive)
REMARK    1  A    between atoms: C_1  and  C_2
REMARK    2  A    between atoms: N_6  and  C_7
REMARK    3  A    between atoms: C_7  and  C_8
REMARK    4  A    between atoms: C_8  and  C_9
REMARK    5  A    between atoms: C_8  and  C_10
REMARK    6  A    between atoms: C_14  and  N_15
REMARK    7  A    between atoms: C_16  and  C_18
REMARK    8  A    between atoms: C_22  and  C_23
REMARK                            x       y       z     vdW  Elec       q    Type
REMARK                         _______ _______ _______ _____ _____    ______ ____
ROOT
ATOM      1  C   UNL     1       4.461   5.595  17.274  0.00  0.00    +0.000 A 
ATOM      2  C   UNL     1       5.179   4.529  16.710  0.00  0.00    +0.000 A 
ATOM      3  C   UNL     1       6.511   4.689  16.338  0.00  0.00    +0.000 A 
ATOM      4  C   UNL     1       7.151   5.910  16.527  0.00  0.00    +0.000 A 
ATOM      5  C   UNL     1       6.475   6.990  17.091  0.00  0.00    +0.000 A 
ATOM      6  C   UNL     1       5.133   6.822  17.475  0.00  0.00    +0.000 A 
ENDROOT
BRANCH   5   7
ATOM      7  N   UNL     1       7.090   8.246  17.300  0.00  0.00    +0.000 N 
ATOM      8  C   UNL     1       8.126   8.516  18.184  0.00  0.00    +0.000 C 
ATOM      9  O   UNL     1       8.699   7.715  18.912  0.00  0.00    +0.000 OA
ATOM     10  H   UNL     1       6.803   9.025  16.717  0.00  0.00    +0.000 HD
BRANCH   8  11
ATOM     11  C   UNL     1       8.588   9.940  18.184  0.00  0.00    +0.000 A 
ATOM     12  C   UNL     1       7.912  10.871  17.404  0.00  0.00    +0.000 A 
ATOM     13  C   UNL     1       8.326  12.196  17.447  0.00  0.00    +0.000 A 
ATOM     14  C   UNL     1       9.398  12.547  18.262  0.00  0.00    +0.000 A 
ATOM     15  C   UNL     1      10.038  11.560  19.020  0.00  0.00    +0.000 A 
ATOM     16  N   UNL     1       9.643  10.250  18.987  0.00  0.00    +0.000 NA
BRANCH  15  17
ATOM     17  C   UNL     1      11.200  11.949  19.927  0.00  0.00    +0.000 C 
ATOM     18  F   UNL     1      10.944  11.750  21.254  0.00  0.00    +0.000 F 
ATOM     19  F   UNL     1      12.333  11.238  19.663  0.00  0.00    +0.000 F 
ATOM     20  F   UNL     1      11.544  13.262  19.813  0.00  0.00    +0.000 F 
ENDBRANCH  15  17
ENDBRANCH   8  11
ENDBRANCH   5   7
BRANCH   1  21
ATOM     21  C   UNL     1       3.004   5.435  17.712  0.00  0.00    +0.000 C 
ATOM     22  C   UNL     1       2.792   6.225  19.011  0.00  0.00    +0.000 C 
BRANCH  21  23
ATOM     23  C   UNL     1       2.557   3.961  17.864  0.00  0.00    +0.000 C 
BRANCH  23  29
ATOM     24  C   UNL     1       4.532   2.523  19.876  0.00  0.00    +0.000 C 
ATOM     25  C   UNL     1       3.118   2.882  20.114  0.00  0.00    +0.000 A 
ATOM     26  C   UNL     1       2.300   2.660  21.201  0.00  0.00    +0.000 A 
ATOM     27  N   UNL     1       1.062   3.177  20.962  0.00  0.00    +0.000 NA
ATOM     28  N   UNL     1       1.068   3.710  19.748  0.00  0.00    +0.000 NA
ATOM     29  N   UNL     1       2.295   3.543  19.229  0.00  0.00    +0.000 N 
ENDBRANCH  23  29
ENDBRANCH  21  23
ENDBRANCH   1  21
TORSDOF 6
ENDMDL
MODEL 3
REMARK VINA RESULT:      -8.6      2.548      3.559
REMARK  Name = 
REMARK  8 active torsions:
REMARK  status: ('A' for Active; 'I' for Inactive)
REMARK    1  A    between atoms: C_1  and  C_2
REMARK    2  A    between atoms: N_6  and  C_7
REMARK    3  A    between atoms: C_7  and  C_8
REMARK    4  A    between atoms: C_8  and  C_9
REMARK    5  A    between atoms: C_8  and  C_10
REMARK    6  A    between atoms: C_14  and  N_15
REMARK    7  A    between atoms: C_16  and  C_18
REMARK    8  A    between atoms: C_22  and  C_23
REMARK                            x       y       z     vdW  Elec       q    Type
REMARK                         _______ _______ _______ _____ _____    ______ ____
ROOT
ATOM      1  C   UNL     1       4.664   4.758  16.708  0.00  0.00    +0.000 A 
ATOM      2  C   UNL     1       4.286   3.416  16.876  0.00  0.00    +0.000 A 
ATOM      3  C   UNL     1       3.289   3.068  17.784  0.00  0.00    +0.000 A 
ATOM      4  C   UNL     1       2.648   4.051  18.532  0.00  0.00    +0.000 A 
ATOM      5  C   UNL     1       2.989   5.394  18.388  0.00  0.00    +0.000 A 
ATOM      6  C   UNL     1       3.989   5.742  17.464  0.00  0.00    +0.000 A 
ENDROOT
BRANCH   5   7
ATOM      7  N   UNL     1       2.361   6.421  19.130  0.00  0.00    +0.000 N 
ATOM      8  C   UNL     1       2.250   7.754  18.756  0.00  0.00    +0.000 C 
ATOM      9  O   UNL     1       2.650   8.262  17.716  0.00  0.00    +0.000 OA
ATOM     10  H   UNL     1       1.889   6.172  19.993  0.00  0.00    +0.000 HD
BRANCH   8  11
ATOM     11  C   UNL     1       1.519   8.617  19.737  0.00  0.00    +0.000 A 
ATOM     12  C   UNL     1       1.414   8.199  21.060  0.00  0.00    +0.000 A 
ATOM     13  C   UNL     1       0.770   9.029  21.967  0.00  0.00    +0.000 A 
ATOM     14  C   UNL     1       0.251  10.243  21.527  0.00  0.00    +0.000 A 
ATOM     15  C   UNL     1       0.387  10.603  20.182  0.00  0.00    +0.000 A 
ATOM     16  N   UNL     1       1.018   9.794  19.275  0.00  0.00    +0.000 NA
BRANCH  15  17
ATOM     17  C   UNL     1      -0.165  11.942  19.706  0.00  0.00    +0.000 C 
ATOM     18  F   UNL     1      -1.513  12.068  19.881  0.00  0.00    +0.000 F 
ATOM     19  F   UNL     1       0.389  13.001  20.362  0.00  0.00    +0.000 F 
ATOM     20  F   UNL     1       0.055  12.164  18.379  0.00  0.00    +0.000 F 
ENDBRANCH  15  17
ENDBRANCH   8  11
ENDBRANCH   5   7
BRANCH   1  21
ATOM     21  C   UNL     1       5.740   5.165  15.700  0.00  0.00    +0.000 C 
ATOM     22  C   UNL     1       5.440   4.484  14.358  0.00  0.00    +0.000 C 
BRANCH  21  23
ATOM     23  C   UNL     1       7.184   4.871  16.175  0.00  0.00    +0.000 C 
BRANCH  23  29
ATOM     24  C   UNL     1       7.480   7.862  17.167  0.00  0.00    +0.000 C 
ATOM     25  C   UNL     1       7.664   6.632  17.966  0.00  0.00    +0.000 A 
ATOM     26  C   UNL     1       8.042   6.457  19.280  0.00  0.00    +0.000 A 
ATOM     27  N   UNL     1       8.076   5.127  19.579  0.00  0.00    +0.000 NA
ATOM     28  N   UNL     1       7.743   4.454  18.487  0.00  0.00    +0.000 NA
ATOM     29  N   UNL     1       7.491   5.343  17.512  0.00  0.00    +0.000 N 
ENDBRANCH  23  29
ENDBRANCH  21  23
ENDBRANCH   1  21
TORSDOF 6
ENDMDL
MODEL 4
REMARK VINA RESULT:      -8.6      2.849      3.791
REMARK  Name = 
REMARK  8 active torsions:
REMARK  status: ('A' for Active; 'I' for Inactive)
REMARK    1  A    between atoms: C_1  and  C_2
REMARK    2  A    between atoms: N_6  and  C_7
REMARK    3  A    between atoms: C_7  and  C_8
REMARK    4  A    between atoms: C_8  and  C_9
REMARK    5  A    between atoms: C_8  and  C_10
REMARK    6  A    between atoms: C_14  and  N_15
REMARK    7  A    between atoms: C_16  and  C_18
REMARK    8  A    between atoms: C_22  and  C_23
REMARK                            x       y       z     vdW  Elec       q    Type
REMARK                         _______ _______ _______ _____ _____    ______ ____
ROOT
ATOM      1  C   UNL     1       4.711   5.129  16.588  0.00  0.00    +0.000 A 
ATOM      2  C   UNL     1       4.344   3.821  16.941  0.00  0.00    +0.000 A 
ATOM      3  C   UNL     1       3.388   3.594  17.929  0.00  0.00    +0.000 A 
ATOM      4  C   UNL     1       2.779   4.665  18.574  0.00  0.00    +0.000 A 
ATOM      5  C   UNL     1       3.110   5.979  18.246  0.00  0.00    +0.000 A 
ATOM      6  C   UNL     1       4.068   6.204  17.242  0.00  0.00    +0.000 A 
ENDROOT
BRANCH   5   7
ATOM      7  N   UNL     1       2.513   7.094  18.879  0.00  0.00    +0.000 N 
ATOM      8  C   UNL     1       1.827   7.083  20.086  0.00  0.00    +0.000 C 
ATOM      9  O   UNL     1       1.643   6.119  20.819  0.00  0.00    +0.000 OA
ATOM     10  H   UNL     1       2.637   8.009  18.458  0.00  0.00    +0.000 HD
BRANCH   8  11
ATOM     11  C   UNL     1       1.312   8.420  20.521  0.00  0.00    +0.000 A 
ATOM     12  C   UNL     1       0.882   8.586  21.833  0.00  0.00    +0.000 A 
ATOM     13  C   UNL     1       0.447   9.843  22.232  0.00  0.00    +0.000 A 
ATOM     14  C   UNL     1       0.452  10.887  21.312  0.00  0.00    +0.000 A 
ATOM     15  C   UNL     1       0.893  10.652  20.005  0.00  0.00    +0.000 A 
ATOM     16  N   UNL     1       1.324   9.419  19.596  0.00  0.00    +0.000 NA
BRANCH  15  17
ATOM     17  C   UNL     1       0.916  11.801  19.005  0.00  0.00    +0.000 C 
ATOM     18  F   UNL     1       1.943  11.723  18.109  0.00  0.00    +0.000 F 
ATOM     19  F   UNL     1      -0.220  11.866  18.253  0.00  0.00    +0.000 F 
ATOM     20  F   UNL     1       1.043  13.021  19.601  0.00  0.00    +0.000 F 
ENDBRANCH  15  17
ENDBRANCH   8  11
ENDBRANCH   5   7
BRANCH   1  21
ATOM     21  C   UNL     1       5.741   5.402  15.490  0.00  0.00    +0.000 C 
ATOM     22  C   UNL     1       5.412   4.522  14.277  0.00  0.00    +0.000 C 
BRANCH  21  23
ATOM     23  C   UNL     1       7.208   5.211  15.949  0.00  0.00    +0.000 C 
BRANCH  23  29
ATOM     24  C   UNL     1       7.563   8.045  17.312  0.00  0.00    +0.000 C 
ATOM     25  C   UNL     1       7.646   6.722  17.965  0.00  0.00    +0.000 A 
ATOM     26  C   UNL     1       7.934   6.374  19.267  0.00  0.00    +0.000 A 
ATOM     27  N   UNL     1       7.895   5.018  19.404  0.00  0.00    +0.000 NA
ATOM     28  N   UNL     1       7.603   4.496  18.221  0.00  0.00    +0.000 NA
ATOM     29  N   UNL     1       7.449   5.506  17.349  0.00  0.00    +0.000 N 
ENDBRANCH  23  29
ENDBRANCH  21  23
ENDBRANCH   1  21
TORSDOF 6
ENDMDL
MODEL 5
REMARK VINA RESULT:      -8.5      2.826      3.798
REMARK  Name = 
REMARK  8 active torsions:
REMARK  status: ('A' for Active; 'I' for Inactive)
REMARK    1  A    between atoms: C_1  and  C_2
REMARK    2  A    between atoms: N_6  and  C_7
REMARK    3  A    between atoms: C_7  and  C_8
REMARK    4  A    between atoms: C_8  and  C_9
REMARK    5  A    between atoms: C_8  and  C_10
REMARK    6  A    between atoms: C_14  and  N_15
REMARK    7  A    between atoms: C_16  and  C_18
REMARK    8  A    between atoms: C_22  and  C_23
REMARK                            x       y       z     vdW  Elec       q    Type
REMARK                         _______ _______ _______ _____ _____    ______ ____
ROOT
ATOM      1  C   UNL     1       4.480   4.777  16.759  0.00  0.00    +0.000 A 
ATOM      2  C   UNL     1       3.782   3.560  16.797  0.00  0.00    +0.000 A 
ATOM      3  C   UNL     1       2.578   3.454  17.490  0.00  0.00    +0.000 A 
ATOM      4  C   UNL     1       2.048   4.559  18.148  0.00  0.00    +0.000 A 
ATOM      5  C   UNL     1       2.707   5.787  18.126  0.00  0.00    +0.000 A 
ATOM      6  C   UNL     1       3.916   5.893  17.418  0.00  0.00    +0.000 A 
ENDROOT
BRANCH   5   7
ATOM      7  N   UNL     1       2.201   6.933  18.782  0.00  0.00    +0.000 N 
ATOM      8  C   UNL     1       1.805   7.011  20.111  0.00  0.00    +0.000 C 
ATOM      9  O   UNL     1       1.848   6.115  20.945  0.00  0.00    +0.000 OA
ATOM     10  H   UNL     1       2.172   7.808  18.269  0.00  0.00    +0.000 HD
BRANCH   8  11
ATOM     11  C   UNL     1       1.320   8.362  20.537  0.00  0.00    +0.000 A 
ATOM     12  C   UNL     1       0.954   8.562  21.864  0.00  0.00    +0.000 A 
ATOM     13  C   UNL     1       0.547   9.831  22.253  0.00  0.00    +0.000 A 
ATOM     14  C   UNL     1       0.516  10.854  21.310  0.00  0.00    +0.000 A 
ATOM     15  C   UNL     1       0.894  10.585  19.989  0.00  0.00    +0.000 A 
ATOM     16  N   UNL     1       1.296   9.339  19.590  0.00  0.00    +0.000 NA
BRANCH  15  17
ATOM     17  C   UNL     1       0.878  11.710  18.962  0.00  0.00    +0.000 C 
ATOM     18  F   UNL     1       0.943  12.956  19.518  0.00  0.00    +0.000 F 
ATOM     19  F   UNL     1       1.927  11.643  18.093  0.00  0.00    +0.000 F 
ATOM     20  F   UNL     1      -0.247  11.711  18.193  0.00  0.00    +0.000 F 
ENDBRANCH  15  17
ENDBRANCH   8  11
ENDBRANCH   5   7
BRANCH   1  21
ATOM     21  C   UNL     1       5.791   4.922  15.984  0.00  0.00    +0.000 C 
ATOM     22  C   UNL     1       5.814   3.883  14.856  0.00  0.00    +0.000 C 
BRANCH  21  23
ATOM     23  C   UNL     1       7.055   4.824  16.873  0.00  0.00    +0.000 C 
BRANCH  23  29
ATOM     24  C   UNL     1       7.931   5.540  19.828  0.00  0.00    +0.000 C 
ATOM     25  C   UNL     1       7.894   6.447  18.662  0.00  0.00    +0.000 A 
ATOM     26  C   UNL     1       8.170   7.793  18.556  0.00  0.00    +0.000 A 
ATOM     27  N   UNL     1       7.998   8.200  17.267  0.00  0.00    +0.000 NA
ATOM     28  N   UNL     1       7.607   7.152  16.554  0.00  0.00    +0.000 NA
ATOM     29  N   UNL     1       7.543   6.093  17.378  0.00  0.00    +0.000 N 
ENDBRANCH  23  29
ENDBRANCH  21  23
ENDBRANCH   1  21
TORSDOF 6
ENDMDL
MODEL 6
REMARK VINA RESULT:      -8.5      1.892      2.967
REMARK  Name = 
REMARK  8 active torsions:
REMARK  status: ('A' for Active; 'I' for Inactive)
REMARK    1  A    between atoms: C_1  and  C_2
REMARK    2  A    between atoms: N_6  and  C_7
REMARK    3  A    between atoms: C_7  and  C_8
REMARK    4  A    between atoms: C_8  and  C_9
REMARK    5  A    between atoms: C_8  and  C_10
REMARK    6  A    between atoms: C_14  and  N_15
REMARK    7  A    between atoms: C_16  and  C_18
REMARK    8  A    between atoms: C_22  and  C_23
REMARK                            x       y       z     vdW  Elec       q    Type
REMARK                         _______ _______ _______ _____ _____    ______ ____
ROOT
ATOM      1  C   UNL     1       4.648   4.890  16.846  0.00  0.00    +0.000 A 
ATOM      2  C   UNL     1       4.470   3.644  17.467  0.00  0.00    +0.000 A 
ATOM      3  C   UNL     1       3.662   3.521  18.594  0.00  0.00    +0.000 A 
ATOM      4  C   UNL     1       3.012   4.636  19.116  0.00  0.00    +0.000 A 
ATOM      5  C   UNL     1       3.157   5.889  18.523  0.00  0.00    +0.000 A 
ATOM      6  C   UNL     1       3.966   6.007  17.380  0.00  0.00    +0.000 A 
ENDROOT
BRANCH   5   7
ATOM      7  N   UNL     1       2.513   7.045  19.023  0.00  0.00    +0.000 N 
ATOM      8  C   UNL     1       2.254   8.211  18.315  0.00  0.00    +0.000 C 
ATOM      9  O   UNL     1       2.514   8.430  17.138  0.00  0.00    +0.000 OA
ATOM     10  H   UNL     1       2.144   7.020  19.967  0.00  0.00    +0.000 HD
BRANCH   8  11
ATOM     11  C   UNL     1       1.544   9.270  19.100  0.00  0.00    +0.000 A 
ATOM     12  C   UNL     1       1.324  10.513  18.516  0.00  0.00    +0.000 A 
ATOM     13  C   UNL     1       0.628  11.470  19.241  0.00  0.00    +0.000 A 
ATOM     14  C   UNL     1       0.176  11.159  20.520  0.00  0.00    +0.000 A 
ATOM     15  C   UNL     1       0.434   9.890  21.051  0.00  0.00    +0.000 A 
ATOM     16  N   UNL     1       1.121   8.936  20.350  0.00  0.00    +0.000 NA
BRANCH  15  17
ATOM     17  C   UNL     1      -0.078   9.544  22.444  0.00  0.00    +0.000 C 
ATOM     18  F   UNL     1      -0.878   8.438  22.471  0.00  0.00    +0.000 F 
ATOM     19  F   UNL     1       0.931   9.285  23.325  0.00  0.00    +0.000 F 
ATOM     20  F   UNL     1      -0.816  10.544  23.002  0.00  0.00    +0.000 F 
ENDBRANCH  15  17
ENDBRANCH   8  11
ENDBRANCH   5   7
BRANCH   1  21
ATOM     21  C   UNL     1       5.512   5.044  15.593  0.00  0.00    +0.000 C 
ATOM     22  C   UNL     1       5.695   3.664  14.949  0.00  0.00    +0.000 C 
BRANCH  21  23
ATOM     23  C   UNL     1       6.875   5.733  15.855  0.00  0.00    +0.000 C 
BRANCH  23  29
ATOM     24  C   UNL     1       7.561   8.223  17.683  0.00  0.00    +0.000 C 
ATOM     25  C   UNL     1       7.640   6.794  18.052  0.00  0.00    +0.000 A 
ATOM     26  C   UNL     1       8.057   6.184  19.215  0.00  0.00    +0.000 A 
ATOM     27  N   UNL     1       7.952   4.831  19.091  0.00  0.00    +0.000 NA
ATOM     28  N   UNL     1       7.491   4.565  17.877  0.00  0.00    +0.000 NA
ATOM     29  N   UNL     1       7.297   5.734  17.243  0.00  0.00    +0.000 N 
ENDBRANCH  23  29
ENDBRANCH  21  23
ENDBRANCH   1  21
TORSDOF 6
ENDMDL
MODEL 7
REMARK VINA RESULT:      -8.4      4.284      9.962
REMARK  Name = 
REMARK  8 active torsions:
REMARK  status: ('A' for Active; 'I' for Inactive)
REMARK    1  A    between atoms: C_1  and  C_2
REMARK    2  A    between atoms: N_6  and  C_7
REMARK    3  A    between atoms: C_7  and  C_8
REMARK    4  A    between atoms: C_8  and  C_9
REMARK    5  A    between atoms: C_8  and  C_10
REMARK    6  A    between atoms: C_14  and  N_15
REMARK    7  A    between atoms: C_16  and  C_18
REMARK    8  A    between atoms: C_22  and  C_23
REMARK                            x       y       z     vdW  Elec       q    Type
REMARK                         _______ _______ _______ _____ _____    ______ ____
ROOT
ATOM      1  C   UNL     1      -0.507  11.263  18.806  0.00  0.00    +0.000 A 
ATOM      2  C   UNL     1       0.291  12.417  18.788  0.00  0.00    +0.000 A 
ATOM      3  C   UNL     1       1.646  12.338  18.480  0.00  0.00    +0.000 A 
ATOM      4  C   UNL     1       2.227  11.110  18.178  0.00  0.00    +0.000 A 
ATOM      5  C   UNL     1       1.466   9.942  18.177  0.00  0.00    +0.000 A 
ATOM      6  C   UNL     1       0.096  10.027  18.479  0.00  0.00    +0.000 A 
ENDROOT
BRANCH   5   7
ATOM      7  N   UNL     1       2.019   8.676  17.876  0.00  0.00    +0.000 N 
ATOM      8  C   UNL     1       2.312   7.670  18.787  0.00  0.00    +0.000 C 
ATOM      9  O   UNL     1       2.122   7.695  19.997  0.00  0.00    +0.000 OA
ATOM     10  H   UNL     1       2.167   8.435  16.901  0.00  0.00    +0.000 HD
BRANCH   8  11
ATOM     11  C   UNL     1       2.880   6.425  18.178  0.00  0.00    +0.000 A 
ATOM     12  C   UNL     1       4.029   6.515  17.400  0.00  0.00    +0.000 A 
ATOM     13  C   UNL     1       4.567   5.347  16.878  0.00  0.00    +0.000 A 
ATOM     14  C   UNL     1       3.943   4.133  17.144  0.00  0.00    +0.000 A 
ATOM     15  C   UNL     1       2.786   4.111  17.932  0.00  0.00    +0.000 A 
ATOM     16  N   UNL     1       2.243   5.254  18.453  0.00  0.00    +0.000 NA
BRANCH  15  17
ATOM     17  C   UNL     1       2.115   2.778  18.239  0.00  0.00    +0.000 C 
ATOM     18  F   UNL     1       0.752   2.853  18.286  0.00  0.00    +0.000 F 
ATOM     19  F   UNL     1       2.396   1.821  17.309  0.00  0.00    +0.000 F 
ATOM     20  F   UNL     1       2.495   2.258  19.440  0.00  0.00    +0.000 F 
ENDBRANCH  15  17
ENDBRANCH   8  11
ENDBRANCH   5   7
BRANCH   1  21
ATOM     21  C   UNL     1      -2.003  11.329  19.118  0.00  0.00    +0.000 C 
ATOM     22  C   UNL     1      -2.788  11.014  17.838  0.00  0.00    +0.000 C 
BRANCH  21  23
ATOM     23  C   UNL     1      -2.451  12.674  19.743  0.00  0.00    +0.000 C 
BRANCH  23  29
ATOM     24  C   UNL     1      -0.722  12.276  22.363  0.00  0.00    +0.000 C 
ATOM     25  C   UNL     1      -2.193  12.370  22.269  0.00  0.00    +0.000 A 
ATOM     26  C   UNL     1      -3.169  12.269  23.237  0.00  0.00    +0.000 A 
ATOM     27  N   UNL     1      -4.400  12.425  22.673  0.00  0.00    +0.000 NA
ATOM     28  N   UNL     1      -4.233  12.610  21.371  0.00  0.00    +0.000 NA
ATOM     29  N   UNL     1      -2.915  12.582  21.115  0.00  0.00    +0.000 N 
ENDBRANCH  23  29
ENDBRANCH  21  23
ENDBRANCH   1  21
TORSDOF 6
ENDMDL
MODEL 8
REMARK VINA RESULT:      -8.3      1.471      1.868
REMARK  Name = 
REMARK  8 active torsions:
REMARK  status: ('A' for Active; 'I' for Inactive)
REMARK    1  A    between atoms: C_1  and  C_2
REMARK    2  A    between atoms: N_6  and  C_7
REMARK    3  A    between atoms: C_7  and  C_8
REMARK    4  A    between atoms: C_8  and  C_9
REMARK    5  A    between atoms: C_8  and  C_10
REMARK    6  A    between atoms: C_14  and  N_15
REMARK    7  A    between atoms: C_16  and  C_18
REMARK    8  A    between atoms: C_22  and  C_23
REMARK                            x       y       z     vdW  Elec       q    Type
REMARK                         _______ _______ _______ _____ _____    ______ ____
ROOT
ATOM      1  C   UNL     1       5.463   4.887  18.867  0.00  0.00    +0.000 A 
ATOM      2  C   UNL     1       5.001   3.603  19.195  0.00  0.00    +0.000 A 
ATOM      3  C   UNL     1       3.756   3.428  19.793  0.00  0.00    +0.000 A 
ATOM      4  C   UNL     1       2.948   4.528  20.067  0.00  0.00    +0.000 A 
ATOM      5  C   UNL     1       3.368   5.818  19.749  0.00  0.00    +0.000 A 
ATOM      6  C   UNL     1       4.621   5.990  19.137  0.00  0.00    +0.000 A 
ENDROOT
BRANCH   5   7
ATOM      7  N   UNL     1       2.577   6.961  20.011  0.00  0.00    +0.000 N 
ATOM      8  C   UNL     1       2.088   7.855  19.067  0.00  0.00    +0.000 C 
ATOM      9  O   UNL     1       2.236   7.797  17.853  0.00  0.00    +0.000 OA
ATOM     10  H   UNL     1       2.275   7.129  20.965  0.00  0.00    +0.000 HD
BRANCH   8  11
ATOM     11  C   UNL     1       1.265   8.969  19.635  0.00  0.00    +0.000 A 
ATOM     12  C   UNL     1       0.945  10.055  18.827  0.00  0.00    +0.000 A 
ATOM     13  C   UNL     1       0.146  11.060  19.354  0.00  0.00    +0.000 A 
ATOM     14  C   UNL     1      -0.305  10.951  20.666  0.00  0.00    +0.000 A 
ATOM     15  C   UNL     1       0.056   9.834  21.428  0.00  0.00    +0.000 A 
ATOM     16  N   UNL     1       0.845   8.836  20.923  0.00  0.00    +0.000 NA
BRANCH  15  17
ATOM     17  C   UNL     1      -0.454   9.707  22.858  0.00  0.00    +0.000 C 
ATOM     18  F   UNL     1       0.544   9.642  23.789  0.00  0.00    +0.000 F 
ATOM     19  F   UNL     1      -1.235  10.760  23.233  0.00  0.00    +0.000 F 
ATOM     20  F   UNL     1      -1.210   8.590  23.054  0.00  0.00    +0.000 F 
ENDBRANCH  15  17
ENDBRANCH   8  11
ENDBRANCH   5   7
BRANCH   1  21
ATOM     21  C   UNL     1       6.818   5.101  18.189  0.00  0.00    +0.000 C 
ATOM     22  C   UNL     1       7.824   5.587  19.240  0.00  0.00    +0.000 C 
BRANCH  21  23
ATOM     23  C   UNL     1       6.761   6.057  16.971  0.00  0.00    +0.000 C 
BRANCH  23  29
ATOM     24  C   UNL     1       4.450   4.199  15.867  0.00  0.00    +0.000 C 
ATOM     25  C   UNL     1       5.715   4.552  15.189  0.00  0.00    +0.000 A 
ATOM     26  C   UNL     1       6.231   4.153  13.975  0.00  0.00    +0.000 A 
ATOM     27  N   UNL     1       7.440   4.745  13.768  0.00  0.00    +0.000 NA
ATOM     28  N   UNL     1       7.712   5.500  14.823  0.00  0.00    +0.000 NA
ATOM     29  N   UNL     1       6.685   5.395  15.683  0.00  0.00    +0.000 N 
ENDBRANCH  23  29
ENDBRANCH  21  23
ENDBRANCH   1  21
TORSDOF 6
ENDMDL
MODEL 9
REMARK VINA RESULT:      -8.3      2.763      3.764
REMARK  Name = 
REMARK  8 active torsions:
REMARK  status: ('A' for Active; 'I' for Inactive)
REMARK    1  A    between atoms: C_1  and  C_2
REMARK    2  A    between atoms: N_6  and  C_7
REMARK    3  A    between atoms: C_7  and  C_8
REMARK    4  A    between atoms: C_8  and  C_9
REMARK    5  A    between atoms: C_8  and  C_10
REMARK    6  A    between atoms: C_14  and  N_15
REMARK    7  A    between atoms: C_16  and  C_18
REMARK    8  A    between atoms: C_22  and  C_23
REMARK                            x       y       z     vdW  Elec       q    Type
REMARK                         _______ _______ _______ _____ _____    ______ ____
ROOT
ATOM      1  C   UNL     1       4.516   4.677  16.770  0.00  0.00    +0.000 A 
ATOM      2  C   UNL     1       3.794   3.474  16.740  0.00  0.00    +0.000 A 
ATOM      3  C   UNL     1       2.559   3.370  17.375  0.00  0.00    +0.000 A 
ATOM      4  C   UNL     1       2.020   4.466  18.044  0.00  0.00    +0.000 A 
ATOM      5  C   UNL     1       2.702   5.680  18.089  0.00  0.00    +0.000 A 
ATOM      6  C   UNL     1       3.943   5.783  17.438  0.00  0.00    +0.000 A 
ENDROOT
BRANCH   5   7
ATOM      7  N   UNL     1       2.188   6.816  18.757  0.00  0.00    +0.000 N 
ATOM      8  C   UNL     1       1.849   6.893  20.101  0.00  0.00    +0.000 C 
ATOM      9  O   UNL     1       1.957   6.007  20.940  0.00  0.00    +0.000 OA
ATOM     10  H   UNL     1       2.108   7.684  18.239  0.00  0.00    +0.000 HD
BRANCH   8  11
ATOM     11  C   UNL     1       1.340   8.232  20.538  0.00  0.00    +0.000 A 
ATOM     12  C   UNL     1       1.515   8.625  21.860  0.00  0.00    +0.000 A 
ATOM     13  C   UNL     1       1.076   9.886  22.239  0.00  0.00    +0.000 A 
ATOM     14  C   UNL     1       0.475  10.710  21.291  0.00  0.00    +0.000 A 
ATOM     15  C   UNL     1       0.325  10.252  19.977  0.00  0.00    +0.000 A 
ATOM     16  N   UNL     1       0.752   9.011  19.589  0.00  0.00    +0.000 NA
BRANCH  15  17
ATOM     17  C   UNL     1      -0.315  11.163  18.936  0.00  0.00    +0.000 C 
ATOM     18  F   UNL     1      -0.473  10.568  17.717  0.00  0.00    +0.000 F 
ATOM     19  F   UNL     1      -1.559  11.585  19.301  0.00  0.00    +0.000 F 
ATOM     20  F   UNL     1       0.411  12.292  18.701  0.00  0.00    +0.000 F 
ENDBRANCH  15  17
ENDBRANCH   8  11
ENDBRANCH   5   7
BRANCH   1  21
ATOM     21  C   UNL     1       5.862   4.820  16.059  0.00  0.00    +0.000 C 
ATOM     22  C   UNL     1       5.954   3.755  14.958  0.00  0.00    +0.000 C 
BRANCH  21  23
ATOM     23  C   UNL     1       7.081   4.758  17.012  0.00  0.00    +0.000 C 
BRANCH  23  29
ATOM     24  C   UNL     1       8.106   5.527  19.906  0.00  0.00    +0.000 C 
ATOM     25  C   UNL     1       7.967   6.423  18.739  0.00  0.00    +0.000 A 
ATOM     26  C   UNL     1       8.188   7.777  18.609  0.00  0.00    +0.000 A 
ATOM     27  N   UNL     1       7.924   8.169  17.331  0.00  0.00    +0.000 NA
ATOM     28  N   UNL     1       7.529   7.103  16.648  0.00  0.00    +0.000 NA
ATOM     29  N   UNL     1       7.552   6.048  17.480  0.00  0.00    +0.000 N 
ENDBRANCH  23  29
ENDBRANCH  21  23
ENDBRANCH   1  21
TORSDOF 6
ENDMDL
