MODEL 1
REMARK VINA RESULT:      -9.7      0.000      0.000
REMARK  Name = 
REMARK  9 active torsions:
REMARK  status: ('A' for Active; 'I' for Inactive)
REMARK    1  A    between atoms: C_1  and  N_2
REMARK    2  A    between atoms: C_6  and  C_7
REMARK    3  A    between atoms: C_7  and  C_8
REMARK    4  A    between atoms: C_8  and  C_9
REMARK    5  A    between atoms: C_13  and  N_14
REMARK    6  A    between atoms: C_19  and  C_20
REMARK    7  A    between atoms: C_20  and  N_21
REMARK    8  A    between atoms: C_27  and  O_28
REMARK    9  A    between atoms: C_31  and  C_32
REMARK                            x       y       z     vdW  Elec       q    Type
REMARK                         _______ _______ _______ _____ _____    ______ ____
ROOT
ATOM      1  N   UNL     1       2.297   7.479  19.321  0.00  0.00    +0.000 N 
ATOM      2  C   UNL     1       1.526   7.819  20.495  0.00  0.00    +0.000 C 
ATOM      3  C   UNL     1       1.001   9.167  20.226  0.00  0.00    +0.000 A 
ATOM      4  C   UNL     1       1.353   9.574  18.942  0.00  0.00    +0.000 A 
ATOM      5  C   UNL     1       0.923  10.813  18.469  0.00  0.00    +0.000 A 
ATOM      6  C   UNL     1       0.150  11.632  19.333  0.00  0.00    +0.000 A 
ATOM      7  C   UNL     1      -0.161  11.179  20.642  0.00  0.00    +0.000 A 
ATOM      8  C   UNL     1       0.272   9.945  21.117  0.00  0.00    +0.000 A 
ATOM      9  C   UNL     1       2.218   8.491  18.353  0.00  0.00    +0.000 C 
ATOM     10  O   UNL     1       2.737   8.569  17.252  0.00  0.00    +0.000 OA
ENDROOT
BRANCH   1  15
ATOM     11  C   UNL     1       5.307   5.280  18.829  0.00  0.00    +0.000 A 
ATOM     12  C   UNL     1       4.772   4.047  19.220  0.00  0.00    +0.000 A 
ATOM     13  C   UNL     1       3.455   3.938  19.709  0.00  0.00    +0.000 A 
ATOM     14  C   UNL     1       2.606   5.056  19.795  0.00  0.00    +0.000 A 
ATOM     15  C   UNL     1       3.078   6.293  19.391  0.00  0.00    +0.000 A 
ATOM     16  C   UNL     1       4.425   6.363  18.958  0.00  0.00    +0.000 A 
BRANCH  11  17
ATOM     17  C   UNL     1       6.815   5.529  18.281  0.00  0.00    +0.000 C 
ATOM     18  C   UNL     1       7.851   5.901  19.376  0.00  0.00    +0.000 C 
ATOM     19  O   UNL     1       8.138   7.177  18.775  0.00  0.00    +0.000 OA
ATOM     20  C   UNL     1       7.172   6.947  17.728  0.00  0.00    +0.000 C 
BRANCH  17  21
ATOM     21  C   UNL     1       7.286   4.396  17.331  0.00  0.00    +0.000 C 
BRANCH  21  27
ATOM     22  C   UNL     1       4.598   3.569  15.869  0.00  0.00    +0.000 C 
ATOM     23  N   UNL     1       5.743   4.216  15.287  0.00  0.00    +0.000 N 
ATOM     24  C   UNL     1       5.857   4.556  13.972  0.00  0.00    +0.000 A 
ATOM     25  N   UNL     1       7.034   5.090  13.757  0.00  0.00    +0.000 NA
ATOM     26  N   UNL     1       7.711   5.092  14.951  0.00  0.00    +0.000 NA
ATOM     27  C   UNL     1       6.925   4.590  15.886  0.00  0.00    +0.000 A 
ENDBRANCH  21  27
ENDBRANCH  17  21
ENDBRANCH  11  17
ENDBRANCH   1  15
BRANCH   8  28
ATOM     28  C   UNL     1      -0.017   9.505  22.532  0.00  0.00    +0.000 C 
ATOM     29  F   UNL     1      -0.673  10.432  23.279  0.00  0.00    +0.000 F 
ATOM     30  F   UNL     1      -0.781   8.381  22.576  0.00  0.00    +0.000 F 
ATOM     31  F   UNL     1       1.120   9.224  23.224  0.00  0.00    +0.000 F 
ENDBRANCH   8  28
BRANCH   6  32
ATOM     32  C   UNL     1      -0.425  12.983  18.921  0.00  0.00    +0.000 C 
BRANCH  32  33
ATOM     33  N   UNL     1      -0.060  14.045  19.875  0.00  0.00    +0.000 NA
ATOM     34  C   UNL     1       1.373  14.334  19.963  0.00  0.00    +0.000 C 
ATOM     35  C   UNL     1       1.904  15.228  18.845  0.00  0.00    +0.000 C 
ATOM     36  C   UNL     1       1.049  16.465  18.662  0.00  0.00    +0.000 C 
ATOM     37  F   UNL     1       1.425  17.104  17.518  0.00  0.00    +0.000 F 
ATOM     38  F   UNL     1       1.304  17.341  19.671  0.00  0.00    +0.000 F 
ATOM     39  C   UNL     1      -0.452  16.176  18.589  0.00  0.00    +0.000 C 
ATOM     40  C   UNL     1      -0.853  15.275  19.757  0.00  0.00    +0.000 C 
BRANCH  39  41
ATOM     41  O   UNL     1      -1.238  17.379  18.633  0.00  0.00    +0.000 OA
ATOM     42  H   UNL     1      -0.638  18.126  18.449  0.00  0.00    +0.000 HD
ENDBRANCH  39  41
ENDBRANCH  32  33
ENDBRANCH   6  32
TORSDOF 8
ENDMDL
MODEL 2
REMARK VINA RESULT:      -9.5      1.129      1.646
REMARK  Name = 
REMARK  9 active torsions:
REMARK  status: ('A' for Active; 'I' for Inactive)
REMARK    1  A    between atoms: C_1  and  N_2
REMARK    2  A    between atoms: C_6  and  C_7
REMARK    3  A    between atoms: C_7  and  C_8
REMARK    4  A    between atoms: C_8  and  C_9
REMARK    5  A    between atoms: C_13  and  N_14
REMARK    6  A    between atoms: C_19  and  C_20
REMARK    7  A    between atoms: C_20  and  N_21
REMARK    8  A    between atoms: C_27  and  O_28
REMARK    9  A    between atoms: C_31  and  C_32
REMARK                            x       y       z     vdW  Elec       q    Type
REMARK                         _______ _______ _______ _____ _____    ______ ____
ROOT
ATOM      1  N   UNL     1       2.282   7.443  19.346  0.00  0.00    +0.000 N 
ATOM      2  C   UNL     1       1.531   7.788  20.532  0.00  0.00    +0.000 C 
ATOM      3  C   UNL     1       0.968   9.118  20.251  0.00  0.00    +0.000 A 
ATOM      4  C   UNL     1       1.280   9.507  18.950  0.00  0.00    +0.000 A 
ATOM      5  C   UNL     1       0.810  10.726  18.464  0.00  0.00    +0.000 A 
ATOM      6  C   UNL     1       0.039  11.544  19.331  0.00  0.00    +0.000 A 
ATOM      7  C   UNL     1      -0.230  11.110  20.656  0.00  0.00    +0.000 A 
ATOM      8  C   UNL     1       0.243   9.897  21.143  0.00  0.00    +0.000 A 
ATOM      9  C   UNL     1       2.155   8.433  18.362  0.00  0.00    +0.000 C 
ATOM     10  O   UNL     1       2.646   8.501  17.246  0.00  0.00    +0.000 OA
ENDROOT
BRANCH   1  15
ATOM     11  C   UNL     1       5.334   5.308  18.834  0.00  0.00    +0.000 A 
ATOM     12  C   UNL     1       4.836   4.069  19.253  0.00  0.00    +0.000 A 
ATOM     13  C   UNL     1       3.531   3.936  19.767  0.00  0.00    +0.000 A 
ATOM     14  C   UNL     1       2.657   5.035  19.851  0.00  0.00    +0.000 A 
ATOM     15  C   UNL     1       3.092   6.276  19.421  0.00  0.00    +0.000 A 
ATOM     16  C   UNL     1       4.429   6.371  18.962  0.00  0.00    +0.000 A 
BRANCH  11  17
ATOM     17  C   UNL     1       6.826   5.583  18.257  0.00  0.00    +0.000 C 
ATOM     18  C   UNL     1       7.869   6.010  19.325  0.00  0.00    +0.000 C 
ATOM     19  O   UNL     1       8.112   7.278  18.688  0.00  0.00    +0.000 OA
ATOM     20  C   UNL     1       7.136   6.996  17.664  0.00  0.00    +0.000 C 
BRANCH  17  21
ATOM     21  C   UNL     1       7.314   4.440  17.326  0.00  0.00    +0.000 C 
BRANCH  21  27
ATOM     22  C   UNL     1       4.679   3.458  15.863  0.00  0.00    +0.000 C 
ATOM     23  N   UNL     1       5.789   4.160  15.280  0.00  0.00    +0.000 N 
ATOM     24  C   UNL     1       5.889   4.494  13.962  0.00  0.00    +0.000 A 
ATOM     25  N   UNL     1       7.036   5.089  13.746  0.00  0.00    +0.000 NA
ATOM     26  N   UNL     1       7.708   5.138  14.942  0.00  0.00    +0.000 NA
ATOM     27  C   UNL     1       6.947   4.602  15.879  0.00  0.00    +0.000 A 
ENDBRANCH  21  27
ENDBRANCH  17  21
ENDBRANCH  11  17
ENDBRANCH   1  15
BRANCH   8  28
ATOM     28  C   UNL     1      -0.001   9.478  22.573  0.00  0.00    +0.000 C 
ATOM     29  F   UNL     1       1.131   9.176  23.264  0.00  0.00    +0.000 F 
ATOM     30  F   UNL     1      -0.632  10.444  23.293  0.00  0.00    +0.000 F 
ATOM     31  F   UNL     1      -0.780   8.367  22.657  0.00  0.00    +0.000 F 
ENDBRANCH   8  28
BRANCH   6  32
ATOM     32  C   UNL     1      -0.577  12.874  18.907  0.00  0.00    +0.000 C 
BRANCH  32  33
ATOM     33  N   UNL     1       0.432  13.945  18.840  0.00  0.00    +0.000 NA
ATOM     34  C   UNL     1      -0.104  15.285  18.588  0.00  0.00    +0.000 C 
ATOM     35  C   UNL     1      -0.679  15.974  19.821  0.00  0.00    +0.000 C 
ATOM     36  C   UNL     1       0.278  15.918  20.994  0.00  0.00    +0.000 C 
ATOM     37  F   UNL     1      -0.367  16.337  22.120  0.00  0.00    +0.000 F 
ATOM     38  F   UNL     1       1.285  16.811  20.795  0.00  0.00    +0.000 F 
ATOM     39  C   UNL     1       0.859  14.526  21.254  0.00  0.00    +0.000 C 
ATOM     40  C   UNL     1       1.398  13.949  19.945  0.00  0.00    +0.000 C 
BRANCH  39  41
ATOM     41  O   UNL     1       1.918  14.554  22.226  0.00  0.00    +0.000 OA
ATOM     42  H   UNL     1       1.989  15.470  22.554  0.00  0.00    +0.000 HD
ENDBRANCH  39  41
ENDBRANCH  32  33
ENDBRANCH   6  32
TORSDOF 8
ENDMDL
MODEL 3
REMARK VINA RESULT:      -9.3      1.566      2.472
REMARK  Name = 
REMARK  9 active torsions:
REMARK  status: ('A' for Active; 'I' for Inactive)
REMARK    1  A    between atoms: C_1  and  N_2
REMARK    2  A    between atoms: C_6  and  C_7
REMARK    3  A    between atoms: C_7  and  C_8
REMARK    4  A    between atoms: C_8  and  C_9
REMARK    5  A    between atoms: C_13  and  N_14
REMARK    6  A    between atoms: C_19  and  C_20
REMARK    7  A    between atoms: C_20  and  N_21
REMARK    8  A    between atoms: C_27  and  O_28
REMARK    9  A    between atoms: C_31  and  C_32
REMARK                            x       y       z     vdW  Elec       q    Type
REMARK                         _______ _______ _______ _____ _____    ______ ____
ROOT
ATOM      1  N   UNL     1       2.212   7.466  19.095  0.00  0.00    +0.000 N 
ATOM      2  C   UNL     1       1.487   7.793  20.301  0.00  0.00    +0.000 C 
ATOM      3  C   UNL     1       1.100   9.203  20.141  0.00  0.00    +0.000 A 
ATOM      4  C   UNL     1       1.483   9.667  18.885  0.00  0.00    +0.000 A 
ATOM      5  C   UNL     1       1.179  10.975  18.511  0.00  0.00    +0.000 A 
ATOM      6  C   UNL     1       0.498  11.801  19.444  0.00  0.00    +0.000 A 
ATOM      7  C   UNL     1       0.152  11.285  20.720  0.00  0.00    +0.000 A 
ATOM      8  C   UNL     1       0.460   9.982  21.097  0.00  0.00    +0.000 A 
ATOM      9  C   UNL     1       2.229   8.550  18.206  0.00  0.00    +0.000 C 
ATOM     10  O   UNL     1       2.747   8.657  17.106  0.00  0.00    +0.000 OA
ENDROOT
BRANCH   1  15
ATOM     11  C   UNL     1       4.502   4.782  17.794  0.00  0.00    +0.000 A 
ATOM     12  C   UNL     1       4.156   3.732  18.652  0.00  0.00    +0.000 A 
ATOM     13  C   UNL     1       3.229   3.911  19.698  0.00  0.00    +0.000 A 
ATOM     14  C   UNL     1       2.584   5.143  19.908  0.00  0.00    +0.000 A 
ATOM     15  C   UNL     1       2.869   6.205  19.067  0.00  0.00    +0.000 A 
ATOM     16  C   UNL     1       3.847   5.992  18.063  0.00  0.00    +0.000 A 
BRANCH  11  17
ATOM     17  C   UNL     1       5.576   4.699  16.579  0.00  0.00    +0.000 C 
ATOM     18  C   UNL     1       5.272   5.634  15.377  0.00  0.00    +0.000 C 
ATOM     19  O   UNL     1       5.151   4.533  14.457  0.00  0.00    +0.000 OA
ATOM     20  C   UNL     1       5.390   3.575  15.509  0.00  0.00    +0.000 C 
BRANCH  17  21
ATOM     21  C   UNL     1       7.040   4.786  17.086  0.00  0.00    +0.000 C 
BRANCH  21  27
ATOM     22  C   UNL     1       8.173   5.725  19.894  0.00  0.00    +0.000 C 
ATOM     23  N   UNL     1       7.979   6.531  18.719  0.00  0.00    +0.000 N 
ATOM     24  C   UNL     1       8.236   7.868  18.644  0.00  0.00    +0.000 A 
ATOM     25  N   UNL     1       7.916   8.310  17.453  0.00  0.00    +0.000 NA
ATOM     26  N   UNL     1       7.430   7.247  16.734  0.00  0.00    +0.000 NA
ATOM     27  C   UNL     1       7.491   6.162  17.485  0.00  0.00    +0.000 A 
ENDBRANCH  21  27
ENDBRANCH  17  21
ENDBRANCH  11  17
ENDBRANCH   1  15
BRANCH   8  28
ATOM     28  C   UNL     1       0.137   9.468  22.479  0.00  0.00    +0.000 C 
ATOM     29  F   UNL     1       1.217   9.008  23.166  0.00  0.00    +0.000 F 
ATOM     30  F   UNL     1      -0.427  10.423  23.265  0.00  0.00    +0.000 F 
ATOM     31  F   UNL     1      -0.738   8.428  22.449  0.00  0.00    +0.000 F 
ENDBRANCH   8  28
BRANCH   6  32
ATOM     32  C   UNL     1       0.061  13.231  19.141  0.00  0.00    +0.000 C 
BRANCH  32  33
ATOM     33  N   UNL     1       0.785  14.210  19.971  0.00  0.00    +0.000 NA
ATOM     34  C   UNL     1       2.244  14.104  19.923  0.00  0.00    +0.000 C 
ATOM     35  C   UNL     1       2.882  14.750  18.697  0.00  0.00    +0.000 C 
ATOM     36  C   UNL     1       2.372  16.160  18.475  0.00  0.00    +0.000 C 
ATOM     37  F   UNL     1       2.791  16.601  17.256  0.00  0.00    +0.000 F 
ATOM     38  F   UNL     1       2.946  16.993  19.384  0.00  0.00    +0.000 F 
ATOM     39  C   UNL     1       0.848  16.284  18.543  0.00  0.00    +0.000 C 
ATOM     40  C   UNL     1       0.338  15.599  19.810  0.00  0.00    +0.000 C 
BRANCH  39  41
ATOM     41  O   UNL     1       0.417  17.657  18.545  0.00  0.00    +0.000 OA
ATOM     42  H   UNL     1       1.127  18.184  18.956  0.00  0.00    +0.000 HD
ENDBRANCH  39  41
ENDBRANCH  32  33
ENDBRANCH   6  32
TORSDOF 8
ENDMDL
MODEL 4
REMARK VINA RESULT:      -9.2      3.590      9.513
REMARK  Name = 
REMARK  9 active torsions:
REMARK  status: ('A' for Active; 'I' for Inactive)
REMARK    1  A    between atoms: C_1  and  N_2
REMARK    2  A    between atoms: C_6  and  C_7
REMARK    3  A    between atoms: C_7  and  C_8
REMARK    4  A    between atoms: C_8  and  C_9
REMARK    5  A    between atoms: C_13  and  N_14
REMARK    6  A    between atoms: C_19  and  C_20
REMARK    7  A    between atoms: C_20  and  N_21
REMARK    8  A    between atoms: C_27  and  O_28
REMARK    9  A    between atoms: C_31  and  C_32
REMARK                            x       y       z     vdW  Elec       q    Type
REMARK                         _______ _______ _______ _____ _____    ______ ____
ROOT
ATOM      1  N   UNL     1       1.456   8.170  20.072  0.00  0.00    +0.000 N 
ATOM      2  C   UNL     1       1.520   6.821  20.584  0.00  0.00    +0.000 C 
ATOM      3  C   UNL     1       2.210   6.050  19.537  0.00  0.00    +0.000 A 
ATOM      4  C   UNL     1       2.616   6.895  18.507  0.00  0.00    +0.000 A 
ATOM      5  C   UNL     1       3.323   6.372  17.425  0.00  0.00    +0.000 A 
ATOM      6  C   UNL     1       3.588   4.978  17.405  0.00  0.00    +0.000 A 
ATOM      7  C   UNL     1       3.130   4.158  18.469  0.00  0.00    +0.000 A 
ATOM      8  C   UNL     1       2.420   4.677  19.547  0.00  0.00    +0.000 A 
ATOM      9  C   UNL     1       2.108   8.274  18.835  0.00  0.00    +0.000 C 
ATOM     10  O   UNL     1       2.252   9.237  18.099  0.00  0.00    +0.000 OA
ENDROOT
BRANCH   1  15
ATOM     11  C   UNL     1      -0.726  11.180  20.638  0.00  0.00    +0.000 A 
ATOM     12  C   UNL     1      -0.782  11.179  22.037  0.00  0.00    +0.000 A 
ATOM     13  C   UNL     1      -0.170  10.162  22.797  0.00  0.00    +0.000 A 
ATOM     14  C   UNL     1       0.555   9.122  22.188  0.00  0.00    +0.000 A 
ATOM     15  C   UNL     1       0.666   9.096  20.808  0.00  0.00    +0.000 A 
ATOM     16  C   UNL     1      -0.011  10.108  20.084  0.00  0.00    +0.000 A 
BRANCH  11  17
ATOM     17  C   UNL     1      -1.417  12.279  19.663  0.00  0.00    +0.000 C 
ATOM     18  C   UNL     1      -0.512  12.782  18.506  0.00  0.00    +0.000 C 
ATOM     19  O   UNL     1      -0.557  14.145  18.966  0.00  0.00    +0.000 OA
ATOM     20  C   UNL     1      -1.373  13.779  20.098  0.00  0.00    +0.000 C 
BRANCH  17  21
ATOM     21  C   UNL     1      -2.836  11.844  19.206  0.00  0.00    +0.000 C 
BRANCH  21  27
ATOM     22  C   UNL     1      -5.213  12.099  17.125  0.00  0.00    +0.000 C 
ATOM     23  N   UNL     1      -3.962  11.414  16.940  0.00  0.00    +0.000 N 
ATOM     24  C   UNL     1      -3.614  10.728  15.815  0.00  0.00    +0.000 A 
ATOM     25  N   UNL     1      -2.432  10.187  15.980  0.00  0.00    +0.000 NA
ATOM     26  N   UNL     1      -1.999  10.516  17.241  0.00  0.00    +0.000 NA
ATOM     27  C   UNL     1      -2.908  11.281  17.816  0.00  0.00    +0.000 A 
ENDBRANCH  21  27
ENDBRANCH  17  21
ENDBRANCH  11  17
ENDBRANCH   1  15
BRANCH   8  28
ATOM     28  C   UNL     1       1.889   3.782  20.640  0.00  0.00    +0.000 C 
ATOM     29  F   UNL     1       0.533   3.780  20.746  0.00  0.00    +0.000 F 
ATOM     30  F   UNL     1       2.252   2.484  20.465  0.00  0.00    +0.000 F 
ATOM     31  F   UNL     1       2.344   4.147  21.868  0.00  0.00    +0.000 F 
ENDBRANCH   8  28
BRANCH   6  32
ATOM     32  C   UNL     1       4.395   4.290  16.308  0.00  0.00    +0.000 C 
BRANCH  32  33
ATOM     33  N   UNL     1       5.720   3.863  16.791  0.00  0.00    +0.000 NA
ATOM     34  C   UNL     1       6.856   4.393  16.034  0.00  0.00    +0.000 C 
ATOM     35  C   UNL     1       7.242   5.824  16.398  0.00  0.00    +0.000 C 
ATOM     36  C   UNL     1       7.378   6.005  17.896  0.00  0.00    +0.000 C 
ATOM     37  F   UNL     1       7.495   7.334  18.178  0.00  0.00    +0.000 F 
ATOM     38  F   UNL     1       8.542   5.438  18.313  0.00  0.00    +0.000 F 
ATOM     39  C   UNL     1       6.205   5.437  18.698  0.00  0.00    +0.000 C 
ATOM     40  C   UNL     1       5.921   4.007  18.238  0.00  0.00    +0.000 C 
BRANCH  39  41
ATOM     41  O   UNL     1       6.468   5.431  20.112  0.00  0.00    +0.000 OA
ATOM     42  H   UNL     1       7.342   5.018  20.244  0.00  0.00    +0.000 HD
ENDBRANCH  39  41
ENDBRANCH  32  33
ENDBRANCH   6  32
TORSDOF 8
ENDMDL
MODEL 5
REMARK VINA RESULT:      -9.0      1.543      2.056
REMARK  Name = 
REMARK  9 active torsions:
REMARK  status: ('A' for Active; 'I' for Inactive)
REMARK    1  A    between atoms: C_1  and  N_2
REMARK    2  A    between atoms: C_6  and  C_7
REMARK    3  A    between atoms: C_7  and  C_8
REMARK    4  A    between atoms: C_8  and  C_9
REMARK    5  A    between atoms: C_13  and  N_14
REMARK    6  A    between atoms: C_19  and  C_20
REMARK    7  A    between atoms: C_20  and  N_21
REMARK    8  A    between atoms: C_27  and  O_28
REMARK    9  A    between atoms: C_31  and  C_32
REMARK                            x       y       z     vdW  Elec       q    Type
REMARK                         _______ _______ _______ _____ _____    ______ ____
ROOT
ATOM      1  N   UNL     1       2.103   7.485  19.023  0.00  0.00    +0.000 N 
ATOM      2  C   UNL     1       1.396   7.794  20.244  0.00  0.00    +0.000 C 
ATOM      3  C   UNL     1       1.069   9.225  20.142  0.00  0.00    +0.000 A 
ATOM      4  C   UNL     1       1.467   9.722  18.903  0.00  0.00    +0.000 A 
ATOM      5  C   UNL     1       1.218  11.055  18.583  0.00  0.00    +0.000 A 
ATOM      6  C   UNL     1       0.576  11.872  19.551  0.00  0.00    +0.000 A 
ATOM      7  C   UNL     1       0.212  11.320  20.807  0.00  0.00    +0.000 A 
ATOM      8  C   UNL     1       0.465   9.991  21.130  0.00  0.00    +0.000 A 
ATOM      9  C   UNL     1       2.164   8.602  18.177  0.00  0.00    +0.000 C 
ATOM     10  O   UNL     1       2.682   8.731  17.080  0.00  0.00    +0.000 OA
ENDROOT
BRANCH   1  15
ATOM     11  C   UNL     1       4.614   4.899  17.954  0.00  0.00    +0.000 A 
ATOM     12  C   UNL     1       3.997   3.743  18.446  0.00  0.00    +0.000 A 
ATOM     13  C   UNL     1       2.799   3.808  19.186  0.00  0.00    +0.000 A 
ATOM     14  C   UNL     1       2.151   5.031  19.434  0.00  0.00    +0.000 A 
ATOM     15  C   UNL     1       2.706   6.199  18.941  0.00  0.00    +0.000 A 
ATOM     16  C   UNL     1       3.938   6.091  18.250  0.00  0.00    +0.000 A 
BRANCH  11  17
ATOM     17  C   UNL     1       6.006   4.947  17.118  0.00  0.00    +0.000 C 
ATOM     18  C   UNL     1       7.285   4.744  17.974  0.00  0.00    +0.000 C 
ATOM     19  O   UNL     1       7.810   6.040  17.631  0.00  0.00    +0.000 OA
ATOM     20  C   UNL     1       6.645   6.345  16.835  0.00  0.00    +0.000 C 
BRANCH  17  21
ATOM     21  C   UNL     1       5.955   4.059  15.846  0.00  0.00    +0.000 C 
BRANCH  21  27
ATOM     22  C   UNL     1       5.563   3.351  12.781  0.00  0.00    +0.000 C 
ATOM     23  N   UNL     1       6.521   4.260  13.350  0.00  0.00    +0.000 N 
ATOM     24  C   UNL     1       7.452   4.954  12.635  0.00  0.00    +0.000 A 
ATOM     25  N   UNL     1       8.195   5.659  13.450  0.00  0.00    +0.000 NA
ATOM     26  N   UNL     1       7.753   5.417  14.727  0.00  0.00    +0.000 NA
ATOM     27  C   UNL     1       6.723   4.593  14.671  0.00  0.00    +0.000 A 
ENDBRANCH  21  27
ENDBRANCH  17  21
ENDBRANCH  11  17
ENDBRANCH   1  15
BRANCH   8  28
ATOM     28  C   UNL     1       0.126   9.437  22.493  0.00  0.00    +0.000 C 
ATOM     29  F   UNL     1       1.195   8.951  23.177  0.00  0.00    +0.000 F 
ATOM     30  F   UNL     1      -0.443  10.371  23.302  0.00  0.00    +0.000 F 
ATOM     31  F   UNL     1      -0.755   8.403  22.422  0.00  0.00    +0.000 F 
ENDBRANCH   8  28
BRANCH   6  32
ATOM     32  C   UNL     1       0.199  13.329  19.306  0.00  0.00    +0.000 C 
BRANCH  32  33
ATOM     33  N   UNL     1       1.391  14.183  19.157  0.00  0.00    +0.000 NA
ATOM     34  C   UNL     1       1.111  15.590  18.861  0.00  0.00    +0.000 C 
ATOM     35  C   UNL     1       0.729  16.425  20.080  0.00  0.00    +0.000 C 
ATOM     36  C   UNL     1       1.705  16.231  21.222  0.00  0.00    +0.000 C 
ATOM     37  F   UNL     1       1.198  16.811  22.347  0.00  0.00    +0.000 F 
ATOM     38  F   UNL     1       2.855  16.904  20.950  0.00  0.00    +0.000 F 
ATOM     39  C   UNL     1       2.018  14.765  21.527  0.00  0.00    +0.000 C 
ATOM     40  C   UNL     1       2.384  14.043  20.230  0.00  0.00    +0.000 C 
BRANCH  39  41
ATOM     41  O   UNL     1       3.103  14.626  22.462  0.00  0.00    +0.000 OA
ATOM     42  H   UNL     1       3.928  14.824  21.982  0.00  0.00    +0.000 HD
ENDBRANCH  39  41
ENDBRANCH  32  33
ENDBRANCH   6  32
TORSDOF 8
ENDMDL
MODEL 6
REMARK VINA RESULT:      -9.0      3.788     10.447
REMARK  Name = 
REMARK  9 active torsions:
REMARK  status: ('A' for Active; 'I' for Inactive)
REMARK    1  A    between atoms: C_1  and  N_2
REMARK    2  A    between atoms: C_6  and  C_7
REMARK    3  A    between atoms: C_7  and  C_8
REMARK    4  A    between atoms: C_8  and  C_9
REMARK    5  A    between atoms: C_13  and  N_14
REMARK    6  A    between atoms: C_19  and  C_20
REMARK    7  A    between atoms: C_20  and  N_21
REMARK    8  A    between atoms: C_27  and  O_28
REMARK    9  A    between atoms: C_31  and  C_32
REMARK                            x       y       z     vdW  Elec       q    Type
REMARK                         _______ _______ _______ _____ _____    ______ ____
ROOT
ATOM      1  N   UNL     1       1.324   8.159  20.456  0.00  0.00    +0.000 N 
ATOM      2  C   UNL     1       1.409   6.780  20.880  0.00  0.00    +0.000 C 
ATOM      3  C   UNL     1       2.072   6.082  19.767  0.00  0.00    +0.000 A 
ATOM      4  C   UNL     1       2.444   6.992  18.781  0.00  0.00    +0.000 A 
ATOM      5  C   UNL     1       3.123   6.543  17.649  0.00  0.00    +0.000 A 
ATOM      6  C   UNL     1       3.394   5.154  17.533  0.00  0.00    +0.000 A 
ATOM      7  C   UNL     1       2.970   4.266  18.557  0.00  0.00    +0.000 A 
ATOM      8  C   UNL     1       2.289   4.712  19.684  0.00  0.00    +0.000 A 
ATOM      9  C   UNL     1       1.940   8.344  19.210  0.00  0.00    +0.000 C 
ATOM     10  O   UNL     1       2.058   9.352  18.532  0.00  0.00    +0.000 OA
ENDROOT
BRANCH   1  15
ATOM     11  C   UNL     1      -0.781  11.161  21.291  0.00  0.00    +0.000 A 
ATOM     12  C   UNL     1      -0.854  11.026  22.682  0.00  0.00    +0.000 A 
ATOM     13  C   UNL     1      -0.278   9.924  23.346  0.00  0.00    +0.000 A 
ATOM     14  C   UNL     1       0.425   8.927  22.645  0.00  0.00    +0.000 A 
ATOM     15  C   UNL     1       0.551   9.031  21.271  0.00  0.00    +0.000 A 
ATOM     16  C   UNL     1      -0.090  10.127  20.642  0.00  0.00    +0.000 A 
BRANCH  11  17
ATOM     17  C   UNL     1      -1.431  12.367  20.420  0.00  0.00    +0.000 C 
ATOM     18  C   UNL     1      -2.387  11.908  19.285  0.00  0.00    +0.000 C 
ATOM     19  O   UNL     1      -1.570  12.502  18.258  0.00  0.00    +0.000 OA
ATOM     20  C   UNL     1      -0.600  12.945  19.229  0.00  0.00    +0.000 C 
BRANCH  17  21
ATOM     21  C   UNL     1      -2.019  13.487  21.320  0.00  0.00    +0.000 C 
BRANCH  21  27
ATOM     22  C   UNL     1      -4.346  15.528  20.639  0.00  0.00    +0.000 C 
ATOM     23  N   UNL     1      -4.466  14.263  21.311  0.00  0.00    +0.000 N 
ATOM     24  C   UNL     1      -5.633  13.749  21.795  0.00  0.00    +0.000 A 
ATOM     25  N   UNL     1      -5.396  12.605  22.386  0.00  0.00    +0.000 NA
ATOM     26  N   UNL     1      -4.048  12.365  22.298  0.00  0.00    +0.000 NA
ATOM     27  C   UNL     1      -3.484  13.351  21.625  0.00  0.00    +0.000 A 
ENDBRANCH  21  27
ENDBRANCH  17  21
ENDBRANCH  11  17
ENDBRANCH   1  15
BRANCH   8  28
ATOM     28  C   UNL     1       1.793   3.747  20.733  0.00  0.00    +0.000 C 
ATOM     29  F   UNL     1       2.147   2.453  20.509  0.00  0.00    +0.000 F 
ATOM     30  F   UNL     1       2.257   4.052  21.975  0.00  0.00    +0.000 F 
ATOM     31  F   UNL     1       0.436   3.738  20.823  0.00  0.00    +0.000 F 
ENDBRANCH   8  28
BRANCH   6  32
ATOM     32  C   UNL     1       4.172   4.543  16.373  0.00  0.00    +0.000 C 
BRANCH  32  33
ATOM     33  N   UNL     1       5.374   3.829  16.838  0.00  0.00    +0.000 NA
ATOM     34  C   UNL     1       6.567   4.022  16.011  0.00  0.00    +0.000 C 
ATOM     35  C   UNL     1       7.307   5.331  16.270  0.00  0.00    +0.000 C 
ATOM     36  C   UNL     1       7.555   5.553  17.748  0.00  0.00    +0.000 C 
ATOM     37  F   UNL     1       8.006   6.826  17.940  0.00  0.00    +0.000 F 
ATOM     38  F   UNL     1       8.565   4.741  18.161  0.00  0.00    +0.000 F 
ATOM     39  C   UNL     1       6.319   5.335  18.623  0.00  0.00    +0.000 C 
ATOM     40  C   UNL     1       5.674   3.997  18.266  0.00  0.00    +0.000 C 
BRANCH  39  41
ATOM     41  O   UNL     1       6.640   5.341  20.025  0.00  0.00    +0.000 OA
ATOM     42  H   UNL     1       5.803   5.250  20.516  0.00  0.00    +0.000 HD
ENDBRANCH  39  41
ENDBRANCH  32  33
ENDBRANCH   6  32
TORSDOF 8
ENDMDL
MODEL 7
REMARK VINA RESULT:      -8.9      3.554      9.542
REMARK  Name = 
REMARK  9 active torsions:
REMARK  status: ('A' for Active; 'I' for Inactive)
REMARK    1  A    between atoms: C_1  and  N_2
REMARK    2  A    between atoms: C_6  and  C_7
REMARK    3  A    between atoms: C_7  and  C_8
REMARK    4  A    between atoms: C_8  and  C_9
REMARK    5  A    between atoms: C_13  and  N_14
REMARK    6  A    between atoms: C_19  and  C_20
REMARK    7  A    between atoms: C_20  and  N_21
REMARK    8  A    between atoms: C_27  and  O_28
REMARK    9  A    between atoms: C_31  and  C_32
REMARK                            x       y       z     vdW  Elec       q    Type
REMARK                         _______ _______ _______ _____ _____    ______ ____
ROOT
ATOM      1  N   UNL     1       1.478   8.066  20.191  0.00  0.00    +0.000 N 
ATOM      2  C   UNL     1       1.525   6.699  20.658  0.00  0.00    +0.000 C 
ATOM      3  C   UNL     1       2.210   5.956  19.588  0.00  0.00    +0.000 A 
ATOM      4  C   UNL     1       2.629   6.830  18.588  0.00  0.00    +0.000 A 
ATOM      5  C   UNL     1       3.334   6.335  17.492  0.00  0.00    +0.000 A 
ATOM      6  C   UNL     1       3.584   4.939  17.426  0.00  0.00    +0.000 A 
ATOM      7  C   UNL     1       3.113   4.090  18.462  0.00  0.00    +0.000 A 
ATOM      8  C   UNL     1       2.405   4.581  19.553  0.00  0.00    +0.000 A 
ATOM      9  C   UNL     1       2.135   8.203  18.960  0.00  0.00    +0.000 C 
ATOM     10  O   UNL     1       2.292   9.188  18.256  0.00  0.00    +0.000 OA
ENDROOT
BRANCH   1  15
ATOM     11  C   UNL     1      -0.743  11.031  20.834  0.00  0.00    +0.000 A 
ATOM     12  C   UNL     1      -0.751  11.028  22.234  0.00  0.00    +0.000 A 
ATOM     13  C   UNL     1      -0.093  10.024  22.971  0.00  0.00    +0.000 A 
ATOM     14  C   UNL     1       0.631   8.999  22.337  0.00  0.00    +0.000 A 
ATOM     15  C   UNL     1       0.695   8.975  20.954  0.00  0.00    +0.000 A 
ATOM     16  C   UNL     1      -0.027   9.974  20.255  0.00  0.00    +0.000 A 
BRANCH  11  17
ATOM     17  C   UNL     1      -1.489  12.116  19.884  0.00  0.00    +0.000 C 
ATOM     18  C   UNL     1      -2.664  12.873  20.561  0.00  0.00    +0.000 C 
ATOM     19  O   UNL     1      -3.627  12.376  19.613  0.00  0.00    +0.000 OA
ATOM     20  C   UNL     1      -2.616  11.605  18.930  0.00  0.00    +0.000 C 
BRANCH  17  21
ATOM     21  C   UNL     1      -0.482  13.045  19.154  0.00  0.00    +0.000 C 
BRANCH  21  27
ATOM     22  C   UNL     1       2.572  12.696  18.379  0.00  0.00    +0.000 C 
ATOM     23  N   UNL     1       2.039  13.261  19.589  0.00  0.00    +0.000 N 
ATOM     24  C   UNL     1       2.793  13.721  20.628  0.00  0.00    +0.000 A 
ATOM     25  N   UNL     1       2.007  14.133  21.591  0.00  0.00    +0.000 NA
ATOM     26  N   UNL     1       0.712  13.931  21.184  0.00  0.00    +0.000 NA
ATOM     27  C   UNL     1       0.724  13.430  19.962  0.00  0.00    +0.000 A 
ENDBRANCH  21  27
ENDBRANCH  17  21
ENDBRANCH  11  17
ENDBRANCH   1  15
BRANCH   8  28
ATOM     28  C   UNL     1       1.861   3.657  20.615  0.00  0.00    +0.000 C 
ATOM     29  F   UNL     1       0.504   3.652  20.704  0.00  0.00    +0.000 F 
ATOM     30  F   UNL     1       2.227   2.364  20.409  0.00  0.00    +0.000 F 
ATOM     31  F   UNL     1       2.301   3.987  21.859  0.00  0.00    +0.000 F 
ENDBRANCH   8  28
BRANCH   6  32
ATOM     32  C   UNL     1       4.387   4.280  16.310  0.00  0.00    +0.000 C 
BRANCH  32  33
ATOM     33  N   UNL     1       5.729   3.879  16.766  0.00  0.00    +0.000 NA
ATOM     34  C   UNL     1       6.840   4.452  16.002  0.00  0.00    +0.000 C 
ATOM     35  C   UNL     1       7.194   5.886  16.386  0.00  0.00    +0.000 C 
ATOM     36  C   UNL     1       7.347   6.044  17.885  0.00  0.00    +0.000 C 
ATOM     37  F   UNL     1       7.434   7.370  18.189  0.00  0.00    +0.000 F 
ATOM     38  F   UNL     1       8.532   5.501  18.275  0.00  0.00    +0.000 F 
ATOM     39  C   UNL     1       6.201   5.431  18.693  0.00  0.00    +0.000 C 
ATOM     40  C   UNL     1       5.948   4.003  18.213  0.00  0.00    +0.000 C 
BRANCH  39  41
ATOM     41  O   UNL     1       6.485   5.408  20.103  0.00  0.00    +0.000 OA
ATOM     42  H   UNL     1       6.054   4.615  20.474  0.00  0.00    +0.000 HD
ENDBRANCH  39  41
ENDBRANCH  32  33
ENDBRANCH   6  32
TORSDOF 8
ENDMDL
MODEL 8
REMARK VINA RESULT:      -8.9      3.579      9.724
REMARK  Name = 
REMARK  9 active torsions:
REMARK  status: ('A' for Active; 'I' for Inactive)
REMARK    1  A    between atoms: C_1  and  N_2
REMARK    2  A    between atoms: C_6  and  C_7
REMARK    3  A    between atoms: C_7  and  C_8
REMARK    4  A    between atoms: C_8  and  C_9
REMARK    5  A    between atoms: C_13  and  N_14
REMARK    6  A    between atoms: C_19  and  C_20
REMARK    7  A    between atoms: C_20  and  N_21
REMARK    8  A    between atoms: C_27  and  O_28
REMARK    9  A    between atoms: C_31  and  C_32
REMARK                            x       y       z     vdW  Elec       q    Type
REMARK                         _______ _______ _______ _____ _____    ______ ____
ROOT
ATOM      1  N   UNL     1       1.279   8.243  20.415  0.00  0.00    +0.000 N 
ATOM      2  C   UNL     1       1.374   6.870  20.854  0.00  0.00    +0.000 C 
ATOM      3  C   UNL     1       2.046   6.165  19.750  0.00  0.00    +0.000 A 
ATOM      4  C   UNL     1       2.415   7.067  18.757  0.00  0.00    +0.000 A 
ATOM      5  C   UNL     1       3.100   6.612  17.632  0.00  0.00    +0.000 A 
ATOM      6  C   UNL     1       3.383   5.224  17.532  0.00  0.00    +0.000 A 
ATOM      7  C   UNL     1       2.963   4.344  18.563  0.00  0.00    +0.000 A 
ATOM      8  C   UNL     1       2.274   4.796  19.683  0.00  0.00    +0.000 A 
ATOM      9  C   UNL     1       1.898   8.420  19.169  0.00  0.00    +0.000 C 
ATOM     10  O   UNL     1       2.010   9.422  18.481  0.00  0.00    +0.000 OA
ENDROOT
BRANCH   1  15
ATOM     11  C   UNL     1      -0.772  11.286  21.235  0.00  0.00    +0.000 A 
ATOM     12  C   UNL     1      -0.910  11.119  22.618  0.00  0.00    +0.000 A 
ATOM     13  C   UNL     1      -0.398   9.984  23.277  0.00  0.00    +0.000 A 
ATOM     14  C   UNL     1       0.306   8.984  22.582  0.00  0.00    +0.000 A 
ATOM     15  C   UNL     1       0.497   9.118  21.218  0.00  0.00    +0.000 A 
ATOM     16  C   UNL     1      -0.083  10.249  20.591  0.00  0.00    +0.000 A 
BRANCH  11  17
ATOM     17  C   UNL     1      -1.346  12.533  20.369  0.00  0.00    +0.000 C 
ATOM     18  C   UNL     1      -1.613  13.825  21.188  0.00  0.00    +0.000 C 
ATOM     19  O   UNL     1      -3.018  13.824  20.871  0.00  0.00    +0.000 OA
ATOM     20  C   UNL     1      -2.887  12.603  20.114  0.00  0.00    +0.000 C 
BRANCH  17  21
ATOM     21  C   UNL     1      -0.528  12.770  19.072  0.00  0.00    +0.000 C 
BRANCH  21  27
ATOM     22  C   UNL     1      -0.082  15.876  18.617  0.00  0.00    +0.000 C 
ATOM     23  N   UNL     1       0.892  14.909  19.048  0.00  0.00    +0.000 N 
ATOM     24  C   UNL     1       2.200  15.190  19.308  0.00  0.00    +0.000 A 
ATOM     25  N   UNL     1       2.827  14.089  19.639  0.00  0.00    +0.000 NA
ATOM     26  N   UNL     1       1.917  13.063  19.587  0.00  0.00    +0.000 NA
ATOM     27  C   UNL     1       0.738  13.557  19.257  0.00  0.00    +0.000 A 
ENDBRANCH  21  27
ENDBRANCH  17  21
ENDBRANCH  11  17
ENDBRANCH   1  15
BRANCH   8  28
ATOM     28  C   UNL     1       1.782   3.838  20.741  0.00  0.00    +0.000 C 
ATOM     29  F   UNL     1       2.247   4.105  21.991  0.00  0.00    +0.000 F 
ATOM     30  F   UNL     1       0.426   3.831  20.840  0.00  0.00    +0.000 F 
ATOM     31  F   UNL     1       2.156   2.556  20.486  0.00  0.00    +0.000 F 
ENDBRANCH   8  28
BRANCH   6  32
ATOM     32  C   UNL     1       4.170   4.606  16.381  0.00  0.00    +0.000 C 
BRANCH  32  33
ATOM     33  N   UNL     1       5.337   3.847  16.863  0.00  0.00    +0.000 NA
ATOM     34  C   UNL     1       6.542   3.975  16.040  0.00  0.00    +0.000 C 
ATOM     35  C   UNL     1       7.337   5.254  16.284  0.00  0.00    +0.000 C 
ATOM     36  C   UNL     1       7.588   5.486  17.761  0.00  0.00    +0.000 C 
ATOM     37  F   UNL     1       8.093   6.740  17.937  0.00  0.00    +0.000 F 
ATOM     38  F   UNL     1       8.558   4.636  18.191  0.00  0.00    +0.000 F 
ATOM     39  C   UNL     1       6.338   5.336  18.632  0.00  0.00    +0.000 C 
ATOM     40  C   UNL     1       5.636   4.022  18.289  0.00  0.00    +0.000 C 
BRANCH  39  41
ATOM     41  O   UNL     1       6.652   5.348  20.035  0.00  0.00    +0.000 OA
ATOM     42  H   UNL     1       6.059   4.708  20.472  0.00  0.00    +0.000 HD
ENDBRANCH  39  41
ENDBRANCH  32  33
ENDBRANCH   6  32
TORSDOF 8
ENDMDL
MODEL 9
REMARK VINA RESULT:      -8.9      3.714      9.619
REMARK  Name = 
REMARK  9 active torsions:
REMARK  status: ('A' for Active; 'I' for Inactive)
REMARK    1  A    between atoms: C_1  and  N_2
REMARK    2  A    between atoms: C_6  and  C_7
REMARK    3  A    between atoms: C_7  and  C_8
REMARK    4  A    between atoms: C_8  and  C_9
REMARK    5  A    between atoms: C_13  and  N_14
REMARK    6  A    between atoms: C_19  and  C_20
REMARK    7  A    between atoms: C_20  and  N_21
REMARK    8  A    between atoms: C_27  and  O_28
REMARK    9  A    between atoms: C_31  and  C_32
REMARK                            x       y       z     vdW  Elec       q    Type
REMARK                         _______ _______ _______ _____ _____    ______ ____
ROOT
ATOM      1  N   UNL     1       1.325   8.335  20.376  0.00  0.00    +0.000 N 
ATOM      2  C   UNL     1       1.530   6.993  20.869  0.00  0.00    +0.000 C 
ATOM      3  C   UNL     1       2.233   6.292  19.782  0.00  0.00    +0.000 A 
ATOM      4  C   UNL     1       2.515   7.176  18.744  0.00  0.00    +0.000 A 
ATOM      5  C   UNL     1       3.212   6.725  17.625  0.00  0.00    +0.000 A 
ATOM      6  C   UNL     1       3.597   5.359  17.576  0.00  0.00    +0.000 A 
ATOM      7  C   UNL     1       3.262   4.495  18.652  0.00  0.00    +0.000 A 
ATOM      8  C   UNL     1       2.562   4.943  19.767  0.00  0.00    +0.000 A 
ATOM      9  C   UNL     1       1.906   8.504  19.111  0.00  0.00    +0.000 C 
ATOM     10  O   UNL     1       1.930   9.480  18.380  0.00  0.00    +0.000 OA
ENDROOT
BRANCH   1  15
ATOM     11  C   UNL     1      -0.931  11.252  21.113  0.00  0.00    +0.000 A 
ATOM     12  C   UNL     1      -1.034  11.132  22.504  0.00  0.00    +0.000 A 
ATOM     13  C   UNL     1      -0.429  10.066  23.198  0.00  0.00    +0.000 A 
ATOM     14  C   UNL     1       0.336   9.092  22.530  0.00  0.00    +0.000 A 
ATOM     15  C   UNL     1       0.493   9.183  21.158  0.00  0.00    +0.000 A 
ATOM     16  C   UNL     1      -0.179  10.241  20.498  0.00  0.00    +0.000 A 
BRANCH  11  17
ATOM     17  C   UNL     1      -1.610  12.417  20.209  0.00  0.00    +0.000 C 
ATOM     18  C   UNL     1      -3.162  12.408  20.196  0.00  0.00    +0.000 C 
ATOM     19  O   UNL     1      -3.222  12.195  18.773  0.00  0.00    +0.000 OA
ATOM     20  C   UNL     1      -1.783  12.152  18.678  0.00  0.00    +0.000 C 
BRANCH  17  21
ATOM     21  C   UNL     1      -0.993  13.812  20.495  0.00  0.00    +0.000 C 
BRANCH  21  27
ATOM     22  C   UNL     1       1.367  13.197  18.470  0.00  0.00    +0.000 C 
ATOM     23  N   UNL     1       1.480  13.534  19.864  0.00  0.00    +0.000 N 
ATOM     24  C   UNL     1       2.655  13.615  20.550  0.00  0.00    +0.000 A 
ATOM     25  N   UNL     1       2.412  13.901  21.804  0.00  0.00    +0.000 NA
ATOM     26  N   UNL     1       1.051  14.001  21.949  0.00  0.00    +0.000 NA
ATOM     27  C   UNL     1       0.483  13.807  20.773  0.00  0.00    +0.000 A 
ENDBRANCH  21  27
ENDBRANCH  17  21
ENDBRANCH  11  17
ENDBRANCH   1  15
BRANCH   8  28
ATOM     28  C   UNL     1       2.162   3.997  20.874  0.00  0.00    +0.000 C 
ATOM     29  F   UNL     1       2.524   4.414  22.117  0.00  0.00    +0.000 F 
ATOM     30  F   UNL     1       0.818   3.798  20.922  0.00  0.00    +0.000 F 
ATOM     31  F   UNL     1       2.728   2.769  20.729  0.00  0.00    +0.000 F 
ENDBRANCH   8  28
BRANCH   6  32
ATOM     32  C   UNL     1       4.407   4.752  16.436  0.00  0.00    +0.000 C 
BRANCH  32  33
ATOM     33  N   UNL     1       5.632   5.525  16.165  0.00  0.00    +0.000 NA
ATOM     34  C   UNL     1       5.698   6.831  16.825  0.00  0.00    +0.000 C 
ATOM     35  C   UNL     1       6.119   6.775  18.290  0.00  0.00    +0.000 C 
ATOM     36  C   UNL     1       7.367   5.936  18.484  0.00  0.00    +0.000 C 
ATOM     37  F   UNL     1       7.565   5.730  19.817  0.00  0.00    +0.000 F 
ATOM     38  F   UNL     1       8.450   6.638  18.057  0.00  0.00    +0.000 F 
ATOM     39  C   UNL     1       7.315   4.577  17.783  0.00  0.00    +0.000 C 
ATOM     40  C   UNL     1       6.881   4.772  16.330  0.00  0.00    +0.000 C 
BRANCH  39  41
ATOM     41  O   UNL     1       8.587   3.907  17.806  0.00  0.00    +0.000 OA
ATOM     42  H   UNL     1       9.278   4.594  17.853  0.00  0.00    +0.000 HD
ENDBRANCH  39  41
ENDBRANCH  32  33
ENDBRANCH   6  32
TORSDOF 8
ENDMDL
