MODEL 1
REMARK VINA RESULT:      -8.6      0.000      0.000
REMARK  Name = 
REMARK  7 active torsions:
REMARK  status: ('A' for Active; 'I' for Inactive)
REMARK    1  A    between atoms: C_1  and  C_2
REMARK    2  A    between atoms: C_2  and  S_3
REMARK    3  A    between atoms: C_2  and  C_10
REMARK    4  A    between atoms: S_3  and  C_4
REMARK    5  A    between atoms: N_8  and  C_9
REMARK    6  A    between atoms: C_14  and  N_15
REMARK    7  A    between atoms: C_16  and  C_18
REMARK                            x       y       z     vdW  Elec       q    Type
REMARK                         _______ _______ _______ _____ _____    ______ ____
ROOT
ATOM      1  C   UNL     1       4.614   5.174  17.309  0.00  0.00    +0.000 A 
ATOM      2  C   UNL     1       3.778   4.049  17.252  0.00  0.00    +0.000 A 
ATOM      3  C   UNL     1       2.473   4.105  17.731  0.00  0.00    +0.000 A 
ATOM      4  C   UNL     1       1.971   5.295  18.251  0.00  0.00    +0.000 A 
ATOM      5  C   UNL     1       2.766   6.442  18.324  0.00  0.00    +0.000 A 
ATOM      6  C   UNL     1       4.099   6.355  17.898  0.00  0.00    +0.000 A 
ENDROOT
BRANCH   5   7
ATOM      7  N   UNL     1       2.276   7.703  18.743  0.00  0.00    +0.000 N 
ATOM      8  C   UNL     1       1.635   7.957  19.946  0.00  0.00    +0.000 C 
ATOM      9  O   UNL     1       1.499   7.160  20.868  0.00  0.00    +0.000 OA
ATOM     10  H   UNL     1       2.302   8.477  18.086  0.00  0.00    +0.000 HD
BRANCH   8  11
ATOM     11  C   UNL     1       1.061   9.325  20.121  0.00  0.00    +0.000 A 
ATOM     12  C   UNL     1       0.271   9.528  21.247  0.00  0.00    +0.000 A 
ATOM     13  C   UNL     1      -0.186  10.808  21.530  0.00  0.00    +0.000 A 
ATOM     14  C   UNL     1      -0.830  11.077  22.745  0.00  0.00    +0.000 A 
ATOM     15  C   UNL     1      -1.287  12.360  23.029  0.00  0.00    +0.000 A 
ATOM     16  C   UNL     1      -1.162  13.365  22.074  0.00  0.00    +0.000 A 
ATOM     17  C   UNL     1      -0.505  13.110  20.865  0.00  0.00    +0.000 A 
ATOM     18  C   UNL     1       0.040  11.837  20.601  0.00  0.00    +0.000 A 
ATOM     19  C   UNL     1       0.821  11.517  19.474  0.00  0.00    +0.000 A 
ATOM     20  N   UNL     1       1.362  10.293  19.216  0.00  0.00    +0.000 NA
ENDBRANCH   8  11
ENDBRANCH   5   7
BRANCH   1  22
ATOM     21  C   UNL     1       7.148   4.958  17.737  0.00  0.00    +0.000 C 
ATOM     22  C   UNL     1       6.025   5.176  16.711  0.00  0.00    +0.000 C 
BRANCH  22  23
ATOM     23  S   UNL     1       6.122   3.842  15.437  0.00  0.00    +0.000 S 
BRANCH  23  24
ATOM     24  C   UNL     1       6.997   4.611  14.169  0.00  0.00    +0.000 A 
ATOM     25  N   UNL     1       7.929   5.530  14.281  0.00  0.00    +0.000 NA
ATOM     26  N   UNL     1       8.394   5.804  13.012  0.00  0.00    +0.000 NA
ATOM     27  C   UNL     1       7.724   5.048  12.170  0.00  0.00    +0.000 A 
ATOM     28  N   UNL     1       6.822   4.292  12.855  0.00  0.00    +0.000 N 
ATOM     29  C   UNL     1       5.904   3.340  12.291  0.00  0.00    +0.000 C 
ENDBRANCH  23  24
ENDBRANCH  22  23
ENDBRANCH   1  22
TORSDOF 5
ENDMDL
MODEL 2
REMARK VINA RESULT:      -8.6      5.126      8.192
REMARK  Name = 
REMARK  7 active torsions:
REMARK  status: ('A' for Active; 'I' for Inactive)
REMARK    1  A    between atoms: C_1  and  C_2
REMARK    2  A    between atoms: C_2  and  S_3
REMARK    3  A    between atoms: C_2  and  C_10
REMARK    4  A    between atoms: S_3  and  C_4
REMARK    5  A    between atoms: N_8  and  C_9
REMARK    6  A    between atoms: C_14  and  N_15
REMARK    7  A    between atoms: C_16  and  C_18
REMARK                            x       y       z     vdW  Elec       q    Type
REMARK                         _______ _______ _______ _____ _____    ______ ____
ROOT
ATOM      1  C   UNL     1       4.411   5.542  17.291  0.00  0.00    +0.000 A 
ATOM      2  C   UNL     1       5.126   4.390  16.930  0.00  0.00    +0.000 A 
ATOM      3  C   UNL     1       6.473   4.464  16.591  0.00  0.00    +0.000 A 
ATOM      4  C   UNL     1       7.138   5.686  16.635  0.00  0.00    +0.000 A 
ATOM      5  C   UNL     1       6.468   6.860  16.993  0.00  0.00    +0.000 A 
ATOM      6  C   UNL     1       5.095   6.782  17.268  0.00  0.00    +0.000 A 
ENDROOT
BRANCH   5   7
ATOM      7  N   UNL     1       7.116   8.108  17.156  0.00  0.00    +0.000 N 
ATOM      8  C   UNL     1       8.071   8.398  18.118  0.00  0.00    +0.000 C 
ATOM      9  O   UNL     1       8.576   7.592  18.893  0.00  0.00    +0.000 OA
ATOM     10  H   UNL     1       6.804   8.895  16.595  0.00  0.00    +0.000 HD
BRANCH   8  11
ATOM     11  C   UNL     1       8.513   9.822  18.213  0.00  0.00    +0.000 A 
ATOM     12  C   UNL     1       9.562  10.090  19.086  0.00  0.00    +0.000 A 
ATOM     13  C   UNL     1      10.099  11.370  19.123  0.00  0.00    +0.000 A 
ATOM     14  C   UNL     1      11.266  11.626  19.855  0.00  0.00    +0.000 A 
ATOM     15  C   UNL     1      11.805  12.908  19.893  0.00  0.00    +0.000 A 
ATOM     16  C   UNL     1      11.144  13.954  19.252  0.00  0.00    +0.000 A 
ATOM     17  C   UNL     1       9.988  13.704  18.505  0.00  0.00    +0.000 A 
ATOM     18  C   UNL     1       9.481  12.394  18.387  0.00  0.00    +0.000 A 
ATOM     19  C   UNL     1       8.401  12.022  17.563  0.00  0.00    +0.000 A 
ATOM     20  N   UNL     1       7.911  10.758  17.434  0.00  0.00    +0.000 NA
ENDBRANCH   8  11
ENDBRANCH   5   7
BRANCH   1  22
ATOM     21  C   UNL     1       2.381   4.065  17.881  0.00  0.00    +0.000 C 
ATOM     22  C   UNL     1       2.952   5.487  17.756  0.00  0.00    +0.000 C 
BRANCH  22  23
ATOM     23  S   UNL     1       2.831   6.319  19.401  0.00  0.00    +0.000 S 
BRANCH  23  24
ATOM     24  C   UNL     1       2.095   7.823  18.996  0.00  0.00    +0.000 A 
ATOM     25  N   UNL     1       2.042   8.397  17.816  0.00  0.00    +0.000 NA
ATOM     26  N   UNL     1       1.301   9.552  17.951  0.00  0.00    +0.000 NA
ATOM     27  C   UNL     1       0.936   9.646  19.211  0.00  0.00    +0.000 A 
ATOM     28  N   UNL     1       1.428   8.585  19.908  0.00  0.00    +0.000 N 
ATOM     29  C   UNL     1       1.246   8.327  21.311  0.00  0.00    +0.000 C 
ENDBRANCH  23  24
ENDBRANCH  22  23
ENDBRANCH   1  22
TORSDOF 5
ENDMDL
MODEL 3
REMARK VINA RESULT:      -8.5      0.899      1.535
REMARK  Name = 
REMARK  7 active torsions:
REMARK  status: ('A' for Active; 'I' for Inactive)
REMARK    1  A    between atoms: C_1  and  C_2
REMARK    2  A    between atoms: C_2  and  S_3
REMARK    3  A    between atoms: C_2  and  C_10
REMARK    4  A    between atoms: S_3  and  C_4
REMARK    5  A    between atoms: N_8  and  C_9
REMARK    6  A    between atoms: C_14  and  N_15
REMARK    7  A    between atoms: C_16  and  C_18
REMARK                            x       y       z     vdW  Elec       q    Type
REMARK                         _______ _______ _______ _____ _____    ______ ____
ROOT
ATOM      1  C   UNL     1       4.548   4.896  17.300  0.00  0.00    +0.000 A 
ATOM      2  C   UNL     1       3.693   3.804  17.090  0.00  0.00    +0.000 A 
ATOM      3  C   UNL     1       2.379   3.830  17.546  0.00  0.00    +0.000 A 
ATOM      4  C   UNL     1       1.887   4.959  18.195  0.00  0.00    +0.000 A 
ATOM      5  C   UNL     1       2.701   6.072  18.423  0.00  0.00    +0.000 A 
ATOM      6  C   UNL     1       4.042   6.008  18.017  0.00  0.00    +0.000 A 
ENDROOT
BRANCH   5   7
ATOM      7  N   UNL     1       2.226   7.283  18.982  0.00  0.00    +0.000 N 
ATOM      8  C   UNL     1       1.677   7.424  20.247  0.00  0.00    +0.000 C 
ATOM      9  O   UNL     1       1.627   6.552  21.107  0.00  0.00    +0.000 OA
ATOM     10  H   UNL     1       2.187   8.109  18.391  0.00  0.00    +0.000 HD
BRANCH   8  11
ATOM     11  C   UNL     1       1.097   8.760  20.578  0.00  0.00    +0.000 A 
ATOM     12  C   UNL     1       0.829   9.604  19.505  0.00  0.00    +0.000 A 
ATOM     13  C   UNL     1       0.174  10.806  19.738  0.00  0.00    +0.000 A 
ATOM     14  C   UNL     1      -0.267  11.591  18.665  0.00  0.00    +0.000 A 
ATOM     15  C   UNL     1      -0.924  12.795  18.899  0.00  0.00    +0.000 A 
ATOM     16  C   UNL     1      -1.086  13.252  20.204  0.00  0.00    +0.000 A 
ATOM     17  C   UNL     1      -0.664  12.466  21.283  0.00  0.00    +0.000 A 
ATOM     18  C   UNL     1      -0.076  11.205  21.062  0.00  0.00    +0.000 A 
ATOM     19  C   UNL     1       0.269  10.291  22.077  0.00  0.00    +0.000 A 
ATOM     20  N   UNL     1       0.827   9.065  21.873  0.00  0.00    +0.000 NA
ENDBRANCH   8  11
ENDBRANCH   5   7
BRANCH   1  22
ATOM     21  C   UNL     1       7.074   4.682  17.775  0.00  0.00    +0.000 C 
ATOM     22  C   UNL     1       5.972   4.940  16.735  0.00  0.00    +0.000 C 
BRANCH  22  23
ATOM     23  S   UNL     1       6.111   3.672  15.399  0.00  0.00    +0.000 S 
BRANCH  23  24
ATOM     24  C   UNL     1       6.960   4.528  14.170  0.00  0.00    +0.000 A 
ATOM     25  N   UNL     1       7.836   5.495  14.325  0.00  0.00    +0.000 NA
ATOM     26  N   UNL     1       8.304   5.834  13.073  0.00  0.00    +0.000 NA
ATOM     27  C   UNL     1       7.691   5.067  12.198  0.00  0.00    +0.000 A 
ATOM     28  N   UNL     1       6.824   4.241  12.844  0.00  0.00    +0.000 N 
ATOM     29  C   UNL     1       5.971   3.256  12.237  0.00  0.00    +0.000 C 
ENDBRANCH  23  24
ENDBRANCH  22  23
ENDBRANCH   1  22
TORSDOF 5
ENDMDL
MODEL 4
REMARK VINA RESULT:      -8.4      1.057      1.106
REMARK  Name = 
REMARK  7 active torsions:
REMARK  status: ('A' for Active; 'I' for Inactive)
REMARK    1  A    between atoms: C_1  and  C_2
REMARK    2  A    between atoms: C_2  and  S_3
REMARK    3  A    between atoms: C_2  and  C_10
REMARK    4  A    between atoms: S_3  and  C_4
REMARK    5  A    between atoms: N_8  and  C_9
REMARK    6  A    between atoms: C_14  and  N_15
REMARK    7  A    between atoms: C_16  and  C_18
REMARK                            x       y       z     vdW  Elec       q    Type
REMARK                         _______ _______ _______ _____ _____    ______ ____
ROOT
ATOM      1  C   UNL     1       4.867   4.864  17.899  0.00  0.00    +0.000 A 
ATOM      2  C   UNL     1       4.338   3.609  18.232  0.00  0.00    +0.000 A 
ATOM      3  C   UNL     1       3.166   3.503  18.974  0.00  0.00    +0.000 A 
ATOM      4  C   UNL     1       2.486   4.651  19.373  0.00  0.00    +0.000 A 
ATOM      5  C   UNL     1       2.974   5.923  19.061  0.00  0.00    +0.000 A 
ATOM      6  C   UNL     1       4.190   6.016  18.369  0.00  0.00    +0.000 A 
ENDROOT
BRANCH   5   7
ATOM      7  N   UNL     1       2.271   7.118  19.348  0.00  0.00    +0.000 N 
ATOM      8  C   UNL     1       2.141   8.200  18.491  0.00  0.00    +0.000 C 
ATOM      9  O   UNL     1       2.515   8.239  17.324  0.00  0.00    +0.000 OA
ATOM     10  H   UNL     1       1.905   7.254  20.286  0.00  0.00    +0.000 HD
BRANCH   8  11
ATOM     11  C   UNL     1       1.490   9.423  19.052  0.00  0.00    +0.000 A 
ATOM     12  C   UNL     1       0.769   9.257  20.230  0.00  0.00    +0.000 A 
ATOM     13  C   UNL     1       0.249  10.376  20.866  0.00  0.00    +0.000 A 
ATOM     14  C   UNL     1      -0.326  10.262  22.139  0.00  0.00    +0.000 A 
ATOM     15  C   UNL     1      -0.847  11.384  22.777  0.00  0.00    +0.000 A 
ATOM     16  C   UNL     1      -0.856  12.611  22.119  0.00  0.00    +0.000 A 
ATOM     17  C   UNL     1      -0.270  12.737  20.854  0.00  0.00    +0.000 A 
ATOM     18  C   UNL     1       0.340  11.627  20.235  0.00  0.00    +0.000 A 
ATOM     19  C   UNL     1       1.060  11.679  19.026  0.00  0.00    +0.000 A 
ATOM     20  N   UNL     1       1.662  10.614  18.425  0.00  0.00    +0.000 NA
ENDBRANCH   8  11
ENDBRANCH   5   7
BRANCH   1  22
ATOM     21  C   UNL     1       7.440   4.791  17.735  0.00  0.00    +0.000 C 
ATOM     22  C   UNL     1       6.105   5.020  17.008  0.00  0.00    +0.000 C 
BRANCH  22  23
ATOM     23  S   UNL     1       5.976   3.816  15.614  0.00  0.00    +0.000 S 
BRANCH  23  24
ATOM     24  C   UNL     1       6.899   4.586  14.380  0.00  0.00    +0.000 A 
ATOM     25  N   UNL     1       7.829   5.501  14.529  0.00  0.00    +0.000 NA
ATOM     26  N   UNL     1       8.339   5.779  13.278  0.00  0.00    +0.000 NA
ATOM     27  C   UNL     1       7.696   5.029  12.410  0.00  0.00    +0.000 A 
ATOM     28  N   UNL     1       6.768   4.274  13.060  0.00  0.00    +0.000 N 
ATOM     29  C   UNL     1       5.866   3.329  12.461  0.00  0.00    +0.000 C 
ENDBRANCH  23  24
ENDBRANCH  22  23
ENDBRANCH   1  22
TORSDOF 5
ENDMDL
MODEL 5
REMARK VINA RESULT:      -8.4      5.430      8.177
REMARK  Name = 
REMARK  7 active torsions:
REMARK  status: ('A' for Active; 'I' for Inactive)
REMARK    1  A    between atoms: C_1  and  C_2
REMARK    2  A    between atoms: C_2  and  S_3
REMARK    3  A    between atoms: C_2  and  C_10
REMARK    4  A    between atoms: S_3  and  C_4
REMARK    5  A    between atoms: N_8  and  C_9
REMARK    6  A    between atoms: C_14  and  N_15
REMARK    7  A    between atoms: C_16  and  C_18
REMARK                            x       y       z     vdW  Elec       q    Type
REMARK                         _______ _______ _______ _____ _____    ______ ____
ROOT
ATOM      1  C   UNL     1       4.622   5.408  17.141  0.00  0.00    +0.000 A 
ATOM      2  C   UNL     1       5.296   4.342  16.527  0.00  0.00    +0.000 A 
ATOM      3  C   UNL     1       6.578   4.511  16.013  0.00  0.00    +0.000 A 
ATOM      4  C   UNL     1       7.220   5.741  16.129  0.00  0.00    +0.000 A 
ATOM      5  C   UNL     1       6.588   6.830  16.736  0.00  0.00    +0.000 A 
ATOM      6  C   UNL     1       5.273   6.665  17.191  0.00  0.00    +0.000 A 
ENDROOT
BRANCH   5   7
ATOM      7  N   UNL     1       7.231   8.069  16.974  0.00  0.00    +0.000 N 
ATOM      8  C   UNL     1       8.076   8.345  18.038  0.00  0.00    +0.000 C 
ATOM      9  O   UNL     1       8.480   7.531  18.862  0.00  0.00    +0.000 OA
ATOM     10  H   UNL     1       6.995   8.861  16.383  0.00  0.00    +0.000 HD
BRANCH   8  11
ATOM     11  C   UNL     1       8.523   9.763  18.185  0.00  0.00    +0.000 A 
ATOM     12  C   UNL     1       9.582   9.992  19.058  0.00  0.00    +0.000 A 
ATOM     13  C   UNL     1      10.124  11.268  19.141  0.00  0.00    +0.000 A 
ATOM     14  C   UNL     1      11.298  11.491  19.872  0.00  0.00    +0.000 A 
ATOM     15  C   UNL     1      11.842  12.768  19.955  0.00  0.00    +0.000 A 
ATOM     16  C   UNL     1      11.179  13.841  19.364  0.00  0.00    +0.000 A 
ATOM     17  C   UNL     1      10.015  13.625  18.618  0.00  0.00    +0.000 A 
ATOM     18  C   UNL     1       9.503  12.322  18.452  0.00  0.00    +0.000 A 
ATOM     19  C   UNL     1       8.414  11.987  17.625  0.00  0.00    +0.000 A 
ATOM     20  N   UNL     1       7.918  10.730  17.450  0.00  0.00    +0.000 NA
ENDBRANCH   8  11
ENDBRANCH   5   7
BRANCH   1  22
ATOM     21  C   UNL     1       2.597   3.866  17.554  0.00  0.00    +0.000 C 
ATOM     22  C   UNL     1       3.248   5.237  17.798  0.00  0.00    +0.000 C 
BRANCH  22  23
ATOM     23  S   UNL     1       3.434   5.487  19.618  0.00  0.00    +0.000 S 
BRANCH  23  24
ATOM     24  C   UNL     1       2.469   4.215  20.263  0.00  0.00    +0.000 A 
ATOM     25  N   UNL     1       1.191   4.251  20.560  0.00  0.00    +0.000 NA
ATOM     26  N   UNL     1       0.830   2.989  20.985  0.00  0.00    +0.000 NA
ATOM     27  C   UNL     1       1.903   2.231  20.939  0.00  0.00    +0.000 A 
ATOM     28  N   UNL     1       2.963   2.968  20.505  0.00  0.00    +0.000 N 
ATOM     29  C   UNL     1       4.309   2.498  20.321  0.00  0.00    +0.000 C 
ENDBRANCH  23  24
ENDBRANCH  22  23
ENDBRANCH   1  22
TORSDOF 5
ENDMDL
MODEL 6
REMARK VINA RESULT:      -8.4      5.462      7.591
REMARK  Name = 
REMARK  7 active torsions:
REMARK  status: ('A' for Active; 'I' for Inactive)
REMARK    1  A    between atoms: C_1  and  C_2
REMARK    2  A    between atoms: C_2  and  S_3
REMARK    3  A    between atoms: C_2  and  C_10
REMARK    4  A    between atoms: S_3  and  C_4
REMARK    5  A    between atoms: N_8  and  C_9
REMARK    6  A    between atoms: C_14  and  N_15
REMARK    7  A    between atoms: C_16  and  C_18
REMARK                            x       y       z     vdW  Elec       q    Type
REMARK                         _______ _______ _______ _____ _____    ______ ____
ROOT
ATOM      1  C   UNL     1       4.220   5.512  17.100  0.00  0.00    +0.000 A 
ATOM      2  C   UNL     1       4.811   4.458  16.387  0.00  0.00    +0.000 A 
ATOM      3  C   UNL     1       6.093   4.584  15.862  0.00  0.00    +0.000 A 
ATOM      4  C   UNL     1       6.819   5.754  16.064  0.00  0.00    +0.000 A 
ATOM      5  C   UNL     1       6.273   6.829  16.772  0.00  0.00    +0.000 A 
ATOM      6  C   UNL     1       4.956   6.714  17.240  0.00  0.00    +0.000 A 
ENDROOT
BRANCH   5   7
ATOM      7  N   UNL     1       7.003   7.998  17.099  0.00  0.00    +0.000 N 
ATOM      8  C   UNL     1       7.973   8.091  18.084  0.00  0.00    +0.000 C 
ATOM      9  O   UNL     1       8.422   7.156  18.738  0.00  0.00    +0.000 OA
ATOM     10  H   UNL     1       6.744   8.872  16.651  0.00  0.00    +0.000 HD
BRANCH   8  11
ATOM     11  C   UNL     1       8.508   9.457  18.368  0.00  0.00    +0.000 A 
ATOM     12  C   UNL     1       8.028  10.490  17.570  0.00  0.00    +0.000 A 
ATOM     13  C   UNL     1       8.390  11.797  17.867  0.00  0.00    +0.000 A 
ATOM     14  C   UNL     1       7.785  12.868  17.197  0.00  0.00    +0.000 A 
ATOM     15  C   UNL     1       8.148  14.178  17.494  0.00  0.00    +0.000 A 
ATOM     16  C   UNL     1       9.164  14.421  18.415  0.00  0.00    +0.000 A 
ATOM     17  C   UNL     1       9.762  13.358  19.101  0.00  0.00    +0.000 A 
ATOM     18  C   UNL     1       9.342  12.032  18.873  0.00  0.00    +0.000 A 
ATOM     19  C   UNL     1       9.793  10.911  19.596  0.00  0.00    +0.000 A 
ATOM     20  N   UNL     1       9.385   9.628  19.390  0.00  0.00    +0.000 NA
ENDBRANCH   8  11
ENDBRANCH   5   7
BRANCH   1  22
ATOM     21  C   UNL     1       2.110   4.070  17.443  0.00  0.00    +0.000 C 
ATOM     22  C   UNL     1       2.848   5.378  17.769  0.00  0.00    +0.000 C 
BRANCH  22  23
ATOM     23  S   UNL     1       3.077   5.488  19.599  0.00  0.00    +0.000 S 
BRANCH  23  24
ATOM     24  C   UNL     1       3.674   3.920  19.987  0.00  0.00    +0.000 A 
ATOM     25  N   UNL     1       4.846   3.411  19.683  0.00  0.00    +0.000 NA
ATOM     26  N   UNL     1       4.912   2.156  20.251  0.00  0.00    +0.000 NA
ATOM     27  C   UNL     1       3.774   1.941  20.874  0.00  0.00    +0.000 A 
ATOM     28  N   UNL     1       2.958   3.020  20.719  0.00  0.00    +0.000 N 
ATOM     29  C   UNL     1       1.631   3.170  21.252  0.00  0.00    +0.000 C 
ENDBRANCH  23  24
ENDBRANCH  22  23
ENDBRANCH   1  22
TORSDOF 5
ENDMDL
MODEL 7
REMARK VINA RESULT:      -8.4      1.428      1.807
REMARK  Name = 
REMARK  7 active torsions:
REMARK  status: ('A' for Active; 'I' for Inactive)
REMARK    1  A    between atoms: C_1  and  C_2
REMARK    2  A    between atoms: C_2  and  S_3
REMARK    3  A    between atoms: C_2  and  C_10
REMARK    4  A    between atoms: S_3  and  C_4
REMARK    5  A    between atoms: N_8  and  C_9
REMARK    6  A    between atoms: C_14  and  N_15
REMARK    7  A    between atoms: C_16  and  C_18
REMARK                            x       y       z     vdW  Elec       q    Type
REMARK                         _______ _______ _______ _____ _____    ______ ____
ROOT
ATOM      1  C   UNL     1       4.915   4.502  18.343  0.00  0.00    +0.000 A 
ATOM      2  C   UNL     1       4.576   3.168  18.616  0.00  0.00    +0.000 A 
ATOM      3  C   UNL     1       3.554   2.861  19.509  0.00  0.00    +0.000 A 
ATOM      4  C   UNL     1       2.834   3.881  20.124  0.00  0.00    +0.000 A 
ATOM      5  C   UNL     1       3.134   5.224  19.880  0.00  0.00    +0.000 A 
ATOM      6  C   UNL     1       4.208   5.520  19.029  0.00  0.00    +0.000 A 
ENDROOT
BRANCH   5   7
ATOM      7  N   UNL     1       2.368   6.298  20.394  0.00  0.00    +0.000 N 
ATOM      8  C   UNL     1       2.081   7.476  19.721  0.00  0.00    +0.000 C 
ATOM      9  O   UNL     1       2.349   7.714  18.548  0.00  0.00    +0.000 OA
ATOM     10  H   UNL     1       2.075   6.265  21.366  0.00  0.00    +0.000 HD
BRANCH   8  11
ATOM     11  C   UNL     1       1.389   8.542  20.506  0.00  0.00    +0.000 A 
ATOM     12  C   UNL     1       0.714   9.513  19.773  0.00  0.00    +0.000 A 
ATOM     13  C   UNL     1      -0.052  10.456  20.445  0.00  0.00    +0.000 A 
ATOM     14  C   UNL     1      -0.881  11.332  19.732  0.00  0.00    +0.000 A 
ATOM     15  C   UNL     1      -1.650  12.276  20.406  0.00  0.00    +0.000 A 
ATOM     16  C   UNL     1      -1.544  12.393  21.790  0.00  0.00    +0.000 A 
ATOM     17  C   UNL     1      -0.731  11.512  22.511  0.00  0.00    +0.000 A 
ATOM     18  C   UNL     1      -0.015  10.494  21.849  0.00  0.00    +0.000 A 
ATOM     19  C   UNL     1       0.729   9.487  22.493  0.00  0.00    +0.000 A 
ATOM     20  N   UNL     1       1.415   8.493  21.862  0.00  0.00    +0.000 NA
ENDBRANCH   8  11
ENDBRANCH   5   7
BRANCH   1  22
ATOM     21  C   UNL     1       7.422   4.690  17.772  0.00  0.00    +0.000 C 
ATOM     22  C   UNL     1       5.972   4.880  17.300  0.00  0.00    +0.000 C 
BRANCH  22  23
ATOM     23  S   UNL     1       5.700   3.849  15.792  0.00  0.00    +0.000 S 
BRANCH  23  24
ATOM     24  C   UNL     1       6.748   4.594  14.647  0.00  0.00    +0.000 A 
ATOM     25  N   UNL     1       7.691   5.477  14.879  0.00  0.00    +0.000 NA
ATOM     26  N   UNL     1       8.314   5.743  13.678  0.00  0.00    +0.000 NA
ATOM     27  C   UNL     1       7.723   5.019  12.754  0.00  0.00    +0.000 A 
ATOM     28  N   UNL     1       6.720   4.291  13.318  0.00  0.00    +0.000 N 
ATOM     29  C   UNL     1       5.842   3.378  12.638  0.00  0.00    +0.000 C 
ENDBRANCH  23  24
ENDBRANCH  22  23
ENDBRANCH   1  22
TORSDOF 5
ENDMDL
MODEL 8
REMARK VINA RESULT:      -8.3      5.327      7.818
REMARK  Name = 
REMARK  7 active torsions:
REMARK  status: ('A' for Active; 'I' for Inactive)
REMARK    1  A    between atoms: C_1  and  C_2
REMARK    2  A    between atoms: C_2  and  S_3
REMARK    3  A    between atoms: C_2  and  C_10
REMARK    4  A    between atoms: S_3  and  C_4
REMARK    5  A    between atoms: N_8  and  C_9
REMARK    6  A    between atoms: C_14  and  N_15
REMARK    7  A    between atoms: C_16  and  C_18
REMARK                            x       y       z     vdW  Elec       q    Type
REMARK                         _______ _______ _______ _____ _____    ______ ____
ROOT
ATOM      1  C   UNL     1       4.816   5.207  17.396  0.00  0.00    +0.000 A 
ATOM      2  C   UNL     1       5.360   4.301  16.473  0.00  0.00    +0.000 A 
ATOM      3  C   UNL     1       6.494   4.629  15.736  0.00  0.00    +0.000 A 
ATOM      4  C   UNL     1       7.122   5.856  15.930  0.00  0.00    +0.000 A 
ATOM      5  C   UNL     1       6.618   6.788  16.841  0.00  0.00    +0.000 A 
ATOM      6  C   UNL     1       5.438   6.473  17.529  0.00  0.00    +0.000 A 
ENDROOT
BRANCH   5   7
ATOM      7  N   UNL     1       7.274   8.004  17.154  0.00  0.00    +0.000 N 
ATOM      8  C   UNL     1       8.162   8.191  18.202  0.00  0.00    +0.000 C 
ATOM      9  O   UNL     1       8.597   7.313  18.939  0.00  0.00    +0.000 OA
ATOM     10  H   UNL     1       7.016   8.841  16.641  0.00  0.00    +0.000 HD
BRANCH   8  11
ATOM     11  C   UNL     1       8.619   9.592  18.448  0.00  0.00    +0.000 A 
ATOM     12  C   UNL     1       8.048  10.580  17.652  0.00  0.00    +0.000 A 
ATOM     13  C   UNL     1       8.338  11.912  17.917  0.00  0.00    +0.000 A 
ATOM     14  C   UNL     1       7.644  12.932  17.254  0.00  0.00    +0.000 A 
ATOM     15  C   UNL     1       7.934  14.267  17.520  0.00  0.00    +0.000 A 
ATOM     16  C   UNL     1       8.963  14.588  18.401  0.00  0.00    +0.000 A 
ATOM     17  C   UNL     1       9.650  13.576  19.081  0.00  0.00    +0.000 A 
ATOM     18  C   UNL     1       9.306  12.223  18.886  0.00  0.00    +0.000 A 
ATOM     19  C   UNL     1       9.851  11.144  19.609  0.00  0.00    +0.000 A 
ATOM     20  N   UNL     1       9.518   9.835  19.436  0.00  0.00    +0.000 NA
ENDBRANCH   8  11
ENDBRANCH   5   7
BRANCH   1  22
ATOM     21  C   UNL     1       2.276   5.399  17.795  0.00  0.00    +0.000 C 
ATOM     22  C   UNL     1       3.623   4.848  18.289  0.00  0.00    +0.000 C 
BRANCH  22  23
ATOM     23  S   UNL     1       3.506   3.008  18.395  0.00  0.00    +0.000 S 
BRANCH  23  24
ATOM     24  C   UNL     1       2.845   2.775  19.968  0.00  0.00    +0.000 A 
ATOM     25  N   UNL     1       3.491   2.738  21.111  0.00  0.00    +0.000 NA
ATOM     26  N   UNL     1       2.553   2.595  22.112  0.00  0.00    +0.000 NA
ATOM     27  C   UNL     1       1.369   2.541  21.543  0.00  0.00    +0.000 A 
ATOM     28  N   UNL     1       1.508   2.634  20.191  0.00  0.00    +0.000 N 
ATOM     29  C   UNL     1       0.448   2.614  19.221  0.00  0.00    +0.000 C 
ENDBRANCH  23  24
ENDBRANCH  22  23
ENDBRANCH   1  22
TORSDOF 5
ENDMDL
MODEL 9
REMARK VINA RESULT:      -8.2      1.168      1.819
REMARK  Name = 
REMARK  7 active torsions:
REMARK  status: ('A' for Active; 'I' for Inactive)
REMARK    1  A    between atoms: C_1  and  C_2
REMARK    2  A    between atoms: C_2  and  S_3
REMARK    3  A    between atoms: C_2  and  C_10
REMARK    4  A    between atoms: S_3  and  C_4
REMARK    5  A    between atoms: N_8  and  C_9
REMARK    6  A    between atoms: C_14  and  N_15
REMARK    7  A    between atoms: C_16  and  C_18
REMARK                            x       y       z     vdW  Elec       q    Type
REMARK                         _______ _______ _______ _____ _____    ______ ____
ROOT
ATOM      1  C   UNL     1       4.415   5.176  17.370  0.00  0.00    +0.000 A 
ATOM      2  C   UNL     1       3.622   4.035  17.175  0.00  0.00    +0.000 A 
ATOM      3  C   UNL     1       2.319   3.981  17.659  0.00  0.00    +0.000 A 
ATOM      4  C   UNL     1       1.775   5.077  18.324  0.00  0.00    +0.000 A 
ATOM      5  C   UNL     1       2.526   6.236  18.538  0.00  0.00    +0.000 A 
ATOM      6  C   UNL     1       3.859   6.254  18.103  0.00  0.00    +0.000 A 
ENDROOT
BRANCH   5   7
ATOM      7  N   UNL     1       1.992   7.415  19.112  0.00  0.00    +0.000 N 
ATOM      8  C   UNL     1       1.833   8.627  18.458  0.00  0.00    +0.000 C 
ATOM      9  O   UNL     1       2.023   8.826  17.263  0.00  0.00    +0.000 OA
ATOM     10  H   UNL     1       1.789   7.422  20.107  0.00  0.00    +0.000 HD
BRANCH   8  11
ATOM     11  C   UNL     1       1.394   9.785  19.294  0.00  0.00    +0.000 A 
ATOM     12  C   UNL     1       1.356  11.025  18.666  0.00  0.00    +0.000 A 
ATOM     13  C   UNL     1       0.837  12.114  19.352  0.00  0.00    +0.000 A 
ATOM     14  C   UNL     1       0.622  13.330  18.691  0.00  0.00    +0.000 A 
ATOM     15  C   UNL     1       0.102  14.422  19.379  0.00  0.00    +0.000 A 
ATOM     16  C   UNL     1      -0.144  14.324  20.747  0.00  0.00    +0.000 A 
ATOM     17  C   UNL     1       0.052  13.108  21.411  0.00  0.00    +0.000 A 
ATOM     18  C   UNL     1       0.496  11.970  20.707  0.00  0.00    +0.000 A 
ATOM     19  C   UNL     1       0.606  10.679  21.257  0.00  0.00    +0.000 A 
ATOM     20  N   UNL     1       1.023   9.571  20.582  0.00  0.00    +0.000 NA
ENDBRANCH   8  11
ENDBRANCH   5   7
BRANCH   1  22
ATOM     21  C   UNL     1       6.950   5.327  17.817  0.00  0.00    +0.000 C 
ATOM     22  C   UNL     1       5.821   5.307  16.774  0.00  0.00    +0.000 C 
BRANCH  22  23
ATOM     23  S   UNL     1       6.103   3.890  15.624  0.00  0.00    +0.000 S 
BRANCH  23  24
ATOM     24  C   UNL     1       6.968   4.633  14.334  0.00  0.00    +0.000 A 
ATOM     25  N   UNL     1       7.903   5.551  14.420  0.00  0.00    +0.000 NA
ATOM     26  N   UNL     1       8.356   5.801  13.142  0.00  0.00    +0.000 NA
ATOM     27  C   UNL     1       7.675   5.033  12.320  0.00  0.00    +0.000 A 
ATOM     28  N   UNL     1       6.778   4.293  13.028  0.00  0.00    +0.000 N 
ATOM     29  C   UNL     1       5.850   3.335  12.490  0.00  0.00    +0.000 C 
ENDBRANCH  23  24
ENDBRANCH  22  23
ENDBRANCH   1  22
TORSDOF 5
ENDMDL
