MODEL 1
REMARK VINA RESULT:      -9.2      0.000      0.000
REMARK  Name = 
REMARK  11 active torsions:
REMARK  status: ('A' for Active; 'I' for Inactive)
REMARK    1  A    between atoms: C_1  and  C_2
REMARK    2  A    between atoms: C_2  and  C_3
REMARK    3  A    between atoms: C_3  and  O_4
REMARK    4  A    between atoms: O_4  and  C_5
REMARK    5  A    between atoms: C_7  and  C_8
REMARK    6  A    between atoms: C_8  and  C_9
REMARK    7  A    between atoms: C_8  and  C_10
REMARK    8  A    between atoms: C_10  and  C_11
REMARK    9  A    between atoms: N_15  and  C_16
REMARK   10  A    between atoms: C_18  and  N_19
REMARK   11  A    between atoms: C_26  and  C_27
REMARK                            x       y       z     vdW  Elec       q    Type
REMARK                         _______ _______ _______ _____ _____    ______ ____
ROOT
ATOM      1  C   UNL     1       3.651   4.638  19.576  0.00  0.00    +0.000 A 
ATOM      2  C   UNL     1       4.548   4.599  18.518  0.00  0.00    +0.000 A 
ATOM      3  C   UNL     1       4.566   5.663  17.598  0.00  0.00    +0.000 A 
ATOM      4  C   UNL     1       3.735   6.758  17.854  0.00  0.00    +0.000 A 
ATOM      5  C   UNL     1       2.917   6.770  18.982  0.00  0.00    +0.000 A 
ATOM      6  N   UNL     1       2.860   5.706  19.801  0.00  0.00    +0.000 NA
ENDROOT
BRANCH   5   7
ATOM      7  N   UNL     1       2.108   7.892  19.264  0.00  0.00    +0.000 N 
ATOM      8  C   UNL     1       1.445   8.078  20.539  0.00  0.00    +0.000 C 
ATOM      9  C   UNL     1       0.733   9.380  20.372  0.00  0.00    +0.000 A 
ATOM     10  C   UNL     1       0.945   9.854  19.079  0.00  0.00    +0.000 A 
ATOM     11  C   UNL     1       0.389  11.033  18.619  0.00  0.00    +0.000 A 
ATOM     12  C   UNL     1      -0.405  11.760  19.505  0.00  0.00    +0.000 A 
ATOM     13  C   UNL     1      -0.618  11.299  20.817  0.00  0.00    +0.000 A 
ATOM     14  C   UNL     1      -0.048  10.094  21.277  0.00  0.00    +0.000 A 
ATOM     15  C   UNL     1       1.826   8.919  18.367  0.00  0.00    +0.000 C 
ATOM     16  O   UNL     1       2.168   9.120  17.217  0.00  0.00    +0.000 OA
BRANCH  14  17
ATOM     17  C   UNL     1      -0.281   9.639  22.693  0.00  0.00    +0.000 C 
ATOM     18  F   UNL     1      -0.953   8.457  22.781  0.00  0.00    +0.000 F 
ATOM     19  F   UNL     1       0.882   9.456  23.375  0.00  0.00    +0.000 F 
ATOM     20  F   UNL     1      -1.008  10.534  23.416  0.00  0.00    +0.000 F 
ENDBRANCH  14  17
ENDBRANCH   5   7
BRANCH   3  21
ATOM     21  C   UNL     1       5.381   5.555  16.313  0.00  0.00    +0.000 C 
ATOM     22  C   UNL     1       4.922   4.460  15.335  0.00  0.00    +0.000 C 
BRANCH  21  23
ATOM     23  C   UNL     1       6.899   5.457  16.608  0.00  0.00    +0.000 C 
BRANCH  23  24
ATOM     24  C   UNL     1       7.467   6.634  17.338  0.00  0.00    +0.000 A 
ATOM     25  N   UNL     1       7.541   7.863  16.866  0.00  0.00    +0.000 NA
ATOM     26  N   UNL     1       8.091   8.669  17.832  0.00  0.00    +0.000 NA
ATOM     27  C   UNL     1       8.329   7.919  18.881  0.00  0.00    +0.000 A 
ATOM     28  N   UNL     1       7.960   6.635  18.619  0.00  0.00    +0.000 N 
ATOM     29  C   UNL     1       8.061   5.545  19.550  0.00  0.00    +0.000 C 
ENDBRANCH  23  24
ENDBRANCH  21  23
ENDBRANCH   3  21
BRANCH   1  30
ATOM     30  O   UNL     1       3.358   3.605  20.416  0.00  0.00    +0.000 OA
BRANCH  30  31
ATOM     31  C   UNL     1       2.277   3.729  21.329  0.00  0.00    +0.000 C 
BRANCH  31  33
ATOM     32  C   UNL     1       0.721   2.803  19.535  0.00  0.00    +0.000 C 
ATOM     33  C   UNL     1       1.202   2.693  20.977  0.00  0.00    +0.000 C 
ENDBRANCH  31  33
ENDBRANCH  30  31
ENDBRANCH   1  30
TORSDOF 8
ENDMDL
MODEL 2
REMARK VINA RESULT:      -9.0      0.835      1.245
REMARK  Name = 
REMARK  11 active torsions:
REMARK  status: ('A' for Active; 'I' for Inactive)
REMARK    1  A    between atoms: C_1  and  C_2
REMARK    2  A    between atoms: C_2  and  C_3
REMARK    3  A    between atoms: C_3  and  O_4
REMARK    4  A    between atoms: O_4  and  C_5
REMARK    5  A    between atoms: C_7  and  C_8
REMARK    6  A    between atoms: C_8  and  C_9
REMARK    7  A    between atoms: C_8  and  C_10
REMARK    8  A    between atoms: C_10  and  C_11
REMARK    9  A    between atoms: N_15  and  C_16
REMARK   10  A    between atoms: C_18  and  N_19
REMARK   11  A    between atoms: C_26  and  C_27
REMARK                            x       y       z     vdW  Elec       q    Type
REMARK                         _______ _______ _______ _____ _____    ______ ____
ROOT
ATOM      1  C   UNL     1       2.445   4.094  18.303  0.00  0.00    +0.000 A 
ATOM      2  C   UNL     1       3.625   4.004  17.578  0.00  0.00    +0.000 A 
ATOM      3  C   UNL     1       4.266   5.187  17.169  0.00  0.00    +0.000 A 
ATOM      4  C   UNL     1       3.726   6.403  17.600  0.00  0.00    +0.000 A 
ATOM      5  C   UNL     1       2.584   6.419  18.398  0.00  0.00    +0.000 A 
ATOM      6  N   UNL     1       1.945   5.278  18.707  0.00  0.00    +0.000 NA
ENDROOT
BRANCH   5   7
ATOM      7  N   UNL     1       2.061   7.643  18.868  0.00  0.00    +0.000 N 
ATOM      8  C   UNL     1       1.459   7.785  20.179  0.00  0.00    +0.000 C 
ATOM      9  C   UNL     1       1.072   9.226  20.227  0.00  0.00    +0.000 A 
ATOM     10  C   UNL     1       1.391   9.827  19.011  0.00  0.00    +0.000 A 
ATOM     11  C   UNL     1       1.128  11.158  18.747  0.00  0.00    +0.000 A 
ATOM     12  C   UNL     1       0.525  11.908  19.757  0.00  0.00    +0.000 A 
ATOM     13  C   UNL     1       0.209  11.318  20.994  0.00  0.00    +0.000 A 
ATOM     14  C   UNL     1       0.480   9.959  21.253  0.00  0.00    +0.000 A 
ATOM     15  C   UNL     1       2.028   8.830  18.141  0.00  0.00    +0.000 C 
ATOM     16  O   UNL     1       2.409   9.116  17.021  0.00  0.00    +0.000 OA
BRANCH  14  17
ATOM     17  C   UNL     1       0.146   9.363  22.595  0.00  0.00    +0.000 C 
ATOM     18  F   UNL     1      -0.417  10.252  23.460  0.00  0.00    +0.000 F 
ATOM     19  F   UNL     1      -0.736   8.331  22.497  0.00  0.00    +0.000 F 
ATOM     20  F   UNL     1       1.240   8.867  23.233  0.00  0.00    +0.000 F 
ENDBRANCH  14  17
ENDBRANCH   5   7
BRANCH   3  21
ATOM     21  C   UNL     1       5.439   5.129  16.195  0.00  0.00    +0.000 C 
ATOM     22  C   UNL     1       5.303   4.091  15.066  0.00  0.00    +0.000 C 
BRANCH  21  23
ATOM     23  C   UNL     1       6.791   4.990  16.939  0.00  0.00    +0.000 C 
BRANCH  23  24
ATOM     24  C   UNL     1       7.377   6.284  17.408  0.00  0.00    +0.000 A 
ATOM     25  N   UNL     1       7.445   7.395  16.700  0.00  0.00    +0.000 NA
ATOM     26  N   UNL     1       8.016   8.373  17.476  0.00  0.00    +0.000 NA
ATOM     27  C   UNL     1       8.274   7.845  18.648  0.00  0.00    +0.000 A 
ATOM     28  N   UNL     1       7.896   6.536  18.654  0.00  0.00    +0.000 N 
ATOM     29  C   UNL     1       8.014   5.653  19.781  0.00  0.00    +0.000 C 
ENDBRANCH  23  24
ENDBRANCH  21  23
ENDBRANCH   3  21
BRANCH   1  30
ATOM     30  O   UNL     1       1.596   3.064  18.582  0.00  0.00    +0.000 OA
BRANCH  30  31
ATOM     31  C   UNL     1       0.852   3.078  19.791  0.00  0.00    +0.000 C 
BRANCH  31  33
ATOM     32  C   UNL     1       2.226   3.561  21.883  0.00  0.00    +0.000 C 
ATOM     33  C   UNL     1       1.714   2.497  20.919  0.00  0.00    +0.000 C 
ENDBRANCH  31  33
ENDBRANCH  30  31
ENDBRANCH   1  30
TORSDOF 8
ENDMDL
MODEL 3
REMARK VINA RESULT:      -8.9      0.743      1.220
REMARK  Name = 
REMARK  11 active torsions:
REMARK  status: ('A' for Active; 'I' for Inactive)
REMARK    1  A    between atoms: C_1  and  C_2
REMARK    2  A    between atoms: C_2  and  C_3
REMARK    3  A    between atoms: C_3  and  O_4
REMARK    4  A    between atoms: O_4  and  C_5
REMARK    5  A    between atoms: C_7  and  C_8
REMARK    6  A    between atoms: C_8  and  C_9
REMARK    7  A    between atoms: C_8  and  C_10
REMARK    8  A    between atoms: C_10  and  C_11
REMARK    9  A    between atoms: N_15  and  C_16
REMARK   10  A    between atoms: C_18  and  N_19
REMARK   11  A    between atoms: C_26  and  C_27
REMARK                            x       y       z     vdW  Elec       q    Type
REMARK                         _______ _______ _______ _____ _____    ______ ____
ROOT
ATOM      1  C   UNL     1       3.459   4.431  19.781  0.00  0.00    +0.000 A 
ATOM      2  C   UNL     1       4.246   4.254  18.652  0.00  0.00    +0.000 A 
ATOM      3  C   UNL     1       4.236   5.243  17.652  0.00  0.00    +0.000 A 
ATOM      4  C   UNL     1       3.500   6.406  17.894  0.00  0.00    +0.000 A 
ATOM      5  C   UNL     1       2.797   6.556  19.088  0.00  0.00    +0.000 A 
ATOM      6  N   UNL     1       2.758   5.562  19.991  0.00  0.00    +0.000 NA
ENDROOT
BRANCH   5   7
ATOM      7  N   UNL     1       2.087   7.747  19.352  0.00  0.00    +0.000 N 
ATOM      8  C   UNL     1       1.412   7.993  20.611  0.00  0.00    +0.000 C 
ATOM      9  C   UNL     1       0.825   9.354  20.428  0.00  0.00    +0.000 A 
ATOM     10  C   UNL     1       1.111   9.807  19.142  0.00  0.00    +0.000 A 
ATOM     11  C   UNL     1       0.676  11.031  18.670  0.00  0.00    +0.000 A 
ATOM     12  C   UNL     1      -0.071  11.827  19.538  0.00  0.00    +0.000 A 
ATOM     13  C   UNL     1      -0.357  11.388  20.844  0.00  0.00    +0.000 A 
ATOM     14  C   UNL     1       0.090  10.137  21.315  0.00  0.00    +0.000 A 
ATOM     15  C   UNL     1       1.921   8.795  18.451  0.00  0.00    +0.000 C 
ATOM     16  O   UNL     1       2.309   8.964  17.310  0.00  0.00    +0.000 OA
BRANCH  14  17
ATOM     17  C   UNL     1      -0.218   9.704  22.724  0.00  0.00    +0.000 C 
ATOM     18  F   UNL     1      -0.938   8.550  22.794  0.00  0.00    +0.000 F 
ATOM     19  F   UNL     1       0.908   9.485  23.456  0.00  0.00    +0.000 F 
ATOM     20  F   UNL     1      -0.940  10.633  23.408  0.00  0.00    +0.000 F 
ENDBRANCH  14  17
ENDBRANCH   5   7
BRANCH   3  21
ATOM     21  C   UNL     1       4.915   4.986  16.310  0.00  0.00    +0.000 C 
ATOM     22  C   UNL     1       5.053   3.505  15.916  0.00  0.00    +0.000 C 
BRANCH  21  23
ATOM     23  C   UNL     1       6.270   5.732  16.206  0.00  0.00    +0.000 C 
BRANCH  23  24
ATOM     24  C   UNL     1       7.069   5.747  17.470  0.00  0.00    +0.000 A 
ATOM     25  N   UNL     1       7.420   4.683  18.166  0.00  0.00    +0.000 NA
ATOM     26  N   UNL     1       8.170   5.091  19.241  0.00  0.00    +0.000 NA
ATOM     27  C   UNL     1       8.275   6.396  19.174  0.00  0.00    +0.000 A 
ATOM     28  N   UNL     1       7.598   6.855  18.085  0.00  0.00    +0.000 N 
ATOM     29  C   UNL     1       7.515   8.234  17.690  0.00  0.00    +0.000 C 
ENDBRANCH  23  24
ENDBRANCH  21  23
ENDBRANCH   3  21
BRANCH   1  30
ATOM     30  O   UNL     1       3.189   3.484  20.725  0.00  0.00    +0.000 OA
BRANCH  30  31
ATOM     31  C   UNL     1       1.853   3.035  20.903  0.00  0.00    +0.000 C 
BRANCH  31  33
ATOM     32  C   UNL     1       0.762   2.722  18.621  0.00  0.00    +0.000 C 
ATOM     33  C   UNL     1       1.499   2.055  19.777  0.00  0.00    +0.000 C 
ENDBRANCH  31  33
ENDBRANCH  30  31
ENDBRANCH   1  30
TORSDOF 8
ENDMDL
MODEL 4
REMARK VINA RESULT:      -8.5      1.426      2.426
REMARK  Name = 
REMARK  11 active torsions:
REMARK  status: ('A' for Active; 'I' for Inactive)
REMARK    1  A    between atoms: C_1  and  C_2
REMARK    2  A    between atoms: C_2  and  C_3
REMARK    3  A    between atoms: C_3  and  O_4
REMARK    4  A    between atoms: O_4  and  C_5
REMARK    5  A    between atoms: C_7  and  C_8
REMARK    6  A    between atoms: C_8  and  C_9
REMARK    7  A    between atoms: C_8  and  C_10
REMARK    8  A    between atoms: C_10  and  C_11
REMARK    9  A    between atoms: N_15  and  C_16
REMARK   10  A    between atoms: C_18  and  N_19
REMARK   11  A    between atoms: C_26  and  C_27
REMARK                            x       y       z     vdW  Elec       q    Type
REMARK                         _______ _______ _______ _____ _____    ______ ____
ROOT
ATOM      1  C   UNL     1       3.137   4.339  18.572  0.00  0.00    +0.000 A 
ATOM      2  C   UNL     1       4.523   4.390  18.529  0.00  0.00    +0.000 A 
ATOM      3  C   UNL     1       5.163   5.639  18.620  0.00  0.00    +0.000 A 
ATOM      4  C   UNL     1       4.365   6.764  18.846  0.00  0.00    +0.000 A 
ATOM      5  C   UNL     1       2.983   6.632  18.962  0.00  0.00    +0.000 A 
ATOM      6  N   UNL     1       2.390   5.438  18.791  0.00  0.00    +0.000 NA
ENDROOT
BRANCH   5   7
ATOM      7  N   UNL     1       2.179   7.761  19.231  0.00  0.00    +0.000 N 
ATOM      8  C   UNL     1       1.514   7.963  20.503  0.00  0.00    +0.000 C 
ATOM      9  C   UNL     1       0.809   9.266  20.321  0.00  0.00    +0.000 A 
ATOM     10  C   UNL     1       1.026   9.727  19.024  0.00  0.00    +0.000 A 
ATOM     11  C   UNL     1       0.477  10.905  18.551  0.00  0.00    +0.000 A 
ATOM     12  C   UNL     1      -0.316  11.644  19.428  0.00  0.00    +0.000 A 
ATOM     13  C   UNL     1      -0.533  11.197  20.744  0.00  0.00    +0.000 A 
ATOM     14  C   UNL     1       0.029   9.994  21.217  0.00  0.00    +0.000 A 
ATOM     15  C   UNL     1       1.904   8.780  18.323  0.00  0.00    +0.000 C 
ATOM     16  O   UNL     1       2.250   8.968  17.172  0.00  0.00    +0.000 OA
BRANCH  14  17
ATOM     17  C   UNL     1      -0.209   9.553  22.637  0.00  0.00    +0.000 C 
ATOM     18  F   UNL     1       0.938   9.351  23.343  0.00  0.00    +0.000 F 
ATOM     19  F   UNL     1      -0.927  10.465  23.347  0.00  0.00    +0.000 F 
ATOM     20  F   UNL     1      -0.902   8.385  22.711  0.00  0.00    +0.000 F 
ENDBRANCH  14  17
ENDBRANCH   5   7
BRANCH   3  21
ATOM     21  C   UNL     1       6.662   5.756  18.362  0.00  0.00    +0.000 C 
ATOM     22  C   UNL     1       7.123   7.098  17.766  0.00  0.00    +0.000 C 
BRANCH  21  23
ATOM     23  C   UNL     1       7.195   4.554  17.541  0.00  0.00    +0.000 C 
BRANCH  23  24
ATOM     24  C   UNL     1       7.070   4.712  16.058  0.00  0.00    +0.000 A 
ATOM     25  N   UNL     1       7.822   5.492  15.306  0.00  0.00    +0.000 NA
ATOM     26  N   UNL     1       7.430   5.347  13.998  0.00  0.00    +0.000 NA
ATOM     27  C   UNL     1       6.455   4.471  13.975  0.00  0.00    +0.000 A 
ATOM     28  N   UNL     1       6.189   4.048  15.242  0.00  0.00    +0.000 N 
ATOM     29  C   UNL     1       5.193   3.072  15.590  0.00  0.00    +0.000 C 
ENDBRANCH  23  24
ENDBRANCH  21  23
ENDBRANCH   3  21
BRANCH   1  30
ATOM     30  O   UNL     1       2.367   3.252  18.282  0.00  0.00    +0.000 OA
BRANCH  30  31
ATOM     31  C   UNL     1       1.182   3.014  19.028  0.00  0.00    +0.000 C 
BRANCH  31  33
ATOM     32  C   UNL     1       1.641   3.167  21.531  0.00  0.00    +0.000 C 
ATOM     33  C   UNL     1       1.541   2.256  20.312  0.00  0.00    +0.000 C 
ENDBRANCH  31  33
ENDBRANCH  30  31
ENDBRANCH   1  30
TORSDOF 8
ENDMDL
MODEL 5
REMARK VINA RESULT:      -8.4      1.569      2.541
REMARK  Name = 
REMARK  11 active torsions:
REMARK  status: ('A' for Active; 'I' for Inactive)
REMARK    1  A    between atoms: C_1  and  C_2
REMARK    2  A    between atoms: C_2  and  C_3
REMARK    3  A    between atoms: C_3  and  O_4
REMARK    4  A    between atoms: O_4  and  C_5
REMARK    5  A    between atoms: C_7  and  C_8
REMARK    6  A    between atoms: C_8  and  C_9
REMARK    7  A    between atoms: C_8  and  C_10
REMARK    8  A    between atoms: C_10  and  C_11
REMARK    9  A    between atoms: N_15  and  C_16
REMARK   10  A    between atoms: C_18  and  N_19
REMARK   11  A    between atoms: C_26  and  C_27
REMARK                            x       y       z     vdW  Elec       q    Type
REMARK                         _______ _______ _______ _____ _____    ______ ____
ROOT
ATOM      1  C   UNL     1       3.432   3.974  20.207  0.00  0.00    +0.000 A 
ATOM      2  C   UNL     1       4.481   3.790  19.318  0.00  0.00    +0.000 A 
ATOM      3  C   UNL     1       4.761   4.794  18.375  0.00  0.00    +0.000 A 
ATOM      4  C   UNL     1       4.020   5.978  18.446  0.00  0.00    +0.000 A 
ATOM      5  C   UNL     1       3.034   6.131  19.419  0.00  0.00    +0.000 A 
ATOM      6  N   UNL     1       2.732   5.124  20.256  0.00  0.00    +0.000 NA
ENDROOT
BRANCH   5   7
ATOM      7  N   UNL     1       2.313   7.340  19.519  0.00  0.00    +0.000 N 
ATOM      8  C   UNL     1       1.573   7.714  20.707  0.00  0.00    +0.000 C 
ATOM      9  C   UNL     1       0.999   9.047  20.352  0.00  0.00    +0.000 A 
ATOM     10  C   UNL     1       1.353   9.363  19.042  0.00  0.00    +0.000 A 
ATOM     11  C   UNL     1       0.946  10.530  18.422  0.00  0.00    +0.000 A 
ATOM     12  C   UNL     1       0.156  11.409  19.161  0.00  0.00    +0.000 A 
ATOM     13  C   UNL     1      -0.199  11.108  20.489  0.00  0.00    +0.000 A 
ATOM     14  C   UNL     1       0.220   9.915  21.111  0.00  0.00    +0.000 A 
ATOM     15  C   UNL     1       2.197   8.287  18.505  0.00  0.00    +0.000 C 
ATOM     16  O   UNL     1       2.644   8.337  17.374  0.00  0.00    +0.000 OA
BRANCH  14  17
ATOM     17  C   UNL     1      -0.163   9.632  22.540  0.00  0.00    +0.000 C 
ATOM     18  F   UNL     1       0.905   9.405  23.355  0.00  0.00    +0.000 F 
ATOM     19  F   UNL     1      -0.849  10.663  23.105  0.00  0.00    +0.000 F 
ATOM     20  F   UNL     1      -0.961   8.536  22.659  0.00  0.00    +0.000 F 
ENDBRANCH  14  17
ENDBRANCH   5   7
BRANCH   3  21
ATOM     21  C   UNL     1       5.759   4.538  17.250  0.00  0.00    +0.000 C 
ATOM     22  C   UNL     1       7.241   4.609  17.660  0.00  0.00    +0.000 C 
BRANCH  21  23
ATOM     23  C   UNL     1       5.466   5.427  16.014  0.00  0.00    +0.000 C 
BRANCH  23  24
ATOM     24  C   UNL     1       6.474   5.312  14.915  0.00  0.00    +0.000 A 
ATOM     25  N   UNL     1       7.662   5.885  14.904  0.00  0.00    +0.000 NA
ATOM     26  N   UNL     1       8.309   5.525  13.748  0.00  0.00    +0.000 NA
ATOM     27  C   UNL     1       7.511   4.727  13.082  0.00  0.00    +0.000 A 
ATOM     28  N   UNL     1       6.346   4.567  13.769  0.00  0.00    +0.000 N 
ATOM     29  C   UNL     1       5.248   3.743  13.344  0.00  0.00    +0.000 C 
ENDBRANCH  23  24
ENDBRANCH  21  23
ENDBRANCH   3  21
BRANCH   1  30
ATOM     30  O   UNL     1       2.899   3.021  21.024  0.00  0.00    +0.000 OA
BRANCH  30  31
ATOM     31  C   UNL     1       1.519   2.700  20.917  0.00  0.00    +0.000 C 
BRANCH  31  33
ATOM     32  C   UNL     1       0.841   2.805  18.463  0.00  0.00    +0.000 C 
ATOM     33  C   UNL     1       1.285   1.917  19.619  0.00  0.00    +0.000 C 
ENDBRANCH  31  33
ENDBRANCH  30  31
ENDBRANCH   1  30
TORSDOF 8
ENDMDL
MODEL 6
REMARK VINA RESULT:      -8.4      1.550      2.494
REMARK  Name = 
REMARK  11 active torsions:
REMARK  status: ('A' for Active; 'I' for Inactive)
REMARK    1  A    between atoms: C_1  and  C_2
REMARK    2  A    between atoms: C_2  and  C_3
REMARK    3  A    between atoms: C_3  and  O_4
REMARK    4  A    between atoms: O_4  and  C_5
REMARK    5  A    between atoms: C_7  and  C_8
REMARK    6  A    between atoms: C_8  and  C_9
REMARK    7  A    between atoms: C_8  and  C_10
REMARK    8  A    between atoms: C_10  and  C_11
REMARK    9  A    between atoms: N_15  and  C_16
REMARK   10  A    between atoms: C_18  and  N_19
REMARK   11  A    between atoms: C_26  and  C_27
REMARK                            x       y       z     vdW  Elec       q    Type
REMARK                         _______ _______ _______ _____ _____    ______ ____
ROOT
ATOM      1  C   UNL     1       3.120   4.069  18.593  0.00  0.00    +0.000 A 
ATOM      2  C   UNL     1       4.507   4.036  18.641  0.00  0.00    +0.000 A 
ATOM      3  C   UNL     1       5.214   5.241  18.792  0.00  0.00    +0.000 A 
ATOM      4  C   UNL     1       4.472   6.411  18.982  0.00  0.00    +0.000 A 
ATOM      5  C   UNL     1       3.080   6.363  19.006  0.00  0.00    +0.000 A 
ATOM      6  N   UNL     1       2.429   5.210  18.778  0.00  0.00    +0.000 NA
ENDROOT
BRANCH   5   7
ATOM      7  N   UNL     1       2.330   7.536  19.238  0.00  0.00    +0.000 N 
ATOM      8  C   UNL     1       1.646   7.792  20.490  0.00  0.00    +0.000 C 
ATOM      9  C   UNL     1       1.015   9.128  20.272  0.00  0.00    +0.000 A 
ATOM     10  C   UNL     1       1.287   9.557  18.975  0.00  0.00    +0.000 A 
ATOM     11  C   UNL     1       0.812  10.753  18.471  0.00  0.00    +0.000 A 
ATOM     12  C   UNL     1       0.039  11.546  19.318  0.00  0.00    +0.000 A 
ATOM     13  C   UNL     1      -0.234  11.132  20.635  0.00  0.00    +0.000 A 
ATOM     14  C   UNL     1       0.253   9.909  21.138  0.00  0.00    +0.000 A 
ATOM     15  C   UNL     1       2.131   8.554  18.310  0.00  0.00    +0.000 C 
ATOM     16  O   UNL     1       2.514   8.706  17.165  0.00  0.00    +0.000 OA
BRANCH  14  17
ATOM     17  C   UNL     1      -0.042   9.503  22.558  0.00  0.00    +0.000 C 
ATOM     18  F   UNL     1      -0.823   8.391  22.655  0.00  0.00    +0.000 F 
ATOM     19  F   UNL     1       1.089   9.226  23.262  0.00  0.00    +0.000 F 
ATOM     20  F   UNL     1      -0.692  10.475  23.253  0.00  0.00    +0.000 F 
ENDBRANCH  14  17
ENDBRANCH   5   7
BRANCH   3  21
ATOM     21  C   UNL     1       6.731   5.269  18.635  0.00  0.00    +0.000 C 
ATOM     22  C   UNL     1       7.510   5.764  19.867  0.00  0.00    +0.000 C 
BRANCH  21  23
ATOM     23  C   UNL     1       7.158   6.024  17.350  0.00  0.00    +0.000 C 
BRANCH  23  24
ATOM     24  C   UNL     1       6.744   5.359  16.074  0.00  0.00    +0.000 A 
ATOM     25  N   UNL     1       7.302   4.282  15.557  0.00  0.00    +0.000 NA
ATOM     26  N   UNL     1       6.633   3.955  14.404  0.00  0.00    +0.000 NA
ATOM     27  C   UNL     1       5.671   4.831  14.245  0.00  0.00    +0.000 A 
ATOM     28  N   UNL     1       5.702   5.735  15.264  0.00  0.00    +0.000 N 
ATOM     29  C   UNL     1       4.780   6.825  15.422  0.00  0.00    +0.000 C 
ENDBRANCH  23  24
ENDBRANCH  21  23
ENDBRANCH   3  21
BRANCH   1  30
ATOM     30  O   UNL     1       2.306   3.035  18.236  0.00  0.00    +0.000 OA
BRANCH  30  31
ATOM     31  C   UNL     1       2.185   1.911  19.096  0.00  0.00    +0.000 C 
BRANCH  31  33
ATOM     32  C   UNL     1       1.104   2.911  21.177  0.00  0.00    +0.000 C 
ATOM     33  C   UNL     1       2.382   2.367  20.548  0.00  0.00    +0.000 C 
ENDBRANCH  31  33
ENDBRANCH  30  31
ENDBRANCH   1  30
TORSDOF 8
ENDMDL
MODEL 7
REMARK VINA RESULT:      -8.2      1.747      2.636
REMARK  Name = 
REMARK  11 active torsions:
REMARK  status: ('A' for Active; 'I' for Inactive)
REMARK    1  A    between atoms: C_1  and  C_2
REMARK    2  A    between atoms: C_2  and  C_3
REMARK    3  A    between atoms: C_3  and  O_4
REMARK    4  A    between atoms: O_4  and  C_5
REMARK    5  A    between atoms: C_7  and  C_8
REMARK    6  A    between atoms: C_8  and  C_9
REMARK    7  A    between atoms: C_8  and  C_10
REMARK    8  A    between atoms: C_10  and  C_11
REMARK    9  A    between atoms: N_15  and  C_16
REMARK   10  A    between atoms: C_18  and  N_19
REMARK   11  A    between atoms: C_26  and  C_27
REMARK                            x       y       z     vdW  Elec       q    Type
REMARK                         _______ _______ _______ _____ _____    ______ ____
ROOT
ATOM      1  C   UNL     1       2.498   4.413  18.419  0.00  0.00    +0.000 A 
ATOM      2  C   UNL     1       3.788   4.363  17.909  0.00  0.00    +0.000 A 
ATOM      3  C   UNL     1       4.475   5.566  17.672  0.00  0.00    +0.000 A 
ATOM      4  C   UNL     1       3.851   6.758  18.054  0.00  0.00    +0.000 A 
ATOM      5  C   UNL     1       2.586   6.732  18.638  0.00  0.00    +0.000 A 
ATOM      6  N   UNL     1       1.919   5.575  18.780  0.00  0.00    +0.000 NA
ENDROOT
BRANCH   5   7
ATOM      7  N   UNL     1       1.973   7.930  19.062  0.00  0.00    +0.000 N 
ATOM      8  C   UNL     1       1.355   8.074  20.365  0.00  0.00    +0.000 C 
ATOM      9  C   UNL     1       0.864   9.484  20.361  0.00  0.00    +0.000 A 
ATOM     10  C   UNL     1       1.144  10.063  19.125  0.00  0.00    +0.000 A 
ATOM     11  C   UNL     1       0.786  11.361  18.812  0.00  0.00    +0.000 A 
ATOM     12  C   UNL     1       0.125  12.100  19.792  0.00  0.00    +0.000 A 
ATOM     13  C   UNL     1      -0.154  11.533  21.049  0.00  0.00    +0.000 A 
ATOM     14  C   UNL     1       0.214  10.208  21.358  0.00  0.00    +0.000 A 
ATOM     15  C   UNL     1       1.858   9.085  18.293  0.00  0.00    +0.000 C 
ATOM     16  O   UNL     1       2.223   9.358  17.165  0.00  0.00    +0.000 OA
BRANCH  14  17
ATOM     17  C   UNL     1      -0.084   9.637  22.719  0.00  0.00    +0.000 C 
ATOM     18  F   UNL     1      -0.841   8.505  22.681  0.00  0.00    +0.000 F 
ATOM     19  F   UNL     1       1.047   9.305  23.399  0.00  0.00    +0.000 F 
ATOM     20  F   UNL     1      -0.761  10.510  23.514  0.00  0.00    +0.000 F 
ENDBRANCH  14  17
ENDBRANCH   5   7
BRANCH   3  21
ATOM     21  C   UNL     1       5.801   5.559  16.917  0.00  0.00    +0.000 C 
ATOM     22  C   UNL     1       6.261   6.929  16.387  0.00  0.00    +0.000 C 
BRANCH  21  23
ATOM     23  C   UNL     1       5.817   4.482  15.803  0.00  0.00    +0.000 C 
BRANCH  23  24
ATOM     24  C   UNL     1       6.698   4.808  14.638  0.00  0.00    +0.000 A 
ATOM     25  N   UNL     1       7.784   5.554  14.686  0.00  0.00    +0.000 NA
ATOM     26  N   UNL     1       8.338   5.598  13.430  0.00  0.00    +0.000 NA
ATOM     27  C   UNL     1       7.587   4.867  12.642  0.00  0.00    +0.000 A 
ATOM     28  N   UNL     1       6.544   4.354  13.352  0.00  0.00    +0.000 N 
ATOM     29  C   UNL     1       5.530   3.489  12.812  0.00  0.00    +0.000 C 
ENDBRANCH  23  24
ENDBRANCH  21  23
ENDBRANCH   3  21
BRANCH   1  30
ATOM     30  O   UNL     1       1.627   3.366  18.499  0.00  0.00    +0.000 OA
BRANCH  30  31
ATOM     31  C   UNL     1       1.704   2.475  19.602  0.00  0.00    +0.000 C 
BRANCH  31  33
ATOM     32  C   UNL     1       1.373   2.376  22.128  0.00  0.00    +0.000 C 
ATOM     33  C   UNL     1       1.529   3.270  20.903  0.00  0.00    +0.000 C 
ENDBRANCH  31  33
ENDBRANCH  30  31
ENDBRANCH   1  30
TORSDOF 8
ENDMDL
MODEL 8
REMARK VINA RESULT:      -8.2      2.149      2.714
REMARK  Name = 
REMARK  11 active torsions:
REMARK  status: ('A' for Active; 'I' for Inactive)
REMARK    1  A    between atoms: C_1  and  C_2
REMARK    2  A    between atoms: C_2  and  C_3
REMARK    3  A    between atoms: C_3  and  O_4
REMARK    4  A    between atoms: O_4  and  C_5
REMARK    5  A    between atoms: C_7  and  C_8
REMARK    6  A    between atoms: C_8  and  C_9
REMARK    7  A    between atoms: C_8  and  C_10
REMARK    8  A    between atoms: C_10  and  C_11
REMARK    9  A    between atoms: N_15  and  C_16
REMARK   10  A    between atoms: C_18  and  N_19
REMARK   11  A    between atoms: C_26  and  C_27
REMARK                            x       y       z     vdW  Elec       q    Type
REMARK                         _______ _______ _______ _____ _____    ______ ____
ROOT
ATOM      1  C   UNL     1       2.461   3.804  17.760  0.00  0.00    +0.000 A 
ATOM      2  C   UNL     1       3.647   3.899  17.044  0.00  0.00    +0.000 A 
ATOM      3  C   UNL     1       4.291   5.146  16.952  0.00  0.00    +0.000 A 
ATOM      4  C   UNL     1       3.746   6.213  17.673  0.00  0.00    +0.000 A 
ATOM      5  C   UNL     1       2.597   6.029  18.440  0.00  0.00    +0.000 A 
ATOM      6  N   UNL     1       1.957   4.848  18.445  0.00  0.00    +0.000 NA
ENDROOT
BRANCH   5   7
ATOM      7  N   UNL     1       2.070   7.095  19.200  0.00  0.00    +0.000 N 
ATOM      8  C   UNL     1       1.862   8.420  18.650  0.00  0.00    +0.000 C 
ATOM      9  C   UNL     1       1.292   9.185  19.799  0.00  0.00    +0.000 A 
ATOM     10  C   UNL     1       1.237   8.357  20.918  0.00  0.00    +0.000 A 
ATOM     11  C   UNL     1       0.775   8.795  22.145  0.00  0.00    +0.000 A 
ATOM     12  C   UNL     1       0.347  10.119  22.238  0.00  0.00    +0.000 A 
ATOM     13  C   UNL     1       0.386  10.963  21.112  0.00  0.00    +0.000 A 
ATOM     14  C   UNL     1       0.860  10.508  19.866  0.00  0.00    +0.000 A 
ATOM     15  C   UNL     1       1.723   7.022  20.546  0.00  0.00    +0.000 C 
ATOM     16  O   UNL     1       1.762   6.113  21.354  0.00  0.00    +0.000 OA
BRANCH  14  17
ATOM     17  C   UNL     1       0.871  11.432  18.677  0.00  0.00    +0.000 C 
ATOM     18  F   UNL     1       0.003  11.064  17.694  0.00  0.00    +0.000 F 
ATOM     19  F   UNL     1       0.536  12.707  19.011  0.00  0.00    +0.000 F 
ATOM     20  F   UNL     1       2.094  11.504  18.084  0.00  0.00    +0.000 F 
ENDBRANCH  14  17
ENDBRANCH   5   7
BRANCH   3  21
ATOM     21  C   UNL     1       5.471   5.335  16.005  0.00  0.00    +0.000 C 
ATOM     22  C   UNL     1       5.416   4.499  14.713  0.00  0.00    +0.000 C 
BRANCH  21  23
ATOM     23  C   UNL     1       6.825   5.161  16.739  0.00  0.00    +0.000 C 
BRANCH  23  24
ATOM     24  C   UNL     1       7.386   6.424  17.312  0.00  0.00    +0.000 A 
ATOM     25  N   UNL     1       7.422   7.592  16.699  0.00  0.00    +0.000 NA
ATOM     26  N   UNL     1       7.980   8.514  17.550  0.00  0.00    +0.000 NA
ATOM     27  C   UNL     1       8.261   7.895  18.671  0.00  0.00    +0.000 A 
ATOM     28  N   UNL     1       7.912   6.582  18.570  0.00  0.00    +0.000 N 
ATOM     29  C   UNL     1       8.060   5.610  19.617  0.00  0.00    +0.000 C 
ENDBRANCH  23  24
ENDBRANCH  21  23
ENDBRANCH   3  21
BRANCH   1  30
ATOM     30  O   UNL     1       1.611   2.737  17.762  0.00  0.00    +0.000 OA
BRANCH  30  31
ATOM     31  C   UNL     1       1.658   1.808  18.835  0.00  0.00    +0.000 C 
BRANCH  31  33
ATOM     32  C   UNL     1       1.355   2.687  21.208  0.00  0.00    +0.000 C 
ATOM     33  C   UNL     1       2.321   2.474  20.048  0.00  0.00    +0.000 C 
ENDBRANCH  31  33
ENDBRANCH  30  31
ENDBRANCH   1  30
TORSDOF 8
ENDMDL
MODEL 9
REMARK VINA RESULT:      -8.2      2.231      2.925
REMARK  Name = 
REMARK  11 active torsions:
REMARK  status: ('A' for Active; 'I' for Inactive)
REMARK    1  A    between atoms: C_1  and  C_2
REMARK    2  A    between atoms: C_2  and  C_3
REMARK    3  A    between atoms: C_3  and  O_4
REMARK    4  A    between atoms: O_4  and  C_5
REMARK    5  A    between atoms: C_7  and  C_8
REMARK    6  A    between atoms: C_8  and  C_9
REMARK    7  A    between atoms: C_8  and  C_10
REMARK    8  A    between atoms: C_10  and  C_11
REMARK    9  A    between atoms: N_15  and  C_16
REMARK   10  A    between atoms: C_18  and  N_19
REMARK   11  A    between atoms: C_26  and  C_27
REMARK                            x       y       z     vdW  Elec       q    Type
REMARK                         _______ _______ _______ _____ _____    ______ ____
ROOT
ATOM      1  C   UNL     1       2.570   4.174  17.591  0.00  0.00    +0.000 A 
ATOM      2  C   UNL     1       3.776   4.331  16.922  0.00  0.00    +0.000 A 
ATOM      3  C   UNL     1       4.390   5.596  16.908  0.00  0.00    +0.000 A 
ATOM      4  C   UNL     1       3.795   6.616  17.657  0.00  0.00    +0.000 A 
ATOM      5  C   UNL     1       2.626   6.368  18.375  0.00  0.00    +0.000 A 
ATOM      6  N   UNL     1       2.017   5.173  18.305  0.00  0.00    +0.000 NA
ENDROOT
BRANCH   5   7
ATOM      7  N   UNL     1       2.047   7.385  19.164  0.00  0.00    +0.000 N 
ATOM      8  C   UNL     1       1.824   8.729  18.668  0.00  0.00    +0.000 C 
ATOM      9  C   UNL     1       1.196   9.426  19.830  0.00  0.00    +0.000 A 
ATOM     10  C   UNL     1       1.124   8.546  20.908  0.00  0.00    +0.000 A 
ATOM     11  C   UNL     1       0.610   8.915  22.137  0.00  0.00    +0.000 A 
ATOM     12  C   UNL     1       0.146  10.223  22.274  0.00  0.00    +0.000 A 
ATOM     13  C   UNL     1       0.200  11.119  21.191  0.00  0.00    +0.000 A 
ATOM     14  C   UNL     1       0.728  10.733  19.942  0.00  0.00    +0.000 A 
ATOM     15  C   UNL     1       1.656   7.241  20.493  0.00  0.00    +0.000 C 
ATOM     16  O   UNL     1       1.692   6.297  21.260  0.00  0.00    +0.000 OA
BRANCH  14  17
ATOM     17  C   UNL     1       0.756  11.712  18.797  0.00  0.00    +0.000 C 
ATOM     18  F   UNL     1      -0.119  11.404  17.799  0.00  0.00    +0.000 F 
ATOM     19  F   UNL     1       0.442  12.976  19.190  0.00  0.00    +0.000 F 
ATOM     20  F   UNL     1       1.979  11.790  18.208  0.00  0.00    +0.000 F 
ENDBRANCH  14  17
ENDBRANCH   5   7
BRANCH   3  21
ATOM     21  C   UNL     1       5.596   5.857  16.011  0.00  0.00    +0.000 C 
ATOM     22  C   UNL     1       5.350   5.650  14.506  0.00  0.00    +0.000 C 
BRANCH  21  23
ATOM     23  C   UNL     1       6.846   5.081  16.497  0.00  0.00    +0.000 C 
BRANCH  23  24
ATOM     24  C   UNL     1       7.296   5.433  17.880  0.00  0.00    +0.000 A 
ATOM     25  N   UNL     1       7.359   4.598  18.899  0.00  0.00    +0.000 NA
ATOM     26  N   UNL     1       7.846   5.277  19.989  0.00  0.00    +0.000 NA
ATOM     27  C   UNL     1       8.083   6.509  19.612  0.00  0.00    +0.000 A 
ATOM     28  N   UNL     1       7.750   6.658  18.300  0.00  0.00    +0.000 N 
ATOM     29  C   UNL     1       7.897   7.875  17.548  0.00  0.00    +0.000 C 
ENDBRANCH  23  24
ENDBRANCH  21  23
ENDBRANCH   3  21
BRANCH   1  30
ATOM     30  O   UNL     1       1.749   3.088  17.517  0.00  0.00    +0.000 OA
BRANCH  30  31
ATOM     31  C   UNL     1       0.973   2.719  18.647  0.00  0.00    +0.000 C 
BRANCH  31  33
ATOM     32  C   UNL     1       1.410   2.553  21.153  0.00  0.00    +0.000 C 
ATOM     33  C   UNL     1       1.908   2.211  19.753  0.00  0.00    +0.000 C 
ENDBRANCH  31  33
ENDBRANCH  30  31
ENDBRANCH   1  30
TORSDOF 8
ENDMDL
