MODEL 1
REMARK VINA RESULT:      -8.3      0.000      0.000
REMARK  Name = 
REMARK  8 active torsions:
REMARK  status: ('A' for Active; 'I' for Inactive)
REMARK    1  A    between atoms: C_1  and  C_2
REMARK    2  A    between atoms: C_4  and  C_5
REMARK    3  A    between atoms: N_7  and  C_8
REMARK    4  A    between atoms: C_12  and  C_13
REMARK    5  A    between atoms: C_13  and  C_14
REMARK    6  A    between atoms: C_14  and  C_15
REMARK    7  A    between atoms: N_19  and  C_20
REMARK    8  A    between atoms: C_26  and  C_27
REMARK                            x       y       z     vdW  Elec       q    Type
REMARK                         _______ _______ _______ _____ _____    ______ ____
ROOT
ATOM      1  C   UNL     1      -0.366  10.080  19.053  0.00  0.00    +0.000 A 
ATOM      2  C   UNL     1      -1.054  10.467  17.904  0.00  0.00    +0.000 A 
ATOM      3  C   UNL     1      -1.934  11.544  17.935  0.00  0.00    +0.000 A 
ATOM      4  C   UNL     1      -2.113  12.259  19.116  0.00  0.00    +0.000 A 
ATOM      5  C   UNL     1      -1.430  11.919  20.302  0.00  0.00    +0.000 A 
ATOM      6  C   UNL     1      -0.593  10.780  20.246  0.00  0.00    +0.000 A 
ENDROOT
BRANCH   1   9
ATOM      7  C   UNL     1       1.718   8.956  18.296  0.00  0.00    +0.000 C 
ATOM      8  O   UNL     1       2.127   9.811  17.516  0.00  0.00    +0.000 OA
ATOM      9  N   UNL     1       0.567   9.023  19.061  0.00  0.00    +0.000 N 
ATOM     10  H   UNL     1       0.457   8.287  19.755  0.00  0.00    +0.000 HD
BRANCH   7  14
ATOM     11  C   UNL     1       5.384   5.904  16.911  0.00  0.00    +0.000 C 
ATOM     12  C   UNL     1       4.254   6.295  17.814  0.00  0.00    +0.000 A 
ATOM     13  C   UNL     1       3.574   7.472  17.618  0.00  0.00    +0.000 A 
ATOM     14  C   UNL     1       2.533   7.721  18.490  0.00  0.00    +0.000 A 
ATOM     15  N   UNL     1       2.174   6.901  19.502  0.00  0.00    +0.000 NA
ATOM     16  C   UNL     1       2.894   5.772  19.607  0.00  0.00    +0.000 A 
ATOM     17  N   UNL     1       3.921   5.435  18.798  0.00  0.00    +0.000 NA
BRANCH  16  18
ATOM     18  C   UNL     1       2.439   4.731  20.657  0.00  0.00    +0.000 C 
ATOM     19  C   UNL     1       1.018   4.101  20.576  0.00  0.00    +0.000 C 
ATOM     20  C   UNL     1       1.638   2.822  21.178  0.00  0.00    +0.000 C 
ATOM     21  C   UNL     1       2.967   3.270  20.538  0.00  0.00    +0.000 C 
ENDBRANCH  16  18
ENDBRANCH   7  14
ENDBRANCH   1   9
BRANCH   5  22
ATOM     22  C   UNL     1      -1.555  12.829  21.616  0.00  0.00    +0.000 C 
ATOM     23  C   UNL     1      -1.414  12.161  23.014  0.00  0.00    +0.000 C 
ATOM     24  O   UNL     1      -0.503  13.212  23.447  0.00  0.00    +0.000 OA
ATOM     25  C   UNL     1      -0.233  13.527  22.059  0.00  0.00    +0.000 C 
BRANCH  22  26
ATOM     26  C   UNL     1      -2.729  13.821  21.522  0.00  0.00    +0.000 C 
BRANCH  26  27
ATOM     27  C   UNL     1      -3.923  13.392  22.307  0.00  0.00    +0.000 A 
ATOM     28  N   UNL     1      -4.789  12.461  21.949  0.00  0.00    +0.000 NA
ATOM     29  N   UNL     1      -5.732  12.343  22.941  0.00  0.00    +0.000 NA
ATOM     30  C   UNL     1      -5.422  13.197  23.886  0.00  0.00    +0.000 A 
ATOM     31  N   UNL     1      -4.301  13.883  23.530  0.00  0.00    +0.000 N 
ATOM     32  C   UNL     1      -3.667  14.904  24.318  0.00  0.00    +0.000 C 
ENDBRANCH  26  27
ENDBRANCH  22  26
ENDBRANCH   5  22
TORSDOF 6
ENDMDL
MODEL 2
REMARK VINA RESULT:      -8.2      3.498     10.453
REMARK  Name = 
REMARK  8 active torsions:
REMARK  status: ('A' for Active; 'I' for Inactive)
REMARK    1  A    between atoms: C_1  and  C_2
REMARK    2  A    between atoms: C_4  and  C_5
REMARK    3  A    between atoms: N_7  and  C_8
REMARK    4  A    between atoms: C_12  and  C_13
REMARK    5  A    between atoms: C_13  and  C_14
REMARK    6  A    between atoms: C_14  and  C_15
REMARK    7  A    between atoms: N_19  and  C_20
REMARK    8  A    between atoms: C_26  and  C_27
REMARK                            x       y       z     vdW  Elec       q    Type
REMARK                         _______ _______ _______ _____ _____    ______ ____
ROOT
ATOM      1  C   UNL     1       2.947   6.413  19.199  0.00  0.00    +0.000 A 
ATOM      2  C   UNL     1       2.555   5.196  19.755  0.00  0.00    +0.000 A 
ATOM      3  C   UNL     1       3.438   4.123  19.805  0.00  0.00    +0.000 A 
ATOM      4  C   UNL     1       4.734   4.270  19.320  0.00  0.00    +0.000 A 
ATOM      5  C   UNL     1       5.187   5.482  18.761  0.00  0.00    +0.000 A 
ATOM      6  C   UNL     1       4.240   6.529  18.671  0.00  0.00    +0.000 A 
ENDROOT
BRANCH   1   9
ATOM      7  C   UNL     1       2.052   8.482  18.151  0.00  0.00    +0.000 C 
ATOM      8  O   UNL     1       2.706   8.472  17.113  0.00  0.00    +0.000 OA
ATOM      9  N   UNL     1       2.102   7.541  19.164  0.00  0.00    +0.000 N 
ATOM     10  H   UNL     1       1.391   7.634  19.886  0.00  0.00    +0.000 HD
BRANCH   7  14
ATOM     11  C   UNL     1       0.706  12.744  20.318  0.00  0.00    +0.000 C 
ATOM     12  C   UNL     1       0.455  11.585  19.403  0.00  0.00    +0.000 A 
ATOM     13  C   UNL     1       1.417  10.625  19.204  0.00  0.00    +0.000 A 
ATOM     14  C   UNL     1       1.071   9.586  18.364  0.00  0.00    +0.000 A 
ATOM     15  N   UNL     1      -0.120   9.480  17.735  0.00  0.00    +0.000 NA
ATOM     16  C   UNL     1      -0.997  10.463  17.999  0.00  0.00    +0.000 A 
ATOM     17  N   UNL     1      -0.756  11.512  18.812  0.00  0.00    +0.000 NA
BRANCH  16  18
ATOM     18  C   UNL     1      -2.423  10.319  17.419  0.00  0.00    +0.000 C 
ATOM     19  C   UNL     1      -3.544  11.319  17.827  0.00  0.00    +0.000 C 
ATOM     20  C   UNL     1      -4.126  11.122  16.411  0.00  0.00    +0.000 C 
ATOM     21  C   UNL     1      -2.688  10.798  15.959  0.00  0.00    +0.000 C 
ENDBRANCH  16  18
ENDBRANCH   7  14
ENDBRANCH   1   9
BRANCH   5  22
ATOM     22  C   UNL     1       6.717   5.668  18.322  0.00  0.00    +0.000 C 
ATOM     23  C   UNL     1       7.193   7.058  17.808  0.00  0.00    +0.000 C 
ATOM     24  O   UNL     1       8.369   6.996  18.666  0.00  0.00    +0.000 OA
ATOM     25  C   UNL     1       7.698   6.008  19.486  0.00  0.00    +0.000 C 
BRANCH  22  26
ATOM     26  C   UNL     1       7.221   4.489  17.469  0.00  0.00    +0.000 C 
BRANCH  26  27
ATOM     27  C   UNL     1       6.893   4.633  16.020  0.00  0.00    +0.000 A 
ATOM     28  N   UNL     1       7.658   5.205  15.108  0.00  0.00    +0.000 NA
ATOM     29  N   UNL     1       7.020   5.124  13.895  0.00  0.00    +0.000 NA
ATOM     30  C   UNL     1       5.882   4.500  14.086  0.00  0.00    +0.000 A 
ATOM     31  N   UNL     1       5.755   4.181  15.404  0.00  0.00    +0.000 N 
ATOM     32  C   UNL     1       4.636   3.493  15.987  0.00  0.00    +0.000 C 
ENDBRANCH  26  27
ENDBRANCH  22  26
ENDBRANCH   5  22
TORSDOF 6
ENDMDL
MODEL 3
REMARK VINA RESULT:      -8.1      3.621     11.027
REMARK  Name = 
REMARK  8 active torsions:
REMARK  status: ('A' for Active; 'I' for Inactive)
REMARK    1  A    between atoms: C_1  and  C_2
REMARK    2  A    between atoms: C_4  and  C_5
REMARK    3  A    between atoms: N_7  and  C_8
REMARK    4  A    between atoms: C_12  and  C_13
REMARK    5  A    between atoms: C_13  and  C_14
REMARK    6  A    between atoms: C_14  and  C_15
REMARK    7  A    between atoms: N_19  and  C_20
REMARK    8  A    between atoms: C_26  and  C_27
REMARK                            x       y       z     vdW  Elec       q    Type
REMARK                         _______ _______ _______ _____ _____    ______ ____
ROOT
ATOM      1  C   UNL     1       2.526   6.129  18.169  0.00  0.00    +0.000 A 
ATOM      2  C   UNL     1       1.748   4.982  18.020  0.00  0.00    +0.000 A 
ATOM      3  C   UNL     1       2.280   3.838  17.434  0.00  0.00    +0.000 A 
ATOM      4  C   UNL     1       3.607   3.827  17.015  0.00  0.00    +0.000 A 
ATOM      5  C   UNL     1       4.441   4.954  17.156  0.00  0.00    +0.000 A 
ATOM      6  C   UNL     1       3.846   6.118  17.699  0.00  0.00    +0.000 A 
ENDROOT
BRANCH   1   9
ATOM      7  C   UNL     1       1.613   7.393  20.106  0.00  0.00    +0.000 C 
ATOM      8  O   UNL     1       1.605   6.492  20.939  0.00  0.00    +0.000 OA
ATOM      9  N   UNL     1       2.046   7.298  18.795  0.00  0.00    +0.000 N 
ATOM     10  H   UNL     1       2.111   8.178  18.289  0.00  0.00    +0.000 HD
BRANCH   7  14
ATOM     11  C   UNL     1      -0.927  10.373  23.162  0.00  0.00    +0.000 C 
ATOM     12  C   UNL     1      -0.064  10.129  21.963  0.00  0.00    +0.000 A 
ATOM     13  C   UNL     1       0.380   8.865  21.662  0.00  0.00    +0.000 A 
ATOM     14  C   UNL     1       1.146   8.749  20.519  0.00  0.00    +0.000 A 
ATOM     15  N   UNL     1       1.484   9.785  19.720  0.00  0.00    +0.000 NA
ATOM     16  C   UNL     1       0.996  10.979  20.094  0.00  0.00    +0.000 A 
ATOM     17  N   UNL     1       0.231  11.192  21.185  0.00  0.00    +0.000 NA
BRANCH  16  18
ATOM     18  C   UNL     1       1.232  12.174  19.141  0.00  0.00    +0.000 C 
ATOM     19  C   UNL     1       1.980  13.445  19.642  0.00  0.00    +0.000 C 
ATOM     20  C   UNL     1       2.518  13.598  18.203  0.00  0.00    +0.000 C 
ATOM     21  C   UNL     1       2.364  12.069  18.076  0.00  0.00    +0.000 C 
ENDBRANCH  16  18
ENDBRANCH   7  14
ENDBRANCH   1   9
BRANCH   5  22
ATOM     22  C   UNL     1       5.998   4.882  16.781  0.00  0.00    +0.000 C 
ATOM     23  C   UNL     1       6.810   6.204  16.665  0.00  0.00    +0.000 C 
ATOM     24  O   UNL     1       7.885   5.640  17.470  0.00  0.00    +0.000 OA
ATOM     25  C   UNL     1       6.955   4.659  17.992  0.00  0.00    +0.000 C 
BRANCH  22  26
ATOM     26  C   UNL     1       6.271   3.886  15.638  0.00  0.00    +0.000 C 
BRANCH  26  27
ATOM     27  C   UNL     1       6.915   4.521  14.451  0.00  0.00    +0.000 A 
ATOM     28  N   UNL     1       7.871   5.430  14.484  0.00  0.00    +0.000 NA
ATOM     29  N   UNL     1       8.210   5.750  13.193  0.00  0.00    +0.000 NA
ATOM     30  C   UNL     1       7.460   5.027  12.395  0.00  0.00    +0.000 A 
ATOM     31  N   UNL     1       6.627   4.248  13.138  0.00  0.00    +0.000 N 
ATOM     32  C   UNL     1       5.661   3.325  12.608  0.00  0.00    +0.000 C 
ENDBRANCH  26  27
ENDBRANCH  22  26
ENDBRANCH   5  22
TORSDOF 6
ENDMDL
MODEL 4
REMARK VINA RESULT:      -8.0      3.346     10.646
REMARK  Name = 
REMARK  8 active torsions:
REMARK  status: ('A' for Active; 'I' for Inactive)
REMARK    1  A    between atoms: C_1  and  C_2
REMARK    2  A    between atoms: C_4  and  C_5
REMARK    3  A    between atoms: N_7  and  C_8
REMARK    4  A    between atoms: C_12  and  C_13
REMARK    5  A    between atoms: C_13  and  C_14
REMARK    6  A    between atoms: C_14  and  C_15
REMARK    7  A    between atoms: N_19  and  C_20
REMARK    8  A    between atoms: C_26  and  C_27
REMARK                            x       y       z     vdW  Elec       q    Type
REMARK                         _______ _______ _______ _____ _____    ______ ____
ROOT
ATOM      1  C   UNL     1       2.718   6.787  18.081  0.00  0.00    +0.000 A 
ATOM      2  C   UNL     1       2.098   5.539  18.128  0.00  0.00    +0.000 A 
ATOM      3  C   UNL     1       2.843   4.373  17.990  0.00  0.00    +0.000 A 
ATOM      4  C   UNL     1       4.223   4.448  17.829  0.00  0.00    +0.000 A 
ATOM      5  C   UNL     1       4.902   5.683  17.790  0.00  0.00    +0.000 A 
ATOM      6  C   UNL     1       4.102   6.847  17.870  0.00  0.00    +0.000 A 
ENDROOT
BRANCH   1   9
ATOM      7  C   UNL     1       1.571   8.502  19.468  0.00  0.00    +0.000 C 
ATOM      8  O   UNL     1       1.747   8.005  20.576  0.00  0.00    +0.000 OA
ATOM      9  N   UNL     1       2.012   7.994  18.259  0.00  0.00    +0.000 N 
ATOM     10  H   UNL     1       1.896   8.608  17.455  0.00  0.00    +0.000 HD
BRANCH   7  14
ATOM     11  C   UNL     1       0.536  13.039  21.204  0.00  0.00    +0.000 C 
ATOM     12  C   UNL     1       0.361  11.925  20.219  0.00  0.00    +0.000 A 
ATOM     13  C   UNL     1       1.101  10.774  20.321  0.00  0.00    +0.000 A 
ATOM     14  C   UNL     1       0.840   9.800  19.378  0.00  0.00    +0.000 A 
ATOM     15  N   UNL     1      -0.065   9.928  18.382  0.00  0.00    +0.000 NA
ATOM     16  C   UNL     1      -0.743  11.087  18.370  0.00  0.00    +0.000 A 
ATOM     17  N   UNL     1      -0.568  12.092  19.254  0.00  0.00    +0.000 NA
BRANCH  16  18
ATOM     18  C   UNL     1      -1.888  11.231  17.341  0.00  0.00    +0.000 C 
ATOM     19  C   UNL     1      -2.416   9.986  16.569  0.00  0.00    +0.000 C 
ATOM     20  C   UNL     1      -3.800  10.669  16.572  0.00  0.00    +0.000 C 
ATOM     21  C   UNL     1      -3.349  11.381  17.864  0.00  0.00    +0.000 C 
ENDBRANCH  16  18
ENDBRANCH   7  14
ENDBRANCH   1   9
BRANCH   5  22
ATOM     22  C   UNL     1       6.503   5.744  17.728  0.00  0.00    +0.000 C 
ATOM     23  C   UNL     1       7.196   7.106  17.434  0.00  0.00    +0.000 C 
ATOM     24  O   UNL     1       8.129   6.892  18.532  0.00  0.00    +0.000 OA
ATOM     25  C   UNL     1       7.206   5.934  19.107  0.00  0.00    +0.000 C 
BRANCH  22  26
ATOM     26  C   UNL     1       7.095   4.565  16.935  0.00  0.00    +0.000 C 
BRANCH  26  27
ATOM     27  C   UNL     1       7.188   4.833  15.469  0.00  0.00    +0.000 A 
ATOM     28  N   UNL     1       8.085   5.600  14.879  0.00  0.00    +0.000 NA
ATOM     29  N   UNL     1       7.851   5.578  13.527  0.00  0.00    +0.000 NA
ATOM     30  C   UNL     1       6.821   4.796  13.315  0.00  0.00    +0.000 A 
ATOM     31  N   UNL     1       6.366   4.312  14.503  0.00  0.00    +0.000 N 
ATOM     32  C   UNL     1       5.247   3.423  14.665  0.00  0.00    +0.000 C 
ENDBRANCH  26  27
ENDBRANCH  22  26
ENDBRANCH   5  22
TORSDOF 6
ENDMDL
MODEL 5
REMARK VINA RESULT:      -8.0      3.175      4.803
REMARK  Name = 
REMARK  8 active torsions:
REMARK  status: ('A' for Active; 'I' for Inactive)
REMARK    1  A    between atoms: C_1  and  C_2
REMARK    2  A    between atoms: C_4  and  C_5
REMARK    3  A    between atoms: N_7  and  C_8
REMARK    4  A    between atoms: C_12  and  C_13
REMARK    5  A    between atoms: C_13  and  C_14
REMARK    6  A    between atoms: C_14  and  C_15
REMARK    7  A    between atoms: N_19  and  C_20
REMARK    8  A    between atoms: C_26  and  C_27
REMARK                            x       y       z     vdW  Elec       q    Type
REMARK                         _______ _______ _______ _____ _____    ______ ____
ROOT
ATOM      1  C   UNL     1       1.434   8.336  20.602  0.00  0.00    +0.000 A 
ATOM      2  C   UNL     1       1.081   8.254  21.948  0.00  0.00    +0.000 A 
ATOM      3  C   UNL     1       0.276   9.228  22.528  0.00  0.00    +0.000 A 
ATOM      4  C   UNL     1      -0.204  10.281  21.756  0.00  0.00    +0.000 A 
ATOM      5  C   UNL     1       0.110  10.403  20.387  0.00  0.00    +0.000 A 
ATOM      6  C   UNL     1       0.983   9.428  19.849  0.00  0.00    +0.000 A 
ENDROOT
BRANCH   1   9
ATOM      7  C   UNL     1       2.064   5.983  20.101  0.00  0.00    +0.000 C 
ATOM      8  O   UNL     1       1.220   5.408  20.781  0.00  0.00    +0.000 OA
ATOM      9  N   UNL     1       2.212   7.352  19.958  0.00  0.00    +0.000 N 
ATOM     10  H   UNL     1       2.876   7.650  19.246  0.00  0.00    +0.000 HD
BRANCH   7  14
ATOM     11  C   UNL     1       3.523   1.630  18.205  0.00  0.00    +0.000 C 
ATOM     12  C   UNL     1       3.696   3.100  18.437  0.00  0.00    +0.000 A 
ATOM     13  C   UNL     1       2.752   3.818  19.128  0.00  0.00    +0.000 A 
ATOM     14  C   UNL     1       3.024   5.159  19.309  0.00  0.00    +0.000 A 
ATOM     15  N   UNL     1       4.128   5.782  18.841  0.00  0.00    +0.000 NA
ATOM     16  C   UNL     1       4.996   4.993  18.186  0.00  0.00    +0.000 A 
ATOM     17  N   UNL     1       4.824   3.673  17.967  0.00  0.00    +0.000 NA
BRANCH  16  18
ATOM     18  C   UNL     1       6.341   5.621  17.752  0.00  0.00    +0.000 C 
ATOM     19  C   UNL     1       6.415   7.122  17.345  0.00  0.00    +0.000 C 
ATOM     20  C   UNL     1       7.848   7.124  17.919  0.00  0.00    +0.000 C 
ATOM     21  C   UNL     1       7.384   5.987  18.851  0.00  0.00    +0.000 C 
ENDBRANCH  16  18
ENDBRANCH   7  14
ENDBRANCH   1   9
BRANCH   5  22
ATOM     22  C   UNL     1      -0.552  11.553  19.488  0.00  0.00    +0.000 C 
ATOM     23  C   UNL     1      -1.524  11.151  18.342  0.00  0.00    +0.000 C 
ATOM     24  O   UNL     1      -2.481  12.163  18.770  0.00  0.00    +0.000 OA
ATOM     25  C   UNL     1      -1.853  12.179  20.076  0.00  0.00    +0.000 C 
BRANCH  22  26
ATOM     26  C   UNL     1       0.472  12.628  19.080  0.00  0.00    +0.000 C 
BRANCH  26  27
ATOM     27  C   UNL     1       0.791  13.582  20.182  0.00  0.00    +0.000 A 
ATOM     28  N   UNL     1       1.531  13.318  21.243  0.00  0.00    +0.000 NA
ATOM     29  N   UNL     1       1.604  14.452  22.013  0.00  0.00    +0.000 NA
ATOM     30  C   UNL     1       0.915  15.388  21.408  0.00  0.00    +0.000 A 
ATOM     31  N   UNL     1       0.379  14.888  20.261  0.00  0.00    +0.000 N 
ATOM     32  C   UNL     1      -0.441  15.624  19.337  0.00  0.00    +0.000 C 
ENDBRANCH  26  27
ENDBRANCH  22  26
ENDBRANCH   5  22
TORSDOF 6
ENDMDL
MODEL 6
REMARK VINA RESULT:      -8.0      3.721     10.369
REMARK  Name = 
REMARK  8 active torsions:
REMARK  status: ('A' for Active; 'I' for Inactive)
REMARK    1  A    between atoms: C_1  and  C_2
REMARK    2  A    between atoms: C_4  and  C_5
REMARK    3  A    between atoms: N_7  and  C_8
REMARK    4  A    between atoms: C_12  and  C_13
REMARK    5  A    between atoms: C_13  and  C_14
REMARK    6  A    between atoms: C_14  and  C_15
REMARK    7  A    between atoms: N_19  and  C_20
REMARK    8  A    between atoms: C_26  and  C_27
REMARK                            x       y       z     vdW  Elec       q    Type
REMARK                         _______ _______ _______ _____ _____    ______ ____
ROOT
ATOM      1  C   UNL     1       2.569   5.644  18.167  0.00  0.00    +0.000 A 
ATOM      2  C   UNL     1       1.922   4.420  18.329  0.00  0.00    +0.000 A 
ATOM      3  C   UNL     1       2.442   3.263  17.758  0.00  0.00    +0.000 A 
ATOM      4  C   UNL     1       3.631   3.321  17.039  0.00  0.00    +0.000 A 
ATOM      5  C   UNL     1       4.335   4.529  16.858  0.00  0.00    +0.000 A 
ATOM      6  C   UNL     1       3.741   5.693  17.400  0.00  0.00    +0.000 A 
ENDROOT
BRANCH   1   9
ATOM      7  C   UNL     1       1.770   6.996  20.095  0.00  0.00    +0.000 C 
ATOM      8  O   UNL     1       1.851   6.145  20.975  0.00  0.00    +0.000 OA
ATOM      9  N   UNL     1       2.105   6.835  18.762  0.00  0.00    +0.000 N 
ATOM     10  H   UNL     1       2.106   7.686  18.203  0.00  0.00    +0.000 HD
BRANCH   7  14
ATOM     11  C   UNL     1      -0.504  10.107  23.228  0.00  0.00    +0.000 C 
ATOM     12  C   UNL     1       0.215   9.804  21.950  0.00  0.00    +0.000 A 
ATOM     13  C   UNL     1       0.674   8.538  21.685  0.00  0.00    +0.000 A 
ATOM     14  C   UNL     1       1.298   8.362  20.466  0.00  0.00    +0.000 A 
ATOM     15  N   UNL     1       1.488   9.346  19.559  0.00  0.00    +0.000 NA
ATOM     16  C   UNL     1       0.996  10.546  19.906  0.00  0.00    +0.000 A 
ATOM     17  N   UNL     1       0.363  10.814  21.067  0.00  0.00    +0.000 NA
BRANCH  16  18
ATOM     18  C   UNL     1       1.059  11.674  18.849  0.00  0.00    +0.000 C 
ATOM     19  C   UNL     1       1.034  13.167  19.287  0.00  0.00    +0.000 C 
ATOM     20  C   UNL     1       1.927  13.459  18.062  0.00  0.00    +0.000 C 
ATOM     21  C   UNL     1       2.434  12.009  18.195  0.00  0.00    +0.000 C 
ENDBRANCH  16  18
ENDBRANCH   7  14
ENDBRANCH   1   9
BRANCH   5  22
ATOM     22  C   UNL     1       5.764   4.552  16.133  0.00  0.00    +0.000 C 
ATOM     23  C   UNL     1       6.010   3.614  14.916  0.00  0.00    +0.000 C 
ATOM     24  O   UNL     1       6.597   4.712  14.161  0.00  0.00    +0.000 OA
ATOM     25  C   UNL     1       5.928   5.651  15.039  0.00  0.00    +0.000 C 
BRANCH  22  26
ATOM     26  C   UNL     1       6.924   4.568  17.145  0.00  0.00    +0.000 C 
BRANCH  26  27
ATOM     27  C   UNL     1       7.407   5.944  17.461  0.00  0.00    +0.000 A 
ATOM     28  N   UNL     1       7.438   6.963  16.623  0.00  0.00    +0.000 NA
ATOM     29  N   UNL     1       7.929   8.058  17.291  0.00  0.00    +0.000 NA
ATOM     30  C   UNL     1       8.182   7.691  18.524  0.00  0.00    +0.000 A 
ATOM     31  N   UNL     1       7.879   6.372  18.675  0.00  0.00    +0.000 N 
ATOM     32  C   UNL     1       8.029   5.620  19.892  0.00  0.00    +0.000 C 
ENDBRANCH  26  27
ENDBRANCH  22  26
ENDBRANCH   5  22
TORSDOF 6
ENDMDL
MODEL 7
REMARK VINA RESULT:      -8.0      1.812      2.258
REMARK  Name = 
REMARK  8 active torsions:
REMARK  status: ('A' for Active; 'I' for Inactive)
REMARK    1  A    between atoms: C_1  and  C_2
REMARK    2  A    between atoms: C_4  and  C_5
REMARK    3  A    between atoms: N_7  and  C_8
REMARK    4  A    between atoms: C_12  and  C_13
REMARK    5  A    between atoms: C_13  and  C_14
REMARK    6  A    between atoms: C_14  and  C_15
REMARK    7  A    between atoms: N_19  and  C_20
REMARK    8  A    between atoms: C_26  and  C_27
REMARK                            x       y       z     vdW  Elec       q    Type
REMARK                         _______ _______ _______ _____ _____    ______ ____
ROOT
ATOM      1  C   UNL     1       0.110  10.145  18.685  0.00  0.00    +0.000 A 
ATOM      2  C   UNL     1      -1.037  10.169  17.894  0.00  0.00    +0.000 A 
ATOM      3  C   UNL     1      -1.798  11.329  17.786  0.00  0.00    +0.000 A 
ATOM      4  C   UNL     1      -1.399  12.483  18.452  0.00  0.00    +0.000 A 
ATOM      5  C   UNL     1      -0.239  12.518  19.252  0.00  0.00    +0.000 A 
ATOM      6  C   UNL     1       0.472  11.303  19.387  0.00  0.00    +0.000 A 
ENDROOT
BRANCH   1   9
ATOM      7  C   UNL     1       2.060   8.751  18.026  0.00  0.00    +0.000 C 
ATOM      8  O   UNL     1       2.533   9.477  17.158  0.00  0.00    +0.000 OA
ATOM      9  N   UNL     1       0.937   9.008  18.792  0.00  0.00    +0.000 N 
ATOM     10  H   UNL     1       0.770   8.360  19.559  0.00  0.00    +0.000 HD
BRANCH   7  14
ATOM     11  C   UNL     1       5.517   5.326  17.031  0.00  0.00    +0.000 C 
ATOM     12  C   UNL     1       4.381   5.865  17.844  0.00  0.00    +0.000 A 
ATOM     13  C   UNL     1       3.815   7.079  17.542  0.00  0.00    +0.000 A 
ATOM     14  C   UNL     1       2.755   7.467  18.338  0.00  0.00    +0.000 A 
ATOM     15  N   UNL     1       2.276   6.745  19.374  0.00  0.00    +0.000 NA
ATOM     16  C   UNL     1       2.891   5.569  19.585  0.00  0.00    +0.000 A 
ATOM     17  N   UNL     1       3.925   5.099  18.857  0.00  0.00    +0.000 NA
BRANCH  16  18
ATOM     18  C   UNL     1       2.294   4.638  20.666  0.00  0.00    +0.000 C 
ATOM     19  C   UNL     1       0.889   3.998  20.467  0.00  0.00    +0.000 C 
ATOM     20  C   UNL     1       1.415   2.787  21.268  0.00  0.00    +0.000 C 
ATOM     21  C   UNL     1       2.819   3.173  20.763  0.00  0.00    +0.000 C 
ENDBRANCH  16  18
ENDBRANCH   7  14
ENDBRANCH   1   9
BRANCH   5  22
ATOM     22  C   UNL     1       0.270  13.889  19.910  0.00  0.00    +0.000 C 
ATOM     23  C   UNL     1       1.779  14.047  20.254  0.00  0.00    +0.000 C 
ATOM     24  O   UNL     1       1.804  15.365  19.635  0.00  0.00    +0.000 OA
ATOM     25  C   UNL     1       0.610  15.019  18.891  0.00  0.00    +0.000 C 
BRANCH  22  26
ATOM     26  C   UNL     1      -0.673  14.380  21.024  0.00  0.00    +0.000 C 
BRANCH  26  27
ATOM     27  C   UNL     1      -1.130  13.285  21.929  0.00  0.00    +0.000 A 
ATOM     28  N   UNL     1      -0.354  12.546  22.701  0.00  0.00    +0.000 NA
ATOM     29  N   UNL     1      -1.146  11.663  23.393  0.00  0.00    +0.000 NA
ATOM     30  C   UNL     1      -2.389  11.882  23.037  0.00  0.00    +0.000 A 
ATOM     31  N   UNL     1      -2.428  12.884  22.115  0.00  0.00    +0.000 N 
ATOM     32  C   UNL     1      -3.619  13.396  21.495  0.00  0.00    +0.000 C 
ENDBRANCH  26  27
ENDBRANCH  22  26
ENDBRANCH   5  22
TORSDOF 6
ENDMDL
MODEL 8
REMARK VINA RESULT:      -8.0      2.320      3.363
REMARK  Name = 
REMARK  8 active torsions:
REMARK  status: ('A' for Active; 'I' for Inactive)
REMARK    1  A    between atoms: C_1  and  C_2
REMARK    2  A    between atoms: C_4  and  C_5
REMARK    3  A    between atoms: N_7  and  C_8
REMARK    4  A    between atoms: C_12  and  C_13
REMARK    5  A    between atoms: C_13  and  C_14
REMARK    6  A    between atoms: C_14  and  C_15
REMARK    7  A    between atoms: N_19  and  C_20
REMARK    8  A    between atoms: C_26  and  C_27
REMARK                            x       y       z     vdW  Elec       q    Type
REMARK                         _______ _______ _______ _____ _____    ______ ____
ROOT
ATOM      1  C   UNL     1       0.284   9.925  19.844  0.00  0.00    +0.000 A 
ATOM      2  C   UNL     1       0.436  10.704  20.990  0.00  0.00    +0.000 A 
ATOM      3  C   UNL     1      -0.456  11.734  21.269  0.00  0.00    +0.000 A 
ATOM      4  C   UNL     1      -1.526  11.974  20.412  0.00  0.00    +0.000 A 
ATOM      5  C   UNL     1      -1.736  11.206  19.249  0.00  0.00    +0.000 A 
ATOM      6  C   UNL     1      -0.771  10.210  18.966  0.00  0.00    +0.000 A 
ENDROOT
BRANCH   1   9
ATOM      7  C   UNL     1       1.917   8.725  18.404  0.00  0.00    +0.000 C 
ATOM      8  O   UNL     1       2.017   9.546  17.498  0.00  0.00    +0.000 OA
ATOM      9  N   UNL     1       1.137   8.844  19.540  0.00  0.00    +0.000 N 
ATOM     10  H   UNL     1       1.283   8.130  20.250  0.00  0.00    +0.000 HD
BRANCH   7  14
ATOM     11  C   UNL     1       5.528   6.008  16.341  0.00  0.00    +0.000 C 
ATOM     12  C   UNL     1       4.422   6.211  17.331  0.00  0.00    +0.000 A 
ATOM     13  C   UNL     1       3.747   7.404  17.395  0.00  0.00    +0.000 A 
ATOM     14  C   UNL     1       2.727   7.473  18.323  0.00  0.00    +0.000 A 
ATOM     15  N   UNL     1       2.385   6.465  19.155  0.00  0.00    +0.000 NA
ATOM     16  C   UNL     1       3.098   5.337  19.011  0.00  0.00    +0.000 A 
ATOM     17  N   UNL     1       4.104   5.169  18.127  0.00  0.00    +0.000 NA
BRANCH  16  18
ATOM     18  C   UNL     1       2.658   4.106  19.837  0.00  0.00    +0.000 C 
ATOM     19  C   UNL     1       2.153   4.278  21.300  0.00  0.00    +0.000 C 
ATOM     20  C   UNL     1       1.230   3.068  21.039  0.00  0.00    +0.000 C 
ATOM     21  C   UNL     1       1.262   3.475  19.552  0.00  0.00    +0.000 C 
ENDBRANCH  16  18
ENDBRANCH   7  14
ENDBRANCH   1   9
BRANCH   5  22
ATOM     22  C   UNL     1      -3.041  11.418  18.343  0.00  0.00    +0.000 C 
ATOM     23  C   UNL     1      -2.899  11.390  16.794  0.00  0.00    +0.000 C 
ATOM     24  O   UNL     1      -4.048  10.502  16.683  0.00  0.00    +0.000 OA
ATOM     25  C   UNL     1      -3.868  10.125  18.070  0.00  0.00    +0.000 C 
BRANCH  22  26
ATOM     26  C   UNL     1      -3.923  12.569  18.862  0.00  0.00    +0.000 C 
BRANCH  26  27
ATOM     27  C   UNL     1      -5.205  12.098  19.463  0.00  0.00    +0.000 A 
ATOM     28  N   UNL     1      -5.365  11.659  20.697  0.00  0.00    +0.000 NA
ATOM     29  N   UNL     1      -6.688  11.338  20.875  0.00  0.00    +0.000 NA
ATOM     30  C   UNL     1      -7.313  11.593  19.751  0.00  0.00    +0.000 A 
ATOM     31  N   UNL     1      -6.423  12.062  18.833  0.00  0.00    +0.000 N 
ATOM     32  C   UNL     1      -6.745  12.446  17.485  0.00  0.00    +0.000 C 
ENDBRANCH  26  27
ENDBRANCH  22  26
ENDBRANCH   5  22
TORSDOF 6
ENDMDL
MODEL 9
REMARK VINA RESULT:      -7.9      1.508      2.109
REMARK  Name = 
REMARK  8 active torsions:
REMARK  status: ('A' for Active; 'I' for Inactive)
REMARK    1  A    between atoms: C_1  and  C_2
REMARK    2  A    between atoms: C_4  and  C_5
REMARK    3  A    between atoms: N_7  and  C_8
REMARK    4  A    between atoms: C_12  and  C_13
REMARK    5  A    between atoms: C_13  and  C_14
REMARK    6  A    between atoms: C_14  and  C_15
REMARK    7  A    between atoms: N_19  and  C_20
REMARK    8  A    between atoms: C_26  and  C_27
REMARK                            x       y       z     vdW  Elec       q    Type
REMARK                         _______ _______ _______ _____ _____    ______ ____
ROOT
ATOM      1  C   UNL     1       0.240  10.152  18.984  0.00  0.00    +0.000 A 
ATOM      2  C   UNL     1      -0.863  10.235  18.136  0.00  0.00    +0.000 A 
ATOM      3  C   UNL     1      -1.612  11.405  18.062  0.00  0.00    +0.000 A 
ATOM      4  C   UNL     1      -1.244  12.512  18.820  0.00  0.00    +0.000 A 
ATOM      5  C   UNL     1      -0.128  12.487  19.681  0.00  0.00    +0.000 A 
ATOM      6  C   UNL     1       0.569  11.260  19.777  0.00  0.00    +0.000 A 
ENDROOT
BRANCH   1   9
ATOM      7  C   UNL     1       2.047   8.653  18.164  0.00  0.00    +0.000 C 
ATOM      8  O   UNL     1       2.397   9.294  17.178  0.00  0.00    +0.000 OA
ATOM      9  N   UNL     1       1.055   9.004  19.062  0.00  0.00    +0.000 N 
ATOM     10  H   UNL     1       0.993   8.424  19.897  0.00  0.00    +0.000 HD
BRANCH   7  14
ATOM     11  C   UNL     1       5.566   5.288  17.183  0.00  0.00    +0.000 C 
ATOM     12  C   UNL     1       4.414   5.805  17.988  0.00  0.00    +0.000 A 
ATOM     13  C   UNL     1       3.831   7.012  17.687  0.00  0.00    +0.000 A 
ATOM     14  C   UNL     1       2.759   7.379  18.475  0.00  0.00    +0.000 A 
ATOM     15  N   UNL     1       2.283   6.645  19.504  0.00  0.00    +0.000 NA
ATOM     16  C   UNL     1       2.914   5.478  19.715  0.00  0.00    +0.000 A 
ATOM     17  N   UNL     1       3.961   5.027  18.994  0.00  0.00    +0.000 NA
BRANCH  16  18
ATOM     18  C   UNL     1       2.323   4.532  20.787  0.00  0.00    +0.000 C 
ATOM     19  C   UNL     1       0.934   3.864  20.568  0.00  0.00    +0.000 C 
ATOM     20  C   UNL     1       1.474   2.663  21.374  0.00  0.00    +0.000 C 
ATOM     21  C   UNL     1       2.877   3.079  20.888  0.00  0.00    +0.000 C 
ENDBRANCH  16  18
ENDBRANCH   7  14
ENDBRANCH   1   9
BRANCH   5  22
ATOM     22  C   UNL     1       0.351  13.809  20.451  0.00  0.00    +0.000 C 
ATOM     23  C   UNL     1       1.724  14.442  20.082  0.00  0.00    +0.000 C 
ATOM     24  O   UNL     1       1.120  15.766  20.018  0.00  0.00    +0.000 OA
ATOM     25  C   UNL     1      -0.179  15.147  19.849  0.00  0.00    +0.000 C 
BRANCH  22  26
ATOM     26  C   UNL     1       0.100  13.718  21.967  0.00  0.00    +0.000 C 
BRANCH  26  27
ATOM     27  C   UNL     1      -1.318  13.401  22.308  0.00  0.00    +0.000 A 
ATOM     28  N   UNL     1      -2.343  14.225  22.193  0.00  0.00    +0.000 NA
ATOM     29  N   UNL     1      -3.478  13.561  22.586  0.00  0.00    +0.000 NA
ATOM     30  C   UNL     1      -3.129  12.344  22.927  0.00  0.00    +0.000 A 
ATOM     31  N   UNL     1      -1.783  12.200  22.777  0.00  0.00    +0.000 N 
ATOM     32  C   UNL     1      -1.041  11.001  23.057  0.00  0.00    +0.000 C 
ENDBRANCH  26  27
ENDBRANCH  22  26
ENDBRANCH   5  22
TORSDOF 6
ENDMDL
