MODEL 1
REMARK VINA RESULT:     -10.0      0.000      0.000
REMARK  Name = 
REMARK  7 active torsions:
REMARK  status: ('A' for Active; 'I' for Inactive)
REMARK    1  A    between atoms: C_1  and  N_2
REMARK    2  A    between atoms: C_6  and  C_7
REMARK    3  A    between atoms: C_7  and  C_8
REMARK    4  A    between atoms: C_8  and  C_9
REMARK    5  A    between atoms: C_13  and  N_14
REMARK    6  A    between atoms: C_19  and  N_20
REMARK    7  A    between atoms: C_30  and  C_31
REMARK                            x       y       z     vdW  Elec       q    Type
REMARK                         _______ _______ _______ _____ _____    ______ ____
ROOT
ATOM      1  N   UNL     1       2.251   7.506  19.488  0.00  0.00    +0.000 N 
ATOM      2  C   UNL     1       1.485   7.782  20.686  0.00  0.00    +0.000 C 
ATOM      3  C   UNL     1       0.933   9.136  20.464  0.00  0.00    +0.000 A 
ATOM      4  C   UNL     1       1.245   9.575  19.181  0.00  0.00    +0.000 A 
ATOM      5  C   UNL     1       0.756  10.788  18.710  0.00  0.00    +0.000 A 
ATOM      6  C   UNL     1      -0.062  11.561  19.565  0.00  0.00    +0.000 A 
ATOM      7  C   UNL     1      -0.272  11.127  20.893  0.00  0.00    +0.000 A 
ATOM      8  C   UNL     1       0.201   9.898  21.360  0.00  0.00    +0.000 A 
ATOM      9  C   UNL     1       2.123   8.543  18.551  0.00  0.00    +0.000 C 
ATOM     10  O   UNL     1       2.607   8.661  17.440  0.00  0.00    +0.000 OA
ENDROOT
BRANCH   6  11
ATOM     11  N   UNL     1      -0.690  12.768  19.145  0.00  0.00    +0.000 N 
ATOM     12  C   UNL     1      -0.289  13.547  17.975  0.00  0.00    +0.000 C 
ATOM     13  C   UNL     1      -0.075  14.686  18.909  0.00  0.00    +0.000 C 
ATOM     14  C   UNL     1      -0.864  13.955  19.957  0.00  0.00    +0.000 C 
ATOM     15  C   UNL     1       1.344  15.092  19.251  0.00  0.00    +0.000 C 
ATOM     16  C   UNL     1       0.737  16.494  19.550  0.00  0.00    +0.000 C 
ATOM     17  F   UNL     1       0.351  16.685  20.833  0.00  0.00    +0.000 F 
ATOM     18  F   UNL     1       1.491  17.556  19.198  0.00  0.00    +0.000 F 
ATOM     19  C   UNL     1      -0.415  16.109  18.567  0.00  0.00    +0.000 C 
ENDBRANCH   6  11
BRANCH   1  24
ATOM     20  C   UNL     1       5.263   5.345  18.823  0.00  0.00    +0.000 A 
ATOM     21  C   UNL     1       4.740   4.093  19.174  0.00  0.00    +0.000 A 
ATOM     22  C   UNL     1       3.431   3.956  19.665  0.00  0.00    +0.000 A 
ATOM     23  C   UNL     1       2.585   5.066  19.803  0.00  0.00    +0.000 A 
ATOM     24  C   UNL     1       3.046   6.326  19.451  0.00  0.00    +0.000 A 
ATOM     25  C   UNL     1       4.380   6.425  18.994  0.00  0.00    +0.000 A 
BRANCH  20  26
ATOM     26  C   UNL     1       6.766   5.596  18.269  0.00  0.00    +0.000 C 
ATOM     27  C   UNL     1       7.818   5.991  19.339  0.00  0.00    +0.000 C 
ATOM     28  O   UNL     1       8.106   7.246  18.695  0.00  0.00    +0.000 OA
ATOM     29  C   UNL     1       7.099   7.006  17.690  0.00  0.00    +0.000 C 
BRANCH  26  30
ATOM     30  C   UNL     1       7.247   4.435  17.362  0.00  0.00    +0.000 C 
BRANCH  30  36
ATOM     31  C   UNL     1       4.649   3.449  15.863  0.00  0.00    +0.000 C 
ATOM     32  N   UNL     1       5.772   4.143  15.294  0.00  0.00    +0.000 N 
ATOM     33  C   UNL     1       5.901   4.458  13.972  0.00  0.00    +0.000 A 
ATOM     34  N   UNL     1       7.050   5.055  13.775  0.00  0.00    +0.000 NA
ATOM     35  N   UNL     1       7.696   5.119  14.985  0.00  0.00    +0.000 NA
ATOM     36  C   UNL     1       6.915   4.594  15.913  0.00  0.00    +0.000 A 
ENDBRANCH  30  36
ENDBRANCH  26  30
ENDBRANCH  20  26
ENDBRANCH   1  24
BRANCH   8  37
ATOM     37  C   UNL     1      -0.092   9.459  22.770  0.00  0.00    +0.000 C 
ATOM     38  F   UNL     1      -0.792   8.297  22.853  0.00  0.00    +0.000 F 
ATOM     39  F   UNL     1       1.042   9.274  23.499  0.00  0.00    +0.000 F 
ATOM     40  F   UNL     1      -0.831  10.380  23.447  0.00  0.00    +0.000 F 
ENDBRANCH   8  37
TORSDOF 6
ENDMDL
MODEL 2
REMARK VINA RESULT:      -9.7      1.490      2.414
REMARK  Name = 
REMARK  7 active torsions:
REMARK  status: ('A' for Active; 'I' for Inactive)
REMARK    1  A    between atoms: C_1  and  N_2
REMARK    2  A    between atoms: C_6  and  C_7
REMARK    3  A    between atoms: C_7  and  C_8
REMARK    4  A    between atoms: C_8  and  C_9
REMARK    5  A    between atoms: C_13  and  N_14
REMARK    6  A    between atoms: C_19  and  N_20
REMARK    7  A    between atoms: C_30  and  C_31
REMARK                            x       y       z     vdW  Elec       q    Type
REMARK                         _______ _______ _______ _____ _____    ______ ____
ROOT
ATOM      1  N   UNL     1       2.130   7.448  19.332  0.00  0.00    +0.000 N 
ATOM      2  C   UNL     1       1.441   7.742  20.572  0.00  0.00    +0.000 C 
ATOM      3  C   UNL     1       0.945   9.124  20.397  0.00  0.00    +0.000 A 
ATOM      4  C   UNL     1       1.212   9.568  19.106  0.00  0.00    +0.000 A 
ATOM      5  C   UNL     1       0.760  10.811  18.678  0.00  0.00    +0.000 A 
ATOM      6  C   UNL     1       0.026  11.609  19.585  0.00  0.00    +0.000 A 
ATOM      7  C   UNL     1      -0.137  11.163  20.916  0.00  0.00    +0.000 A 
ATOM      8  C   UNL     1       0.299   9.906  21.340  0.00  0.00    +0.000 A 
ATOM      9  C   UNL     1       2.005   8.505  18.417  0.00  0.00    +0.000 C 
ATOM     10  O   UNL     1       2.437   8.618  17.284  0.00  0.00    +0.000 OA
ENDROOT
BRANCH   6  11
ATOM     11  N   UNL     1      -0.562  12.852  19.215  0.00  0.00    +0.000 N 
ATOM     12  C   UNL     1      -0.250  13.584  17.989  0.00  0.00    +0.000 C 
ATOM     13  C   UNL     1       0.151  14.717  18.866  0.00  0.00    +0.000 C 
ATOM     14  C   UNL     1      -0.556  14.059  20.016  0.00  0.00    +0.000 C 
ATOM     15  C   UNL     1       1.626  15.026  19.030  0.00  0.00    +0.000 C 
ATOM     16  C   UNL     1       1.156  16.472  19.367  0.00  0.00    +0.000 C 
ATOM     17  F   UNL     1       0.939  16.708  20.682  0.00  0.00    +0.000 F 
ATOM     18  F   UNL     1       1.935  17.472  18.906  0.00  0.00    +0.000 F 
ATOM     19  C   UNL     1      -0.128  16.156  18.535  0.00  0.00    +0.000 C 
ENDBRANCH   6  11
BRANCH   1  24
ATOM     20  C   UNL     1       4.522   4.916  17.900  0.00  0.00    +0.000 A 
ATOM     21  C   UNL     1       4.311   3.857  18.794  0.00  0.00    +0.000 A 
ATOM     22  C   UNL     1       3.430   3.979  19.881  0.00  0.00    +0.000 A 
ATOM     23  C   UNL     1       2.707   5.160  20.104  0.00  0.00    +0.000 A 
ATOM     24  C   UNL     1       2.863   6.232  19.237  0.00  0.00    +0.000 A 
ATOM     25  C   UNL     1       3.785   6.080  18.176  0.00  0.00    +0.000 A 
BRANCH  20  26
ATOM     26  C   UNL     1       5.534   4.868  16.634  0.00  0.00    +0.000 C 
ATOM     27  C   UNL     1       5.228   5.872  15.492  0.00  0.00    +0.000 C 
ATOM     28  O   UNL     1       5.055   4.823  14.520  0.00  0.00    +0.000 OA
ATOM     29  C   UNL     1       5.256   3.807  15.524  0.00  0.00    +0.000 C 
BRANCH  26  30
ATOM     30  C   UNL     1       7.017   4.909  17.081  0.00  0.00    +0.000 C 
BRANCH  30  36
ATOM     31  C   UNL     1       8.170   5.743  19.901  0.00  0.00    +0.000 C 
ATOM     32  N   UNL     1       7.997   6.584  18.747  0.00  0.00    +0.000 N 
ATOM     33  C   UNL     1       8.283   7.918  18.711  0.00  0.00    +0.000 A 
ATOM     34  N   UNL     1       7.982   8.396  17.529  0.00  0.00    +0.000 NA
ATOM     35  N   UNL     1       7.474   7.363  16.781  0.00  0.00    +0.000 NA
ATOM     36  C   UNL     1       7.507   6.257  17.504  0.00  0.00    +0.000 A 
ENDBRANCH  30  36
ENDBRANCH  26  30
ENDBRANCH  20  26
ENDBRANCH   1  24
BRANCH   8  37
ATOM     37  C   UNL     1       0.057   9.458  22.758  0.00  0.00    +0.000 C 
ATOM     38  F   UNL     1       1.193   9.189  23.454  0.00  0.00    +0.000 F 
ATOM     39  F   UNL     1      -0.624  10.385  23.484  0.00  0.00    +0.000 F 
ATOM     40  F   UNL     1      -0.684   8.317  22.812  0.00  0.00    +0.000 F 
ENDBRANCH   8  37
TORSDOF 6
ENDMDL
MODEL 3
REMARK VINA RESULT:      -9.4      4.679     11.430
REMARK  Name = 
REMARK  7 active torsions:
REMARK  status: ('A' for Active; 'I' for Inactive)
REMARK    1  A    between atoms: C_1  and  N_2
REMARK    2  A    between atoms: C_6  and  C_7
REMARK    3  A    between atoms: C_7  and  C_8
REMARK    4  A    between atoms: C_8  and  C_9
REMARK    5  A    between atoms: C_13  and  N_14
REMARK    6  A    between atoms: C_19  and  N_20
REMARK    7  A    between atoms: C_30  and  C_31
REMARK                            x       y       z     vdW  Elec       q    Type
REMARK                         _______ _______ _______ _____ _____    ______ ____
ROOT
ATOM      1  N   UNL     1       0.078  11.239  21.439  0.00  0.00    +0.000 N 
ATOM      2  C   UNL     1       0.468  10.902  20.086  0.00  0.00    +0.000 C 
ATOM      3  C   UNL     1       0.987   9.521  20.188  0.00  0.00    +0.000 A 
ATOM      4  C   UNL     1       0.803   9.035  21.478  0.00  0.00    +0.000 A 
ATOM      5  C   UNL     1       1.134   7.722  21.794  0.00  0.00    +0.000 A 
ATOM      6  C   UNL     1       1.661   6.897  20.774  0.00  0.00    +0.000 A 
ATOM      7  C   UNL     1       1.925   7.458  19.504  0.00  0.00    +0.000 A 
ATOM      8  C   UNL     1       1.573   8.771  19.181  0.00  0.00    +0.000 A 
ATOM      9  C   UNL     1       0.244  10.147  22.305  0.00  0.00    +0.000 C 
ATOM     10  O   UNL     1       0.019  10.050  23.498  0.00  0.00    +0.000 OA
ENDROOT
BRANCH   6  11
ATOM     11  N   UNL     1       1.941   5.515  20.970  0.00  0.00    +0.000 N 
ATOM     12  C   UNL     1       3.147   4.839  20.496  0.00  0.00    +0.000 C 
ATOM     13  C   UNL     1       2.242   3.934  19.737  0.00  0.00    +0.000 C 
ATOM     14  C   UNL     1       1.087   4.416  20.568  0.00  0.00    +0.000 C 
ATOM     15  C   UNL     1       2.142   4.095  18.233  0.00  0.00    +0.000 C 
ATOM     16  C   UNL     1       1.715   2.598  18.228  0.00  0.00    +0.000 C 
ATOM     17  F   UNL     1       0.381   2.387  18.314  0.00  0.00    +0.000 F 
ATOM     18  F   UNL     1       2.170   1.853  17.200  0.00  0.00    +0.000 F 
ATOM     19  C   UNL     1       2.491   2.461  19.578  0.00  0.00    +0.000 C 
ENDBRANCH   6  11
BRANCH   1  24
ATOM     20  C   UNL     1      -1.997  14.036  22.874  0.00  0.00    +0.000 A 
ATOM     21  C   UNL     1      -1.365  15.134  22.274  0.00  0.00    +0.000 A 
ATOM     22  C   UNL     1      -0.244  14.971  21.443  0.00  0.00    +0.000 A 
ATOM     23  C   UNL     1       0.275  13.699  21.161  0.00  0.00    +0.000 A 
ATOM     24  C   UNL     1      -0.325  12.577  21.713  0.00  0.00    +0.000 A 
ATOM     25  C   UNL     1      -1.429  12.786  22.571  0.00  0.00    +0.000 A 
BRANCH  20  26
ATOM     26  C   UNL     1      -3.279  14.135  23.861  0.00  0.00    +0.000 C 
ATOM     27  C   UNL     1      -4.173  15.390  23.678  0.00  0.00    +0.000 C 
ATOM     28  O   UNL     1      -3.957  15.830  25.032  0.00  0.00    +0.000 OA
ATOM     29  C   UNL     1      -3.053  14.735  25.285  0.00  0.00    +0.000 C 
BRANCH  26  30
ATOM     30  C   UNL     1      -4.097  12.819  23.877  0.00  0.00    +0.000 C 
BRANCH  30  36
ATOM     31  C   UNL     1      -7.213  13.189  24.237  0.00  0.00    +0.000 C 
ATOM     32  N   UNL     1      -6.507  12.888  23.022  0.00  0.00    +0.000 N 
ATOM     33  C   UNL     1      -7.101  12.677  21.811  0.00  0.00    +0.000 A 
ATOM     34  N   UNL     1      -6.185  12.392  20.919  0.00  0.00    +0.000 NA
ATOM     35  N   UNL     1      -4.970  12.399  21.556  0.00  0.00    +0.000 NA
ATOM     36  C   UNL     1      -5.155  12.727  22.824  0.00  0.00    +0.000 A 
ENDBRANCH  30  36
ENDBRANCH  26  30
ENDBRANCH  20  26
ENDBRANCH   1  24
BRANCH   8  37
ATOM     37  C   UNL     1       1.831   9.306  17.798  0.00  0.00    +0.000 C 
ATOM     38  F   UNL     1       2.460  10.511  17.779  0.00  0.00    +0.000 F 
ATOM     39  F   UNL     1       2.598   8.465  17.053  0.00  0.00    +0.000 F 
ATOM     40  F   UNL     1       0.677   9.485  17.097  0.00  0.00    +0.000 F 
ENDBRANCH   8  37
TORSDOF 6
ENDMDL
MODEL 4
REMARK VINA RESULT:      -9.4      1.693      2.614
REMARK  Name = 
REMARK  7 active torsions:
REMARK  status: ('A' for Active; 'I' for Inactive)
REMARK    1  A    between atoms: C_1  and  N_2
REMARK    2  A    between atoms: C_6  and  C_7
REMARK    3  A    between atoms: C_7  and  C_8
REMARK    4  A    between atoms: C_8  and  C_9
REMARK    5  A    between atoms: C_13  and  N_14
REMARK    6  A    between atoms: C_19  and  N_20
REMARK    7  A    between atoms: C_30  and  C_31
REMARK                            x       y       z     vdW  Elec       q    Type
REMARK                         _______ _______ _______ _____ _____    ______ ____
ROOT
ATOM      1  N   UNL     1       2.295   7.324  19.213  0.00  0.00    +0.000 N 
ATOM      2  C   UNL     1       1.582   7.653  20.429  0.00  0.00    +0.000 C 
ATOM      3  C   UNL     1       1.139   9.049  20.227  0.00  0.00    +0.000 A 
ATOM      4  C   UNL     1       1.458   9.471  18.940  0.00  0.00    +0.000 A 
ATOM      5  C   UNL     1       1.061  10.724  18.488  0.00  0.00    +0.000 A 
ATOM      6  C   UNL     1       0.328  11.556  19.365  0.00  0.00    +0.000 A 
ATOM      7  C   UNL     1       0.112  11.129  20.696  0.00  0.00    +0.000 A 
ATOM      8  C   UNL     1       0.492   9.862  21.144  0.00  0.00    +0.000 A 
ATOM      9  C   UNL     1       2.233   8.375  18.284  0.00  0.00    +0.000 C 
ATOM     10  O   UNL     1       2.701   8.461  17.164  0.00  0.00    +0.000 OA
ENDROOT
BRANCH   6  11
ATOM     11  N   UNL     1      -0.206  12.814  18.967  0.00  0.00    +0.000 N 
ATOM     12  C   UNL     1       0.555  14.061  18.927  0.00  0.00    +0.000 C 
ATOM     13  C   UNL     1      -0.451  14.609  19.876  0.00  0.00    +0.000 C 
ATOM     14  C   UNL     1      -1.363  13.461  19.549  0.00  0.00    +0.000 C 
ATOM     15  C   UNL     1      -0.056  14.803  21.326  0.00  0.00    +0.000 C 
ATOM     16  C   UNL     1      -1.175  15.886  21.355  0.00  0.00    +0.000 C 
ATOM     17  F   UNL     1      -2.395  15.433  21.726  0.00  0.00    +0.000 F 
ATOM     18  F   UNL     1      -0.917  16.987  22.090  0.00  0.00    +0.000 F 
ATOM     19  C   UNL     1      -0.964  16.019  19.812  0.00  0.00    +0.000 C 
ENDBRANCH   6  11
BRANCH   1  24
ATOM     20  C   UNL     1       4.618   4.685  17.858  0.00  0.00    +0.000 A 
ATOM     21  C   UNL     1       4.362   3.652  18.771  0.00  0.00    +0.000 A 
ATOM     22  C   UNL     1       3.474   3.825  19.846  0.00  0.00    +0.000 A 
ATOM     23  C   UNL     1       2.788   5.034  20.036  0.00  0.00    +0.000 A 
ATOM     24  C   UNL     1       2.989   6.082  19.150  0.00  0.00    +0.000 A 
ATOM     25  C   UNL     1       3.916   5.879  18.103  0.00  0.00    +0.000 A 
BRANCH  20  26
ATOM     26  C   UNL     1       5.641   4.579  16.606  0.00  0.00    +0.000 C 
ATOM     27  C   UNL     1       5.322   5.498  15.397  0.00  0.00    +0.000 C 
ATOM     28  O   UNL     1       5.180   4.385  14.496  0.00  0.00    +0.000 OA
ATOM     29  C   UNL     1       5.396   3.441  15.565  0.00  0.00    +0.000 C 
BRANCH  26  30
ATOM     30  C   UNL     1       7.119   4.683  17.058  0.00  0.00    +0.000 C 
BRANCH  30  36
ATOM     31  C   UNL     1       8.037   5.663  19.916  0.00  0.00    +0.000 C 
ATOM     32  N   UNL     1       7.945   6.448  18.715  0.00  0.00    +0.000 N 
ATOM     33  C   UNL     1       8.216   7.783  18.638  0.00  0.00    +0.000 A 
ATOM     34  N   UNL     1       8.002   8.202  17.415  0.00  0.00    +0.000 NA
ATOM     35  N   UNL     1       7.567   7.128  16.680  0.00  0.00    +0.000 NA
ATOM     36  C   UNL     1       7.557   6.056  17.454  0.00  0.00    +0.000 A 
ENDBRANCH  30  36
ENDBRANCH  26  30
ENDBRANCH  20  26
ENDBRANCH   1  24
BRANCH   8  37
ATOM     37  C   UNL     1       0.195   9.438  22.557  0.00  0.00    +0.000 C 
ATOM     38  F   UNL     1       1.299   9.120  23.283  0.00  0.00    +0.000 F 
ATOM     39  F   UNL     1      -0.458  10.402  23.260  0.00  0.00    +0.000 F 
ATOM     40  F   UNL     1      -0.601   8.334  22.601  0.00  0.00    +0.000 F 
ENDBRANCH   8  37
TORSDOF 6
ENDMDL
MODEL 5
REMARK VINA RESULT:      -9.1      4.300     10.429
REMARK  Name = 
REMARK  7 active torsions:
REMARK  status: ('A' for Active; 'I' for Inactive)
REMARK    1  A    between atoms: C_1  and  N_2
REMARK    2  A    between atoms: C_6  and  C_7
REMARK    3  A    between atoms: C_7  and  C_8
REMARK    4  A    between atoms: C_8  and  C_9
REMARK    5  A    between atoms: C_13  and  N_14
REMARK    6  A    between atoms: C_19  and  N_20
REMARK    7  A    between atoms: C_30  and  C_31
REMARK                            x       y       z     vdW  Elec       q    Type
REMARK                         _______ _______ _______ _____ _____    ______ ____
ROOT
ATOM      1  N   UNL     1       1.503   8.695  19.334  0.00  0.00    +0.000 N 
ATOM      2  C   UNL     1       1.527   7.478  20.118  0.00  0.00    +0.000 C 
ATOM      3  C   UNL     1       2.500   6.610  19.419  0.00  0.00    +0.000 A 
ATOM      4  C   UNL     1       3.096   7.307  18.373  0.00  0.00    +0.000 A 
ATOM      5  C   UNL     1       4.111   6.725  17.623  0.00  0.00    +0.000 A 
ATOM      6  C   UNL     1       4.519   5.411  17.948  0.00  0.00    +0.000 A 
ATOM      7  C   UNL     1       3.819   4.703  18.951  0.00  0.00    +0.000 A 
ATOM      8  C   UNL     1       2.814   5.295  19.719  0.00  0.00    +0.000 A 
ATOM      9  C   UNL     1       2.439   8.647  18.289  0.00  0.00    +0.000 C 
ATOM     10  O   UNL     1       2.707   9.474  17.437  0.00  0.00    +0.000 OA
ENDROOT
BRANCH   6  11
ATOM     11  N   UNL     1       5.612   4.763  17.305  0.00  0.00    +0.000 N 
ATOM     12  C   UNL     1       6.688   5.456  16.600  0.00  0.00    +0.000 C 
ATOM     13  C   UNL     1       6.293   4.673  15.398  0.00  0.00    +0.000 C 
ATOM     14  C   UNL     1       5.505   3.747  16.279  0.00  0.00    +0.000 C 
ATOM     15  C   UNL     1       5.555   5.378  14.278  0.00  0.00    +0.000 C 
ATOM     16  C   UNL     1       6.137   4.262  13.361  0.00  0.00    +0.000 C 
ATOM     17  F   UNL     1       5.348   3.171  13.222  0.00  0.00    +0.000 F 
ATOM     18  F   UNL     1       6.510   4.644  12.123  0.00  0.00    +0.000 F 
ATOM     19  C   UNL     1       7.283   4.116  14.414  0.00  0.00    +0.000 C 
ENDBRANCH   6  11
BRANCH   1  24
ATOM     20  C   UNL     1      -1.559  10.852  18.937  0.00  0.00    +0.000 A 
ATOM     21  C   UNL     1      -1.405  11.690  20.051  0.00  0.00    +0.000 A 
ATOM     22  C   UNL     1      -0.338  11.528  20.950  0.00  0.00    +0.000 A 
ATOM     23  C   UNL     1       0.632  10.534  20.757  0.00  0.00    +0.000 A 
ATOM     24  C   UNL     1       0.539   9.690  19.660  0.00  0.00    +0.000 A 
ATOM     25  C   UNL     1      -0.569   9.864  18.798  0.00  0.00    +0.000 A 
BRANCH  20  26
ATOM     26  C   UNL     1      -2.769  10.955  17.864  0.00  0.00    +0.000 C 
ATOM     27  C   UNL     1      -3.515   9.628  17.563  0.00  0.00    +0.000 C 
ATOM     28  O   UNL     1      -3.182   9.674  16.164  0.00  0.00    +0.000 OA
ATOM     29  C   UNL     1      -2.403  10.874  16.349  0.00  0.00    +0.000 C 
BRANCH  26  30
ATOM     30  C   UNL     1      -3.737  12.119  18.196  0.00  0.00    +0.000 C 
BRANCH  30  36
ATOM     31  C   UNL     1      -4.972  12.501  21.077  0.00  0.00    +0.000 C 
ATOM     32  N   UNL     1      -5.589  11.871  19.942  0.00  0.00    +0.000 N 
ATOM     33  C   UNL     1      -6.827  11.297  19.952  0.00  0.00    +0.000 A 
ATOM     34  N   UNL     1      -7.080  10.784  18.774  0.00  0.00    +0.000 NA
ATOM     35  N   UNL     1      -5.983  11.010  17.980  0.00  0.00    +0.000 NA
ATOM     36  C   UNL     1      -5.088  11.693  18.673  0.00  0.00    +0.000 A 
ENDBRANCH  30  36
ENDBRANCH  26  30
ENDBRANCH  20  26
ENDBRANCH   1  24
BRANCH   8  37
ATOM     37  C   UNL     1       2.133   4.512  20.809  0.00  0.00    +0.000 C 
ATOM     38  F   UNL     1       2.420   4.946  22.064  0.00  0.00    +0.000 F 
ATOM     39  F   UNL     1       0.777   4.543  20.697  0.00  0.00    +0.000 F 
ATOM     40  F   UNL     1       2.483   3.197  20.788  0.00  0.00    +0.000 F 
ENDBRANCH   8  37
TORSDOF 6
ENDMDL
MODEL 6
REMARK VINA RESULT:      -9.1      3.835      9.767
REMARK  Name = 
REMARK  7 active torsions:
REMARK  status: ('A' for Active; 'I' for Inactive)
REMARK    1  A    between atoms: C_1  and  N_2
REMARK    2  A    between atoms: C_6  and  C_7
REMARK    3  A    between atoms: C_7  and  C_8
REMARK    4  A    between atoms: C_8  and  C_9
REMARK    5  A    between atoms: C_13  and  N_14
REMARK    6  A    between atoms: C_19  and  N_20
REMARK    7  A    between atoms: C_30  and  C_31
REMARK                            x       y       z     vdW  Elec       q    Type
REMARK                         _______ _______ _______ _____ _____    ______ ____
ROOT
ATOM      1  N   UNL     1       1.586   8.017  20.073  0.00  0.00    +0.000 N 
ATOM      2  C   UNL     1       1.561   6.733  20.744  0.00  0.00    +0.000 C 
ATOM      3  C   UNL     1       2.432   5.871  19.918  0.00  0.00    +0.000 A 
ATOM      4  C   UNL     1       3.025   6.619  18.906  0.00  0.00    +0.000 A 
ATOM      5  C   UNL     1       3.957   6.041  18.052  0.00  0.00    +0.000 A 
ATOM      6  C   UNL     1       4.285   4.679  18.236  0.00  0.00    +0.000 A 
ATOM      7  C   UNL     1       3.586   3.930  19.210  0.00  0.00    +0.000 A 
ATOM      8  C   UNL     1       2.665   4.515  20.082  0.00  0.00    +0.000 A 
ATOM      9  C   UNL     1       2.463   8.002  18.977  0.00  0.00    +0.000 C 
ATOM     10  O   UNL     1       2.748   8.885  18.189  0.00  0.00    +0.000 OA
ENDROOT
BRANCH   6  11
ATOM     11  N   UNL     1       5.294   4.020  17.479  0.00  0.00    +0.000 N 
ATOM     12  C   UNL     1       6.575   4.619  17.109  0.00  0.00    +0.000 C 
ATOM     13  C   UNL     1       6.190   4.367  15.694  0.00  0.00    +0.000 C 
ATOM     14  C   UNL     1       5.116   3.431  16.168  0.00  0.00    +0.000 C 
ATOM     15  C   UNL     1       5.771   5.541  14.832  0.00  0.00    +0.000 C 
ATOM     16  C   UNL     1       6.225   4.660  13.631  0.00  0.00    +0.000 C 
ATOM     17  F   UNL     1       5.253   3.889  13.091  0.00  0.00    +0.000 F 
ATOM     18  F   UNL     1       6.831   5.307  12.615  0.00  0.00    +0.000 F 
ATOM     19  C   UNL     1       7.164   3.923  14.640  0.00  0.00    +0.000 C 
ENDBRANCH   6  11
BRANCH   1  24
ATOM     20  C   UNL     1      -0.937  10.808  19.885  0.00  0.00    +0.000 A 
ATOM     21  C   UNL     1      -0.976  11.184  21.235  0.00  0.00    +0.000 A 
ATOM     22  C   UNL     1      -0.222  10.508  22.208  0.00  0.00    +0.000 A 
ATOM     23  C   UNL     1       0.621   9.441  21.864  0.00  0.00    +0.000 A 
ATOM     24  C   UNL     1       0.713   9.040  20.539  0.00  0.00    +0.000 A 
ATOM     25  C   UNL     1      -0.088   9.725  19.596  0.00  0.00    +0.000 A 
BRANCH  20  26
ATOM     26  C   UNL     1      -1.789  11.518  18.703  0.00  0.00    +0.000 C 
ATOM     27  C   UNL     1      -3.178  12.071  19.115  0.00  0.00    +0.000 C 
ATOM     28  O   UNL     1      -3.872  11.228  18.176  0.00  0.00    +0.000 OA
ATOM     29  C   UNL     1      -2.639  10.599  17.770  0.00  0.00    +0.000 C 
BRANCH  26  30
ATOM     30  C   UNL     1      -0.942  12.557  17.926  0.00  0.00    +0.000 C 
BRANCH  30  36
ATOM     31  C   UNL     1       2.176  12.456  18.420  0.00  0.00    +0.000 C 
ATOM     32  N   UNL     1       1.235  13.387  18.982  0.00  0.00    +0.000 N 
ATOM     33  C   UNL     1       1.556  14.374  19.868  0.00  0.00    +0.000 A 
ATOM     34  N   UNL     1       0.471  15.021  20.212  0.00  0.00    +0.000 NA
ATOM     35  N   UNL     1      -0.585  14.440  19.554  0.00  0.00    +0.000 NA
ATOM     36  C   UNL     1      -0.124  13.467  18.786  0.00  0.00    +0.000 A 
ENDBRANCH  30  36
ENDBRANCH  26  30
ENDBRANCH  20  26
ENDBRANCH   1  24
BRANCH   8  37
ATOM     37  C   UNL     1       1.983   3.683  21.136  0.00  0.00    +0.000 C 
ATOM     38  F   UNL     1       0.626   3.726  21.082  0.00  0.00    +0.000 F 
ATOM     39  F   UNL     1       2.326   2.368  21.057  0.00  0.00    +0.000 F 
ATOM     40  F   UNL     1       2.313   4.085  22.394  0.00  0.00    +0.000 F 
ENDBRANCH   8  37
TORSDOF 6
ENDMDL
MODEL 7
REMARK VINA RESULT:      -9.1      1.083      1.531
REMARK  Name = 
REMARK  7 active torsions:
REMARK  status: ('A' for Active; 'I' for Inactive)
REMARK    1  A    between atoms: C_1  and  N_2
REMARK    2  A    between atoms: C_6  and  C_7
REMARK    3  A    between atoms: C_7  and  C_8
REMARK    4  A    between atoms: C_8  and  C_9
REMARK    5  A    between atoms: C_13  and  N_14
REMARK    6  A    between atoms: C_19  and  N_20
REMARK    7  A    between atoms: C_30  and  C_31
REMARK                            x       y       z     vdW  Elec       q    Type
REMARK                         _______ _______ _______ _____ _____    ______ ____
ROOT
ATOM      1  N   UNL     1       1.985   7.707  19.136  0.00  0.00    +0.000 N 
ATOM      2  C   UNL     1       1.320   7.917  20.406  0.00  0.00    +0.000 C 
ATOM      3  C   UNL     1       0.880   9.329  20.359  0.00  0.00    +0.000 A 
ATOM      4  C   UNL     1       1.155   9.874  19.110  0.00  0.00    +0.000 A 
ATOM      5  C   UNL     1       0.751  11.167  18.798  0.00  0.00    +0.000 A 
ATOM      6  C   UNL     1       0.058  11.911  19.780  0.00  0.00    +0.000 A 
ATOM      7  C   UNL     1      -0.112  11.356  21.070  0.00  0.00    +0.000 A 
ATOM      8  C   UNL     1       0.275  10.050  21.376  0.00  0.00    +0.000 A 
ATOM      9  C   UNL     1       1.896   8.845  18.320  0.00  0.00    +0.000 C 
ATOM     10  O   UNL     1       2.323   9.040  17.196  0.00  0.00    +0.000 OA
ENDROOT
BRANCH   6  11
ATOM     11  N   UNL     1      -0.481  13.205  19.529  0.00  0.00    +0.000 N 
ATOM     12  C   UNL     1      -0.422  13.890  18.240  0.00  0.00    +0.000 C 
ATOM     13  C   UNL     1       0.297  14.983  18.947  0.00  0.00    +0.000 C 
ATOM     14  C   UNL     1      -0.154  14.411  20.260  0.00  0.00    +0.000 C 
ATOM     15  C   UNL     1       1.788  15.141  18.723  0.00  0.00    +0.000 C 
ATOM     16  C   UNL     1       1.563  16.630  19.118  0.00  0.00    +0.000 C 
ATOM     17  F   UNL     1       1.712  16.898  20.436  0.00  0.00    +0.000 F 
ATOM     18  F   UNL     1       2.292  17.541  18.441  0.00  0.00    +0.000 F 
ATOM     19  C   UNL     1       0.084  16.440  18.648  0.00  0.00    +0.000 C 
ENDBRANCH   6  11
BRANCH   1  24
ATOM     20  C   UNL     1       4.560   5.334  17.750  0.00  0.00    +0.000 A 
ATOM     21  C   UNL     1       4.079   4.127  18.277  0.00  0.00    +0.000 A 
ATOM     22  C   UNL     1       2.951   4.088  19.112  0.00  0.00    +0.000 A 
ATOM     23  C   UNL     1       2.245   5.256  19.437  0.00  0.00    +0.000 A 
ATOM     24  C   UNL     1       2.666   6.475  18.926  0.00  0.00    +0.000 A 
ATOM     25  C   UNL     1       3.826   6.475  18.117  0.00  0.00    +0.000 A 
BRANCH  20  26
ATOM     26  C   UNL     1       5.864   5.471  16.797  0.00  0.00    +0.000 C 
ATOM     27  C   UNL     1       6.837   4.262  16.811  0.00  0.00    +0.000 C 
ATOM     28  O   UNL     1       7.939   5.063  17.276  0.00  0.00    +0.000 OA
ATOM     29  C   UNL     1       7.101   6.233  17.367  0.00  0.00    +0.000 C 
BRANCH  26  30
ATOM     30  C   UNL     1       5.485   5.913  15.361  0.00  0.00    +0.000 C 
BRANCH  30  36
ATOM     31  C   UNL     1       8.073   5.657  13.570  0.00  0.00    +0.000 C 
ATOM     32  N   UNL     1       6.903   4.822  13.533  0.00  0.00    +0.000 N 
ATOM     33  C   UNL     1       6.719   3.783  12.667  0.00  0.00    +0.000 A 
ATOM     34  N   UNL     1       5.539   3.251  12.870  0.00  0.00    +0.000 NA
ATOM     35  N   UNL     1       4.931   3.962  13.874  0.00  0.00    +0.000 NA
ATOM     36  C   UNL     1       5.763   4.897  14.299  0.00  0.00    +0.000 A 
ENDBRANCH  30  36
ENDBRANCH  26  30
ENDBRANCH  20  26
ENDBRANCH   1  24
BRANCH   8  37
ATOM     37  C   UNL     1       0.027   9.488  22.751  0.00  0.00    +0.000 C 
ATOM     38  F   UNL     1      -0.729   8.360  22.760  0.00  0.00    +0.000 F 
ATOM     39  F   UNL     1       1.183   9.177  23.397  0.00  0.00    +0.000 F 
ATOM     40  F   UNL     1      -0.627  10.373  23.552  0.00  0.00    +0.000 F 
ENDBRANCH   8  37
TORSDOF 6
ENDMDL
MODEL 8
REMARK VINA RESULT:      -9.1      3.910      9.584
REMARK  Name = 
REMARK  7 active torsions:
REMARK  status: ('A' for Active; 'I' for Inactive)
REMARK    1  A    between atoms: C_1  and  N_2
REMARK    2  A    between atoms: C_6  and  C_7
REMARK    3  A    between atoms: C_7  and  C_8
REMARK    4  A    between atoms: C_8  and  C_9
REMARK    5  A    between atoms: C_13  and  N_14
REMARK    6  A    between atoms: C_19  and  N_20
REMARK    7  A    between atoms: C_30  and  C_31
REMARK                            x       y       z     vdW  Elec       q    Type
REMARK                         _______ _______ _______ _____ _____    ______ ____
ROOT
ATOM      1  N   UNL     1       1.499   7.914  20.256  0.00  0.00    +0.000 N 
ATOM      2  C   UNL     1       1.498   6.623  20.912  0.00  0.00    +0.000 C 
ATOM      3  C   UNL     1       2.371   5.782  20.066  0.00  0.00    +0.000 A 
ATOM      4  C   UNL     1       2.943   6.550  19.056  0.00  0.00    +0.000 A 
ATOM      5  C   UNL     1       3.872   5.994  18.185  0.00  0.00    +0.000 A 
ATOM      6  C   UNL     1       4.220   4.634  18.349  0.00  0.00    +0.000 A 
ATOM      7  C   UNL     1       3.543   3.864  19.323  0.00  0.00    +0.000 A 
ATOM      8  C   UNL     1       2.625   4.427  20.212  0.00  0.00    +0.000 A 
ATOM      9  C   UNL     1       2.363   7.924  19.150  0.00  0.00    +0.000 C 
ATOM     10  O   UNL     1       2.627   8.819  18.369  0.00  0.00    +0.000 OA
ENDROOT
BRANCH   6  11
ATOM     11  N   UNL     1       5.230   3.998  17.573  0.00  0.00    +0.000 N 
ATOM     12  C   UNL     1       6.515   4.603  17.229  0.00  0.00    +0.000 C 
ATOM     13  C   UNL     1       6.134   4.403  15.805  0.00  0.00    +0.000 C 
ATOM     14  C   UNL     1       5.054   3.455  16.242  0.00  0.00    +0.000 C 
ATOM     15  C   UNL     1       5.723   5.608  14.983  0.00  0.00    +0.000 C 
ATOM     16  C   UNL     1       6.178   4.768  13.754  0.00  0.00    +0.000 C 
ATOM     17  F   UNL     1       5.204   4.020  13.183  0.00  0.00    +0.000 F 
ATOM     18  F   UNL     1       6.791   5.447  12.763  0.00  0.00    +0.000 F 
ATOM     19  C   UNL     1       7.110   3.991  14.739  0.00  0.00    +0.000 C 
ENDBRANCH   6  11
BRANCH   1  24
ATOM     20  C   UNL     1      -0.830  10.873  20.137  0.00  0.00    +0.000 A 
ATOM     21  C   UNL     1      -1.049  11.058  21.509  0.00  0.00    +0.000 A 
ATOM     22  C   UNL     1      -0.480  10.202  22.466  0.00  0.00    +0.000 A 
ATOM     23  C   UNL     1       0.352   9.137  22.087  0.00  0.00    +0.000 A 
ATOM     24  C   UNL     1       0.618   8.920  20.743  0.00  0.00    +0.000 A 
ATOM     25  C   UNL     1      -0.002   9.784  19.811  0.00  0.00    +0.000 A 
BRANCH  20  26
ATOM     26  C   UNL     1      -1.464  11.798  18.967  0.00  0.00    +0.000 C 
ATOM     27  C   UNL     1      -3.014  11.829  18.900  0.00  0.00    +0.000 C 
ATOM     28  O   UNL     1      -3.038  11.309  17.558  0.00  0.00    +0.000 OA
ATOM     29  C   UNL     1      -1.602  11.173  17.543  0.00  0.00    +0.000 C 
BRANCH  26  30
ATOM     30  C   UNL     1      -0.840  13.216  18.953  0.00  0.00    +0.000 C 
BRANCH  30  36
ATOM     31  C   UNL     1       0.759  14.300  21.451  0.00  0.00    +0.000 C 
ATOM     32  N   UNL     1       1.305  13.738  20.245  0.00  0.00    +0.000 N 
ATOM     33  C   UNL     1       2.638  13.617  19.980  0.00  0.00    +0.000 A 
ATOM     34  N   UNL     1       2.800  13.099  18.788  0.00  0.00    +0.000 NA
ATOM     35  N   UNL     1       1.553  12.891  18.253  0.00  0.00    +0.000 NA
ATOM     36  C   UNL     1       0.643  13.250  19.142  0.00  0.00    +0.000 A 
ENDBRANCH  30  36
ENDBRANCH  26  30
ENDBRANCH  20  26
ENDBRANCH   1  24
BRANCH   8  37
ATOM     37  C   UNL     1       1.966   3.574  21.263  0.00  0.00    +0.000 C 
ATOM     38  F   UNL     1       0.610   3.554  21.189  0.00  0.00    +0.000 F 
ATOM     39  F   UNL     1       2.370   2.276  21.203  0.00  0.00    +0.000 F 
ATOM     40  F   UNL     1       2.257   4.002  22.523  0.00  0.00    +0.000 F 
ENDBRANCH   8  37
TORSDOF 6
ENDMDL
MODEL 9
REMARK VINA RESULT:      -9.1      0.908      1.270
REMARK  Name = 
REMARK  7 active torsions:
REMARK  status: ('A' for Active; 'I' for Inactive)
REMARK    1  A    between atoms: C_1  and  N_2
REMARK    2  A    between atoms: C_6  and  C_7
REMARK    3  A    between atoms: C_7  and  C_8
REMARK    4  A    between atoms: C_8  and  C_9
REMARK    5  A    between atoms: C_13  and  N_14
REMARK    6  A    between atoms: C_19  and  N_20
REMARK    7  A    between atoms: C_30  and  C_31
REMARK                            x       y       z     vdW  Elec       q    Type
REMARK                         _______ _______ _______ _____ _____    ______ ____
ROOT
ATOM      1  N   UNL     1       1.936   7.726  19.422  0.00  0.00    +0.000 N 
ATOM      2  C   UNL     1       1.206   7.988  20.645  0.00  0.00    +0.000 C 
ATOM      3  C   UNL     1       0.747   9.387  20.505  0.00  0.00    +0.000 A 
ATOM      4  C   UNL     1       1.074   9.874  19.243  0.00  0.00    +0.000 A 
ATOM      5  C   UNL     1       0.666  11.142  18.847  0.00  0.00    +0.000 A 
ATOM      6  C   UNL     1      -0.086  11.922  19.755  0.00  0.00    +0.000 A 
ATOM      7  C   UNL     1      -0.310  11.430  21.061  0.00  0.00    +0.000 A 
ATOM      8  C   UNL     1       0.081  10.148  21.452  0.00  0.00    +0.000 A 
ATOM      9  C   UNL     1       1.870   8.820  18.544  0.00  0.00    +0.000 C 
ATOM     10  O   UNL     1       2.349   8.965  17.434  0.00  0.00    +0.000 OA
ENDROOT
BRANCH   6  11
ATOM     11  N   UNL     1      -0.631  13.191  19.412  0.00  0.00    +0.000 N 
ATOM     12  C   UNL     1      -0.419  13.866  18.133  0.00  0.00    +0.000 C 
ATOM     13  C   UNL     1       0.154  14.993  18.917  0.00  0.00    +0.000 C 
ATOM     14  C   UNL     1      -0.455  14.416  20.163  0.00  0.00    +0.000 C 
ATOM     15  C   UNL     1       1.654  15.205  18.900  0.00  0.00    +0.000 C 
ATOM     16  C   UNL     1       1.322  16.689  19.237  0.00  0.00    +0.000 C 
ATOM     17  F   UNL     1       1.275  16.975  20.559  0.00  0.00    +0.000 F 
ATOM     18  F   UNL     1       2.103  17.621  18.654  0.00  0.00    +0.000 F 
ATOM     19  C   UNL     1      -0.069  16.438  18.569  0.00  0.00    +0.000 C 
ENDBRANCH   6  11
BRANCH   1  24
ATOM     20  C   UNL     1       4.533   5.296  18.181  0.00  0.00    +0.000 A 
ATOM     21  C   UNL     1       4.106   4.135  18.840  0.00  0.00    +0.000 A 
ATOM     22  C   UNL     1       3.008   4.149  19.716  0.00  0.00    +0.000 A 
ATOM     23  C   UNL     1       2.278   5.324  19.950  0.00  0.00    +0.000 A 
ATOM     24  C   UNL     1       2.646   6.498  19.308  0.00  0.00    +0.000 A 
ATOM     25  C   UNL     1       3.778   6.448  18.462  0.00  0.00    +0.000 A 
BRANCH  20  26
ATOM     26  C   UNL     1       5.800   5.373  17.173  0.00  0.00    +0.000 C 
ATOM     27  C   UNL     1       6.802   4.192  17.263  0.00  0.00    +0.000 C 
ATOM     28  O   UNL     1       7.900   5.055  17.613  0.00  0.00    +0.000 OA
ATOM     29  C   UNL     1       7.036   6.211  17.626  0.00  0.00    +0.000 C 
BRANCH  26  30
ATOM     30  C   UNL     1       5.361   5.671  15.718  0.00  0.00    +0.000 C 
BRANCH  30  36
ATOM     31  C   UNL     1       5.180   3.573  13.365  0.00  0.00    +0.000 C 
ATOM     32  N   UNL     1       6.281   4.445  13.670  0.00  0.00    +0.000 N 
ATOM     33  C   UNL     1       7.463   4.472  12.987  0.00  0.00    +0.000 A 
ATOM     34  N   UNL     1       8.265   5.350  13.537  0.00  0.00    +0.000 NA
ATOM     35  N   UNL     1       7.607   5.898  14.609  0.00  0.00    +0.000 NA
ATOM     36  C   UNL     1       6.395   5.375  14.679  0.00  0.00    +0.000 A 
ENDBRANCH  30  36
ENDBRANCH  26  30
ENDBRANCH  20  26
ENDBRANCH   1  24
BRANCH   8  37
ATOM     37  C   UNL     1      -0.225   9.652  22.841  0.00  0.00    +0.000 C 
ATOM     38  F   UNL     1       0.877   9.358  23.579  0.00  0.00    +0.000 F 
ATOM     39  F   UNL     1      -0.939  10.555  23.566  0.00  0.00    +0.000 F 
ATOM     40  F   UNL     1      -0.967   8.511  22.822  0.00  0.00    +0.000 F 
ENDBRANCH   8  37
TORSDOF 6
ENDMDL
