MODEL 1
REMARK VINA RESULT:     -10.0      0.000      0.000
REMARK  Name = 
REMARK  8 active torsions:
REMARK  status: ('A' for Active; 'I' for Inactive)
REMARK    1  A    between atoms: C_1  and  N_2
REMARK    2  A    between atoms: N_5  and  C_6
REMARK    3  A    between atoms: C_10  and  C_11
REMARK    4  A    between atoms: N_17  and  C_18
REMARK    5  A    between atoms: C_22  and  C_23
REMARK    6  A    between atoms: C_23  and  C_24
REMARK    7  A    between atoms: C_24  and  C_25
REMARK    8  A    between atoms: N_29  and  C_30
REMARK                            x       y       z     vdW  Elec       q    Type
REMARK                         _______ _______ _______ _____ _____    ______ ____
ROOT
ATOM      1  C   UNL     1       0.874  11.528  19.082  0.00  0.00    +0.000 A 
ATOM      2  C   UNL     1       1.579  10.627  18.279  0.00  0.00    +0.000 A 
ATOM      3  C   UNL     1       1.770   9.351  18.746  0.00  0.00    +0.000 A 
ATOM      4  C   UNL     1       1.301   8.902  19.973  0.00  0.00    +0.000 A 
ATOM      5  C   UNL     1       0.621   9.760  20.814  0.00  0.00    +0.000 A 
ATOM      6  C   UNL     1       0.420  11.070  20.340  0.00  0.00    +0.000 A 
ATOM      7  C   UNL     1       1.652   7.467  20.141  0.00  0.00    +0.000 C 
ATOM      8  N   UNL     1       2.339   7.152  18.899  0.00  0.00    +0.000 N 
ATOM      9  C   UNL     1       2.464   8.263  18.067  0.00  0.00    +0.000 C 
ATOM     10  O   UNL     1       3.008   8.412  16.997  0.00  0.00    +0.000 OA
ENDROOT
BRANCH   1  15
ATOM     11  C   UNL     1       0.462  16.770  20.223  0.00  0.00    +0.000 C 
ATOM     12  N   UNL     1       0.447  15.630  19.306  0.00  0.00    +0.000 NA
ATOM     13  C   UNL     1      -0.539  14.637  19.791  0.00  0.00    +0.000 C 
ATOM     14  C   UNL     1      -0.682  13.447  18.832  0.00  0.00    +0.000 C 
ATOM     15  N   UNL     1       0.614  12.806  18.629  0.00  0.00    +0.000 N 
ATOM     16  C   UNL     1       1.682  13.687  18.142  0.00  0.00    +0.000 C 
ATOM     17  C   UNL     1       1.773  14.957  19.024  0.00  0.00    +0.000 C 
ATOM     18  C   UNL     1       2.910  15.022  20.029  0.00  0.00    +0.000 C 
ATOM     19  C   UNL     1       2.991  15.824  18.762  0.00  0.00    +0.000 C 
ENDBRANCH   1  15
BRANCH   8  20
ATOM     20  C   UNL     1       2.891   5.881  18.668  0.00  0.00    +0.000 A 
ATOM     21  C   UNL     1       2.549   4.789  19.461  0.00  0.00    +0.000 A 
ATOM     22  C   UNL     1       3.092   3.537  19.205  0.00  0.00    +0.000 A 
ATOM     23  C   UNL     1       4.026   3.391  18.185  0.00  0.00    +0.000 A 
ATOM     24  C   UNL     1       4.449   4.480  17.394  0.00  0.00    +0.000 A 
ATOM     25  C   UNL     1       3.813   5.705  17.630  0.00  0.00    +0.000 A 
BRANCH  24  26
ATOM     26  C   UNL     1       5.662   4.378  16.363  0.00  0.00    +0.000 C 
ATOM     27  C   UNL     1       5.645   3.278  15.248  0.00  0.00    +0.000 C 
ATOM     28  O   UNL     1       5.995   4.279  14.243  0.00  0.00    +0.000 OA
ATOM     29  C   UNL     1       5.450   5.300  15.114  0.00  0.00    +0.000 C 
BRANCH  26  30
ATOM     30  C   UNL     1       7.029   4.518  17.063  0.00  0.00    +0.000 C 
BRANCH  30  31
ATOM     31  C   UNL     1       7.447   5.924  17.399  0.00  0.00    +0.000 A 
ATOM     32  N   UNL     1       7.495   6.950  16.569  0.00  0.00    +0.000 NA
ATOM     33  N   UNL     1       7.925   8.060  17.262  0.00  0.00    +0.000 NA
ATOM     34  C   UNL     1       8.110   7.697  18.511  0.00  0.00    +0.000 A 
ATOM     35  N   UNL     1       7.809   6.374  18.647  0.00  0.00    +0.000 N 
ATOM     36  C   UNL     1       7.903   5.636  19.877  0.00  0.00    +0.000 C 
ENDBRANCH  30  31
ENDBRANCH  26  30
ENDBRANCH  24  26
ENDBRANCH   8  20
BRANCH   5  37
ATOM     37  C   UNL     1       0.125   9.342  22.168  0.00  0.00    +0.000 C 
ATOM     38  F   UNL     1      -0.544  10.324  22.830  0.00  0.00    +0.000 F 
ATOM     39  F   UNL     1      -0.735   8.287  22.101  0.00  0.00    +0.000 F 
ATOM     40  F   UNL     1       1.135   8.955  22.995  0.00  0.00    +0.000 F 
ENDBRANCH   5  37
TORSDOF 6
ENDMDL
MODEL 2
REMARK VINA RESULT:      -9.6      1.622      2.515
REMARK  Name = 
REMARK  8 active torsions:
REMARK  status: ('A' for Active; 'I' for Inactive)
REMARK    1  A    between atoms: C_1  and  N_2
REMARK    2  A    between atoms: N_5  and  C_6
REMARK    3  A    between atoms: C_10  and  C_11
REMARK    4  A    between atoms: N_17  and  C_18
REMARK    5  A    between atoms: C_22  and  C_23
REMARK    6  A    between atoms: C_23  and  C_24
REMARK    7  A    between atoms: C_24  and  C_25
REMARK    8  A    between atoms: N_29  and  C_30
REMARK                            x       y       z     vdW  Elec       q    Type
REMARK                         _______ _______ _______ _____ _____    ______ ____
ROOT
ATOM      1  C   UNL     1       0.659  12.094  19.882  0.00  0.00    +0.000 A 
ATOM      2  C   UNL     1       1.284  11.347  18.879  0.00  0.00    +0.000 A 
ATOM      3  C   UNL     1       1.474  10.005  19.090  0.00  0.00    +0.000 A 
ATOM      4  C   UNL     1       1.078   9.343  20.245  0.00  0.00    +0.000 A 
ATOM      5  C   UNL     1       0.481  10.041  21.276  0.00  0.00    +0.000 A 
ATOM      6  C   UNL     1       0.280  11.418  21.064  0.00  0.00    +0.000 A 
ATOM      7  C   UNL     1       1.403   7.898  20.122  0.00  0.00    +0.000 C 
ATOM      8  N   UNL     1       1.995   7.808  18.797  0.00  0.00    +0.000 N 
ATOM      9  C   UNL     1       2.091   9.051  18.176  0.00  0.00    +0.000 C 
ATOM     10  O   UNL     1       2.564   9.388  17.114  0.00  0.00    +0.000 OA
ENDROOT
BRANCH   1  15
ATOM     11  C   UNL     1       2.153  17.189  20.755  0.00  0.00    +0.000 C 
ATOM     12  N   UNL     1       1.288  16.166  20.166  0.00  0.00    +0.000 NA
ATOM     13  C   UNL     1       0.761  15.302  21.248  0.00  0.00    +0.000 C 
ATOM     14  C   UNL     1      -0.230  14.255  20.721  0.00  0.00    +0.000 C 
ATOM     15  N   UNL     1       0.402  13.437  19.690  0.00  0.00    +0.000 N 
ATOM     16  C   UNL     1       0.962  14.178  18.554  0.00  0.00    +0.000 C 
ATOM     17  C   UNL     1       1.879  15.320  19.059  0.00  0.00    +0.000 C 
ATOM     18  C   UNL     1       3.378  15.097  18.965  0.00  0.00    +0.000 C 
ATOM     19  C   UNL     1       2.698  16.000  17.978  0.00  0.00    +0.000 C 
ENDBRANCH   1  15
BRANCH   8  20
ATOM     20  C   UNL     1       2.497   6.595  18.299  0.00  0.00    +0.000 A 
ATOM     21  C   UNL     1       1.713   5.445  18.270  0.00  0.00    +0.000 A 
ATOM     22  C   UNL     1       2.222   4.260  17.757  0.00  0.00    +0.000 A 
ATOM     23  C   UNL     1       3.542   4.212  17.322  0.00  0.00    +0.000 A 
ATOM     24  C   UNL     1       4.394   5.335  17.388  0.00  0.00    +0.000 A 
ATOM     25  C   UNL     1       3.815   6.530  17.832  0.00  0.00    +0.000 A 
BRANCH  24  26
ATOM     26  C   UNL     1       5.959   5.250  17.090  0.00  0.00    +0.000 C 
ATOM     27  C   UNL     1       6.790   6.565  16.909  0.00  0.00    +0.000 C 
ATOM     28  O   UNL     1       7.806   6.059  17.829  0.00  0.00    +0.000 OA
ATOM     29  C   UNL     1       6.805   5.187  18.407  0.00  0.00    +0.000 C 
BRANCH  26  30
ATOM     30  C   UNL     1       6.288   4.169  16.040  0.00  0.00    +0.000 C 
BRANCH  30  31
ATOM     31  C   UNL     1       6.921   4.666  14.770  0.00  0.00    +0.000 A 
ATOM     32  N   UNL     1       7.956   5.481  14.673  0.00  0.00    +0.000 NA
ATOM     33  N   UNL     1       8.229   5.693  13.339  0.00  0.00    +0.000 NA
ATOM     34  C   UNL     1       7.368   4.984  12.644  0.00  0.00    +0.000 A 
ATOM     35  N   UNL     1       6.541   4.314  13.496  0.00  0.00    +0.000 N 
ATOM     36  C   UNL     1       5.473   3.445  13.083  0.00  0.00    +0.000 C 
ENDBRANCH  30  31
ENDBRANCH  26  30
ENDBRANCH  24  26
ENDBRANCH   8  20
BRANCH   5  37
ATOM     37  C   UNL     1       0.067   9.387  22.562  0.00  0.00    +0.000 C 
ATOM     38  F   UNL     1      -0.632  10.208  23.390  0.00  0.00    +0.000 F 
ATOM     39  F   UNL     1      -0.728   8.300  22.358  0.00  0.00    +0.000 F 
ATOM     40  F   UNL     1       1.132   8.946  23.286  0.00  0.00    +0.000 F 
ENDBRANCH   5  37
TORSDOF 6
ENDMDL
MODEL 3
REMARK VINA RESULT:      -9.5      0.589      1.033
REMARK  Name = 
REMARK  8 active torsions:
REMARK  status: ('A' for Active; 'I' for Inactive)
REMARK    1  A    between atoms: C_1  and  N_2
REMARK    2  A    between atoms: N_5  and  C_6
REMARK    3  A    between atoms: C_10  and  C_11
REMARK    4  A    between atoms: N_17  and  C_18
REMARK    5  A    between atoms: C_22  and  C_23
REMARK    6  A    between atoms: C_23  and  C_24
REMARK    7  A    between atoms: C_24  and  C_25
REMARK    8  A    between atoms: N_29  and  C_30
REMARK                            x       y       z     vdW  Elec       q    Type
REMARK                         _______ _______ _______ _____ _____    ______ ____
ROOT
ATOM      1  C   UNL     1       0.818  11.656  19.257  0.00  0.00    +0.000 A 
ATOM      2  C   UNL     1       1.502  10.807  18.381  0.00  0.00    +0.000 A 
ATOM      3  C   UNL     1       1.735   9.515  18.777  0.00  0.00    +0.000 A 
ATOM      4  C   UNL     1       1.329   8.999  20.001  0.00  0.00    +0.000 A 
ATOM      5  C   UNL     1       0.674   9.804  20.912  0.00  0.00    +0.000 A 
ATOM      6  C   UNL     1       0.429  11.130  20.510  0.00  0.00    +0.000 A 
ATOM      7  C   UNL     1       1.711   7.565  20.084  0.00  0.00    +0.000 C 
ATOM      8  N   UNL     1       2.347   7.322  18.800  0.00  0.00    +0.000 N 
ATOM      9  C   UNL     1       2.416   8.473  18.018  0.00  0.00    +0.000 C 
ATOM     10  O   UNL     1       2.909   8.682  16.932  0.00  0.00    +0.000 OA
ENDROOT
BRANCH   1  15
ATOM     11  C   UNL     1       0.618  16.866  20.589  0.00  0.00    +0.000 C 
ATOM     12  N   UNL     1       0.471  15.753  19.649  0.00  0.00    +0.000 NA
ATOM     13  C   UNL     1      -0.455  14.754  20.230  0.00  0.00    +0.000 C 
ATOM     14  C   UNL     1      -0.734  13.594  19.264  0.00  0.00    +0.000 C 
ATOM     15  N   UNL     1       0.517  12.949  18.877  0.00  0.00    +0.000 N 
ATOM     16  C   UNL     1       1.523  13.835  18.281  0.00  0.00    +0.000 C 
ATOM     17  C   UNL     1       1.742  15.079  19.179  0.00  0.00    +0.000 C 
ATOM     18  C   UNL     1       3.000  15.105  20.029  0.00  0.00    +0.000 C 
ATOM     19  C   UNL     1       2.926  15.943  18.786  0.00  0.00    +0.000 C 
ENDBRANCH   1  15
BRANCH   8  20
ATOM     20  C   UNL     1       2.910   6.074  18.484  0.00  0.00    +0.000 A 
ATOM     21  C   UNL     1       2.641   4.945  19.252  0.00  0.00    +0.000 A 
ATOM     22  C   UNL     1       3.192   3.717  18.913  0.00  0.00    +0.000 A 
ATOM     23  C   UNL     1       4.063   3.631  17.832  0.00  0.00    +0.000 A 
ATOM     24  C   UNL     1       4.414   4.760  17.061  0.00  0.00    +0.000 A 
ATOM     25  C   UNL     1       3.768   5.959  17.385  0.00  0.00    +0.000 A 
BRANCH  24  26
ATOM     26  C   UNL     1       5.561   4.726  15.953  0.00  0.00    +0.000 C 
ATOM     27  C   UNL     1       6.146   3.353  15.480  0.00  0.00    +0.000 C 
ATOM     28  O   UNL     1       5.996   3.759  14.085  0.00  0.00    +0.000 OA
ATOM     29  C   UNL     1       4.975   4.698  14.501  0.00  0.00    +0.000 C 
BRANCH  26  30
ATOM     30  C   UNL     1       6.642   5.796  16.209  0.00  0.00    +0.000 C 
BRANCH  30  31
ATOM     31  C   UNL     1       7.267   5.776  17.577  0.00  0.00    +0.000 A 
ATOM     32  N   UNL     1       7.439   4.718  18.349  0.00  0.00    +0.000 NA
ATOM     33  N   UNL     1       8.046   5.118  19.519  0.00  0.00    +0.000 NA
ATOM     34  C   UNL     1       8.256   6.413  19.432  0.00  0.00    +0.000 A 
ATOM     35  N   UNL     1       7.799   6.864  18.229  0.00  0.00    +0.000 N 
ATOM     36  C   UNL     1       7.859   8.233  17.795  0.00  0.00    +0.000 C 
ENDBRANCH  30  31
ENDBRANCH  26  30
ENDBRANCH  24  26
ENDBRANCH   8  20
BRANCH   5  37
ATOM     37  C   UNL     1       0.245   9.313  22.264  0.00  0.00    +0.000 C 
ATOM     38  F   UNL     1      -0.315  10.278  23.041  0.00  0.00    +0.000 F 
ATOM     39  F   UNL     1      -0.679   8.316  22.184  0.00  0.00    +0.000 F 
ATOM     40  F   UNL     1       1.283   8.809  22.986  0.00  0.00    +0.000 F 
ENDBRANCH   5  37
TORSDOF 6
ENDMDL
MODEL 4
REMARK VINA RESULT:      -9.0      3.995      5.444
REMARK  Name = 
REMARK  8 active torsions:
REMARK  status: ('A' for Active; 'I' for Inactive)
REMARK    1  A    between atoms: C_1  and  N_2
REMARK    2  A    between atoms: N_5  and  C_6
REMARK    3  A    between atoms: C_10  and  C_11
REMARK    4  A    between atoms: N_17  and  C_18
REMARK    5  A    between atoms: C_22  and  C_23
REMARK    6  A    between atoms: C_23  and  C_24
REMARK    7  A    between atoms: C_24  and  C_25
REMARK    8  A    between atoms: N_29  and  C_30
REMARK                            x       y       z     vdW  Elec       q    Type
REMARK                         _______ _______ _______ _____ _____    ______ ____
ROOT
ATOM      1  C   UNL     1      -3.041  12.361  19.843  0.00  0.00    +0.000 A 
ATOM      2  C   UNL     1      -1.838  11.811  20.295  0.00  0.00    +0.000 A 
ATOM      3  C   UNL     1      -1.164  10.950  19.467  0.00  0.00    +0.000 A 
ATOM      4  C   UNL     1      -1.608  10.595  18.199  0.00  0.00    +0.000 A 
ATOM      5  C   UNL     1      -2.803  11.091  17.717  0.00  0.00    +0.000 A 
ATOM      6  C   UNL     1      -3.498  11.977  18.562  0.00  0.00    +0.000 A 
ATOM      7  C   UNL     1      -0.621   9.681  17.568  0.00  0.00    +0.000 C 
ATOM      8  N   UNL     1       0.416   9.571  18.581  0.00  0.00    +0.000 N 
ATOM      9  C   UNL     1       0.101  10.279  19.739  0.00  0.00    +0.000 C 
ATOM     10  O   UNL     1       0.674  10.387  20.800  0.00  0.00    +0.000 OA
ENDROOT
BRANCH   1  15
ATOM     11  C   UNL     1      -6.454  13.213  23.915  0.00  0.00    +0.000 C 
ATOM     12  N   UNL     1      -5.545  13.662  22.859  0.00  0.00    +0.000 NA
ATOM     13  C   UNL     1      -5.985  13.084  21.569  0.00  0.00    +0.000 C 
ATOM     14  C   UNL     1      -5.133  13.581  20.392  0.00  0.00    +0.000 C 
ATOM     15  N   UNL     1      -3.725  13.271  20.624  0.00  0.00    +0.000 N 
ATOM     16  C   UNL     1      -3.164  13.796  21.874  0.00  0.00    +0.000 C 
ATOM     17  C   UNL     1      -4.068  13.409  23.072  0.00  0.00    +0.000 C 
ATOM     18  C   UNL     1      -3.591  12.272  23.959  0.00  0.00    +0.000 C 
ATOM     19  C   UNL     1      -3.466  13.690  24.436  0.00  0.00    +0.000 C 
ENDBRANCH   1  15
BRANCH   8  20
ATOM     20  C   UNL     1       1.534   8.740  18.400  0.00  0.00    +0.000 A 
ATOM     21  C   UNL     1       2.583   9.111  17.564  0.00  0.00    +0.000 A 
ATOM     22  C   UNL     1       3.688   8.283  17.413  0.00  0.00    +0.000 A 
ATOM     23  C   UNL     1       3.715   7.051  18.057  0.00  0.00    +0.000 A 
ATOM     24  C   UNL     1       2.647   6.605  18.865  0.00  0.00    +0.000 A 
ATOM     25  C   UNL     1       1.594   7.507  19.059  0.00  0.00    +0.000 A 
BRANCH  24  26
ATOM     26  C   UNL     1       2.566   5.121  19.444  0.00  0.00    +0.000 C 
ATOM     27  C   UNL     1       1.576   4.794  20.613  0.00  0.00    +0.000 C 
ATOM     28  O   UNL     1       1.092   3.622  19.888  0.00  0.00    +0.000 OA
ATOM     29  C   UNL     1       1.539   4.238  18.656  0.00  0.00    +0.000 C 
BRANCH  26  30
ATOM     30  C   UNL     1       3.964   4.497  19.634  0.00  0.00    +0.000 C 
BRANCH  30  31
ATOM     31  C   UNL     1       4.765   4.304  18.376  0.00  0.00    +0.000 A 
ATOM     32  N   UNL     1       4.364   3.702  17.271  0.00  0.00    +0.000 NA
ATOM     33  N   UNL     1       5.389   3.734  16.351  0.00  0.00    +0.000 NA
ATOM     34  C   UNL     1       6.393   4.377  16.904  0.00  0.00    +0.000 A 
ATOM     35  N   UNL     1       6.044   4.765  18.163  0.00  0.00    +0.000 N 
ATOM     36  C   UNL     1       6.901   5.487  19.063  0.00  0.00    +0.000 C 
ENDBRANCH  30  31
ENDBRANCH  26  30
ENDBRANCH  24  26
ENDBRANCH   8  20
BRANCH   5  37
ATOM     37  C   UNL     1      -3.352  10.713  16.372  0.00  0.00    +0.000 C 
ATOM     38  F   UNL     1      -3.342   9.373  16.137  0.00  0.00    +0.000 F 
ATOM     39  F   UNL     1      -4.644  11.110  16.210  0.00  0.00    +0.000 F 
ATOM     40  F   UNL     1      -2.652  11.276  15.349  0.00  0.00    +0.000 F 
ENDBRANCH   5  37
TORSDOF 6
ENDMDL
MODEL 5
REMARK VINA RESULT:      -8.9      3.813      5.324
REMARK  Name = 
REMARK  8 active torsions:
REMARK  status: ('A' for Active; 'I' for Inactive)
REMARK    1  A    between atoms: C_1  and  N_2
REMARK    2  A    between atoms: N_5  and  C_6
REMARK    3  A    between atoms: C_10  and  C_11
REMARK    4  A    between atoms: N_17  and  C_18
REMARK    5  A    between atoms: C_22  and  C_23
REMARK    6  A    between atoms: C_23  and  C_24
REMARK    7  A    between atoms: C_24  and  C_25
REMARK    8  A    between atoms: N_29  and  C_30
REMARK                            x       y       z     vdW  Elec       q    Type
REMARK                         _______ _______ _______ _____ _____    ______ ____
ROOT
ATOM      1  C   UNL     1      -2.180  12.351  21.447  0.00  0.00    +0.000 A 
ATOM      2  C   UNL     1      -1.020  11.598  21.644  0.00  0.00    +0.000 A 
ATOM      3  C   UNL     1      -0.550  10.843  20.600  0.00  0.00    +0.000 A 
ATOM      4  C   UNL     1      -1.161  10.786  19.354  0.00  0.00    +0.000 A 
ATOM      5  C   UNL     1      -2.324  11.491  19.118  0.00  0.00    +0.000 A 
ATOM      6  C   UNL     1      -2.810  12.270  20.185  0.00  0.00    +0.000 A 
ATOM      7  C   UNL     1      -0.369   9.906  18.455  0.00  0.00    +0.000 C 
ATOM      8  N   UNL     1       0.742   9.494  19.297  0.00  0.00    +0.000 N 
ATOM      9  C   UNL     1       0.639   9.999  20.592  0.00  0.00    +0.000 C 
ATOM     10  O   UNL     1       1.325   9.840  21.576  0.00  0.00    +0.000 OA
ENDROOT
BRANCH   1  15
ATOM     11  C   UNL     1      -5.901  15.883  23.071  0.00  0.00    +0.000 C 
ATOM     12  N   UNL     1      -4.725  15.039  23.282  0.00  0.00    +0.000 NA
ATOM     13  C   UNL     1      -3.701  15.382  22.269  0.00  0.00    +0.000 C 
ATOM     14  C   UNL     1      -2.396  14.600  22.478  0.00  0.00    +0.000 C 
ATOM     15  N   UNL     1      -2.660  13.165  22.455  0.00  0.00    +0.000 N 
ATOM     16  C   UNL     1      -3.658  12.694  23.422  0.00  0.00    +0.000 C 
ATOM     17  C   UNL     1      -4.950  13.542  23.315  0.00  0.00    +0.000 C 
ATOM     18  C   UNL     1      -6.132  12.916  22.597  0.00  0.00    +0.000 C 
ATOM     19  C   UNL     1      -6.132  12.998  24.096  0.00  0.00    +0.000 C 
ENDBRANCH   1  15
BRANCH   8  20
ATOM     20  C   UNL     1       1.718   8.597  18.836  0.00  0.00    +0.000 A 
ATOM     21  C   UNL     1       2.557   8.923  17.773  0.00  0.00    +0.000 A 
ATOM     22  C   UNL     1       3.528   8.028  17.344  0.00  0.00    +0.000 A 
ATOM     23  C   UNL     1       3.622   6.778  17.945  0.00  0.00    +0.000 A 
ATOM     24  C   UNL     1       2.755   6.379  18.984  0.00  0.00    +0.000 A 
ATOM     25  C   UNL     1       1.849   7.342  19.443  0.00  0.00    +0.000 A 
BRANCH  24  26
ATOM     26  C   UNL     1       2.710   4.886  19.545  0.00  0.00    +0.000 C 
ATOM     27  C   UNL     1       1.784   4.537  20.759  0.00  0.00    +0.000 C 
ATOM     28  O   UNL     1       1.268   3.373  20.043  0.00  0.00    +0.000 OA
ATOM     29  C   UNL     1       1.648   4.009  18.798  0.00  0.00    +0.000 C 
BRANCH  26  30
ATOM     30  C   UNL     1       4.119   4.268  19.653  0.00  0.00    +0.000 C 
BRANCH  30  31
ATOM     31  C   UNL     1       4.894   4.187  18.367  0.00  0.00    +0.000 A 
ATOM     32  N   UNL     1       4.506   3.602  17.248  0.00  0.00    +0.000 NA
ATOM     33  N   UNL     1       5.498   3.749  16.304  0.00  0.00    +0.000 NA
ATOM     34  C   UNL     1       6.467   4.445  16.856  0.00  0.00    +0.000 A 
ATOM     35  N   UNL     1       6.127   4.753  18.139  0.00  0.00    +0.000 N 
ATOM     36  C   UNL     1       6.955   5.502  19.046  0.00  0.00    +0.000 C 
ENDBRANCH  30  31
ENDBRANCH  26  30
ENDBRANCH  24  26
ENDBRANCH   8  20
BRANCH   5  37
ATOM     37  C   UNL     1      -3.050  11.437  17.805  0.00  0.00    +0.000 C 
ATOM     38  F   UNL     1      -2.305  11.871  16.753  0.00  0.00    +0.000 F 
ATOM     39  F   UNL     1      -3.447  10.175  17.484  0.00  0.00    +0.000 F 
ATOM     40  F   UNL     1      -4.177  12.201  17.803  0.00  0.00    +0.000 F 
ENDBRANCH   5  37
TORSDOF 6
ENDMDL
MODEL 6
REMARK VINA RESULT:      -8.7      3.493      4.768
REMARK  Name = 
REMARK  8 active torsions:
REMARK  status: ('A' for Active; 'I' for Inactive)
REMARK    1  A    between atoms: C_1  and  N_2
REMARK    2  A    between atoms: N_5  and  C_6
REMARK    3  A    between atoms: C_10  and  C_11
REMARK    4  A    between atoms: N_17  and  C_18
REMARK    5  A    between atoms: C_22  and  C_23
REMARK    6  A    between atoms: C_23  and  C_24
REMARK    7  A    between atoms: C_24  and  C_25
REMARK    8  A    between atoms: N_29  and  C_30
REMARK                            x       y       z     vdW  Elec       q    Type
REMARK                         _______ _______ _______ _____ _____    ______ ____
ROOT
ATOM      1  C   UNL     1      -2.426  12.127  19.651  0.00  0.00    +0.000 A 
ATOM      2  C   UNL     1      -1.198  11.582  20.035  0.00  0.00    +0.000 A 
ATOM      3  C   UNL     1      -0.600  10.672  19.200  0.00  0.00    +0.000 A 
ATOM      4  C   UNL     1      -1.147  10.262  17.990  0.00  0.00    +0.000 A 
ATOM      5  C   UNL     1      -2.370  10.752  17.579  0.00  0.00    +0.000 A 
ATOM      6  C   UNL     1      -2.987  11.688  18.431  0.00  0.00    +0.000 A 
ATOM      7  C   UNL     1      -0.223   9.304  17.330  0.00  0.00    +0.000 C 
ATOM      8  N   UNL     1       0.890   9.228  18.263  0.00  0.00    +0.000 N 
ATOM      9  C   UNL     1       0.676   9.997  19.405  0.00  0.00    +0.000 C 
ATOM     10  O   UNL     1       1.331  10.147  20.411  0.00  0.00    +0.000 OA
ENDROOT
BRANCH   1  15
ATOM     11  C   UNL     1      -3.893  13.719  24.578  0.00  0.00    +0.000 C 
ATOM     12  N   UNL     1      -3.766  13.903  23.131  0.00  0.00    +0.000 NA
ATOM     13  C   UNL     1      -4.417  12.764  22.444  0.00  0.00    +0.000 C 
ATOM     14  C   UNL     1      -4.407  12.927  20.918  0.00  0.00    +0.000 C 
ATOM     15  N   UNL     1      -3.037  13.084  20.438  0.00  0.00    +0.000 N 
ATOM     16  C   UNL     1      -2.282  14.188  21.041  0.00  0.00    +0.000 C 
ATOM     17  C   UNL     1      -2.371  14.117  22.586  0.00  0.00    +0.000 C 
ATOM     18  C   UNL     1      -1.154  13.589  23.325  0.00  0.00    +0.000 C 
ATOM     19  C   UNL     1      -1.437  15.064  23.318  0.00  0.00    +0.000 C 
ENDBRANCH   1  15
BRANCH   8  20
ATOM     20  C   UNL     1       1.981   8.373  18.036  0.00  0.00    +0.000 A 
ATOM     21  C   UNL     1       3.064   8.772  17.257  0.00  0.00    +0.000 A 
ATOM     22  C   UNL     1       4.140   7.918  17.060  0.00  0.00    +0.000 A 
ATOM     23  C   UNL     1       4.107   6.637  17.599  0.00  0.00    +0.000 A 
ATOM     24  C   UNL     1       3.004   6.165  18.343  0.00  0.00    +0.000 A 
ATOM     25  C   UNL     1       1.981   7.088  18.590  0.00  0.00    +0.000 A 
BRANCH  24  26
ATOM     26  C   UNL     1       2.855   4.642  18.793  0.00  0.00    +0.000 C 
ATOM     27  C   UNL     1       2.313   4.302  20.222  0.00  0.00    +0.000 C 
ATOM     28  O   UNL     1       1.383   3.332  19.649  0.00  0.00    +0.000 OA
ATOM     29  C   UNL     1       1.463   4.045  18.391  0.00  0.00    +0.000 C 
BRANCH  26  30
ATOM     30  C   UNL     1       4.079   3.797  18.385  0.00  0.00    +0.000 C 
BRANCH  30  31
ATOM     31  C   UNL     1       5.420   4.407  18.685  0.00  0.00    +0.000 A 
ATOM     32  N   UNL     1       5.835   4.860  19.855  0.00  0.00    +0.000 NA
ATOM     33  N   UNL     1       7.120   5.338  19.714  0.00  0.00    +0.000 NA
ATOM     34  C   UNL     1       7.476   5.147  18.463  0.00  0.00    +0.000 A 
ATOM     35  N   UNL     1       6.451   4.554  17.787  0.00  0.00    +0.000 N 
ATOM     36  C   UNL     1       6.487   4.204  16.393  0.00  0.00    +0.000 C 
ENDBRANCH  30  31
ENDBRANCH  26  30
ENDBRANCH  24  26
ENDBRANCH   8  20
BRANCH   5  37
ATOM     37  C   UNL     1      -3.028  10.317  16.301  0.00  0.00    +0.000 C 
ATOM     38  F   UNL     1      -3.086   8.966  16.152  0.00  0.00    +0.000 F 
ATOM     39  F   UNL     1      -4.313  10.758  16.204  0.00  0.00    +0.000 F 
ATOM     40  F   UNL     1      -2.382  10.786  15.199  0.00  0.00    +0.000 F 
ENDBRANCH   5  37
TORSDOF 6
ENDMDL
MODEL 7
REMARK VINA RESULT:      -8.7      3.788     10.442
REMARK  Name = 
REMARK  8 active torsions:
REMARK  status: ('A' for Active; 'I' for Inactive)
REMARK    1  A    between atoms: C_1  and  N_2
REMARK    2  A    between atoms: N_5  and  C_6
REMARK    3  A    between atoms: C_10  and  C_11
REMARK    4  A    between atoms: N_17  and  C_18
REMARK    5  A    between atoms: C_22  and  C_23
REMARK    6  A    between atoms: C_23  and  C_24
REMARK    7  A    between atoms: C_24  and  C_25
REMARK    8  A    between atoms: N_29  and  C_30
REMARK                            x       y       z     vdW  Elec       q    Type
REMARK                         _______ _______ _______ _____ _____    ______ ____
ROOT
ATOM      1  C   UNL     1       1.817   7.050  20.403  0.00  0.00    +0.000 A 
ATOM      2  C   UNL     1       1.188   7.603  21.522  0.00  0.00    +0.000 A 
ATOM      3  C   UNL     1       0.688   8.876  21.424  0.00  0.00    +0.000 A 
ATOM      4  C   UNL     1       0.768   9.649  20.273  0.00  0.00    +0.000 A 
ATOM      5  C   UNL     1       1.403   9.159  19.150  0.00  0.00    +0.000 A 
ATOM      6  C   UNL     1       1.916   7.851  19.243  0.00  0.00    +0.000 A 
ATOM      7  C   UNL     1       0.095  10.953  20.506  0.00  0.00    +0.000 C 
ATOM      8  N   UNL     1      -0.383  10.835  21.874  0.00  0.00    +0.000 N 
ATOM      9  C   UNL     1      -0.007   9.629  22.462  0.00  0.00    +0.000 C 
ATOM     10  O   UNL     1      -0.166   9.192  23.580  0.00  0.00    +0.000 OA
ENDROOT
BRANCH   1  15
ATOM     11  C   UNL     1       2.298   2.299  17.922  0.00  0.00    +0.000 C 
ATOM     12  N   UNL     1       2.548   3.224  19.029  0.00  0.00    +0.000 NA
ATOM     13  C   UNL     1       1.250   3.717  19.545  0.00  0.00    +0.000 C 
ATOM     14  C   UNL     1       1.423   4.626  20.770  0.00  0.00    +0.000 C 
ATOM     15  N   UNL     1       2.290   5.753  20.442  0.00  0.00    +0.000 N 
ATOM     16  C   UNL     1       3.615   5.397  19.922  0.00  0.00    +0.000 C 
ATOM     17  C   UNL     1       3.480   4.386  18.756  0.00  0.00    +0.000 C 
ATOM     18  C   UNL     1       3.662   4.925  17.348  0.00  0.00    +0.000 C 
ATOM     19  C   UNL     1       4.763   4.129  17.988  0.00  0.00    +0.000 C 
ENDBRANCH   1  15
BRANCH   8  20
ATOM     20  C   UNL     1      -1.044  11.895  22.515  0.00  0.00    +0.000 A 
ATOM     21  C   UNL     1      -2.278  11.710  23.132  0.00  0.00    +0.000 A 
ATOM     22  C   UNL     1      -2.907  12.768  23.776  0.00  0.00    +0.000 A 
ATOM     23  C   UNL     1      -2.324  14.030  23.752  0.00  0.00    +0.000 A 
ATOM     24  C   UNL     1      -1.105  14.280  23.087  0.00  0.00    +0.000 A 
ATOM     25  C   UNL     1      -0.463  13.169  22.526  0.00  0.00    +0.000 A 
BRANCH  24  26
ATOM     26  C   UNL     1      -0.524  15.750  22.872  0.00  0.00    +0.000 C 
ATOM     27  C   UNL     1      -1.506  16.949  22.647  0.00  0.00    +0.000 C 
ATOM     28  O   UNL     1      -0.788  17.736  23.647  0.00  0.00    +0.000 OA
ATOM     29  C   UNL     1      -0.309  16.500  24.231  0.00  0.00    +0.000 C 
BRANCH  26  30
ATOM     30  C   UNL     1       0.684  15.759  21.913  0.00  0.00    +0.000 C 
BRANCH  30  31
ATOM     31  C   UNL     1       0.390  16.184  20.501  0.00  0.00    +0.000 A 
ATOM     32  N   UNL     1      -0.300  15.506  19.602  0.00  0.00    +0.000 NA
ATOM     33  N   UNL     1      -0.344  16.236  18.434  0.00  0.00    +0.000 NA
ATOM     34  C   UNL     1       0.301  17.360  18.649  0.00  0.00    +0.000 A 
ATOM     35  N   UNL     1       0.764  17.379  19.931  0.00  0.00    +0.000 N 
ATOM     36  C   UNL     1       1.522  18.454  20.511  0.00  0.00    +0.000 C 
ENDBRANCH  30  31
ENDBRANCH  26  30
ENDBRANCH  24  26
ENDBRANCH   8  20
BRANCH   5  37
ATOM     37  C   UNL     1       1.554   9.962  17.891  0.00  0.00    +0.000 C 
ATOM     38  F   UNL     1       2.201  11.145  18.074  0.00  0.00    +0.000 F 
ATOM     39  F   UNL     1       2.260   9.297  16.934  0.00  0.00    +0.000 F 
ATOM     40  F   UNL     1       0.356  10.276  17.328  0.00  0.00    +0.000 F 
ENDBRANCH   5  37
TORSDOF 6
ENDMDL
MODEL 8
REMARK VINA RESULT:      -8.7      3.900     10.235
REMARK  Name = 
REMARK  8 active torsions:
REMARK  status: ('A' for Active; 'I' for Inactive)
REMARK    1  A    between atoms: C_1  and  N_2
REMARK    2  A    between atoms: N_5  and  C_6
REMARK    3  A    between atoms: C_10  and  C_11
REMARK    4  A    between atoms: N_17  and  C_18
REMARK    5  A    between atoms: C_22  and  C_23
REMARK    6  A    between atoms: C_23  and  C_24
REMARK    7  A    between atoms: C_24  and  C_25
REMARK    8  A    between atoms: N_29  and  C_30
REMARK                            x       y       z     vdW  Elec       q    Type
REMARK                         _______ _______ _______ _____ _____    ______ ____
ROOT
ATOM      1  C   UNL     1       1.770   6.978  20.410  0.00  0.00    +0.000 A 
ATOM      2  C   UNL     1       1.136   7.538  21.522  0.00  0.00    +0.000 A 
ATOM      3  C   UNL     1       0.647   8.815  21.418  0.00  0.00    +0.000 A 
ATOM      4  C   UNL     1       0.744   9.585  20.266  0.00  0.00    +0.000 A 
ATOM      5  C   UNL     1       1.385   9.087  19.149  0.00  0.00    +0.000 A 
ATOM      6  C   UNL     1       1.887   7.776  19.249  0.00  0.00    +0.000 A 
ATOM      7  C   UNL     1       0.080  10.895  20.490  0.00  0.00    +0.000 C 
ATOM      8  N   UNL     1      -0.411  10.783  21.854  0.00  0.00    +0.000 N 
ATOM      9  C   UNL     1      -0.051   9.575  22.448  0.00  0.00    +0.000 C 
ATOM     10  O   UNL     1      -0.224   9.142  23.565  0.00  0.00    +0.000 OA
ENDROOT
BRANCH   1  15
ATOM     11  C   UNL     1       2.322   2.249  17.902  0.00  0.00    +0.000 C 
ATOM     12  N   UNL     1       2.532   3.160  19.028  0.00  0.00    +0.000 NA
ATOM     13  C   UNL     1       1.217   3.658  19.493  0.00  0.00    +0.000 C 
ATOM     14  C   UNL     1       1.343   4.553  20.734  0.00  0.00    +0.000 C 
ATOM     15  N   UNL     1       2.232   5.677  20.455  0.00  0.00    +0.000 N 
ATOM     16  C   UNL     1       3.575   5.315  19.989  0.00  0.00    +0.000 C 
ATOM     17  C   UNL     1       3.482   4.318  18.807  0.00  0.00    +0.000 C 
ATOM     18  C   UNL     1       3.729   4.870  17.414  0.00  0.00    +0.000 C 
ATOM     19  C   UNL     1       4.795   4.059  18.091  0.00  0.00    +0.000 C 
ENDBRANCH   1  15
BRANCH   8  20
ATOM     20  C   UNL     1      -1.069  11.850  22.487  0.00  0.00    +0.000 A 
ATOM     21  C   UNL     1      -2.285  11.665  23.139  0.00  0.00    +0.000 A 
ATOM     22  C   UNL     1      -2.911  12.730  23.775  0.00  0.00    +0.000 A 
ATOM     23  C   UNL     1      -2.344  13.998  23.707  0.00  0.00    +0.000 A 
ATOM     24  C   UNL     1      -1.145  14.246  23.006  0.00  0.00    +0.000 A 
ATOM     25  C   UNL     1      -0.504  13.130  22.455  0.00  0.00    +0.000 A 
BRANCH  24  26
ATOM     26  C   UNL     1      -0.588  15.718  22.744  0.00  0.00    +0.000 C 
ATOM     27  C   UNL     1      -1.582  16.926  22.673  0.00  0.00    +0.000 C 
ATOM     28  O   UNL     1      -0.733  17.690  23.583  0.00  0.00    +0.000 OA
ATOM     29  C   UNL     1      -0.189  16.441  24.075  0.00  0.00    +0.000 C 
BRANCH  26  30
ATOM     30  C   UNL     1       0.482  15.740  21.633  0.00  0.00    +0.000 C 
BRANCH  30  31
ATOM     31  C   UNL     1       1.910  15.696  22.104  0.00  0.00    +0.000 A 
ATOM     32  N   UNL     1       2.607  14.614  22.402  0.00  0.00    +0.000 NA
ATOM     33  N   UNL     1       3.872  14.996  22.791  0.00  0.00    +0.000 NA
ATOM     34  C   UNL     1       3.933  16.306  22.702  0.00  0.00    +0.000 A 
ATOM     35  N   UNL     1       2.735  16.785  22.262  0.00  0.00    +0.000 N 
ATOM     36  C   UNL     1       2.437  18.176  22.054  0.00  0.00    +0.000 C 
ENDBRANCH  30  31
ENDBRANCH  26  30
ENDBRANCH  24  26
ENDBRANCH   8  20
BRANCH   5  37
ATOM     37  C   UNL     1       1.554   9.887  17.890  0.00  0.00    +0.000 C 
ATOM     38  F   UNL     1       0.379  10.194  17.277  0.00  0.00    +0.000 F 
ATOM     39  F   UNL     1       2.179  11.077  18.113  0.00  0.00    +0.000 F 
ATOM     40  F   UNL     1       2.302   9.235  16.958  0.00  0.00    +0.000 F 
ENDBRANCH   5  37
TORSDOF 6
ENDMDL
MODEL 9
REMARK VINA RESULT:      -8.7      4.094     10.757
REMARK  Name = 
REMARK  8 active torsions:
REMARK  status: ('A' for Active; 'I' for Inactive)
REMARK    1  A    between atoms: C_1  and  N_2
REMARK    2  A    between atoms: N_5  and  C_6
REMARK    3  A    between atoms: C_10  and  C_11
REMARK    4  A    between atoms: N_17  and  C_18
REMARK    5  A    between atoms: C_22  and  C_23
REMARK    6  A    between atoms: C_23  and  C_24
REMARK    7  A    between atoms: C_24  and  C_25
REMARK    8  A    between atoms: N_29  and  C_30
REMARK                            x       y       z     vdW  Elec       q    Type
REMARK                         _______ _______ _______ _____ _____    ______ ____
ROOT
ATOM      1  C   UNL     1       1.830   7.022  20.412  0.00  0.00    +0.000 A 
ATOM      2  C   UNL     1       1.188   7.574  21.523  0.00  0.00    +0.000 A 
ATOM      3  C   UNL     1       0.686   8.846  21.420  0.00  0.00    +0.000 A 
ATOM      4  C   UNL     1       0.778   9.618  20.269  0.00  0.00    +0.000 A 
ATOM      5  C   UNL     1       1.425   9.129  19.153  0.00  0.00    +0.000 A 
ATOM      6  C   UNL     1       1.940   7.822  19.252  0.00  0.00    +0.000 A 
ATOM      7  C   UNL     1       0.099  10.921  20.494  0.00  0.00    +0.000 C 
ATOM      8  N   UNL     1      -0.393  10.803  21.857  0.00  0.00    +0.000 N 
ATOM      9  C   UNL     1      -0.022   9.597  22.449  0.00  0.00    +0.000 C 
ATOM     10  O   UNL     1      -0.192   9.161  23.565  0.00  0.00    +0.000 OA
ENDROOT
BRANCH   1  15
ATOM     11  C   UNL     1       2.276   2.246  17.972  0.00  0.00    +0.000 C 
ATOM     12  N   UNL     1       2.543   3.182  19.065  0.00  0.00    +0.000 NA
ATOM     13  C   UNL     1       1.253   3.679  19.597  0.00  0.00    +0.000 C 
ATOM     14  C   UNL     1       1.444   4.601  20.810  0.00  0.00    +0.000 C 
ATOM     15  N   UNL     1       2.305   5.725  20.456  0.00  0.00    +0.000 N 
ATOM     16  C   UNL     1       3.622   5.364  19.919  0.00  0.00    +0.000 C 
ATOM     17  C   UNL     1       3.468   4.342  18.766  0.00  0.00    +0.000 C 
ATOM     18  C   UNL     1       3.628   4.867  17.350  0.00  0.00    +0.000 C 
ATOM     19  C   UNL     1       4.739   4.078  17.980  0.00  0.00    +0.000 C 
ENDBRANCH   1  15
BRANCH   8  20
ATOM     20  C   UNL     1      -1.064  11.862  22.490  0.00  0.00    +0.000 A 
ATOM     21  C   UNL     1      -2.308  11.677  23.086  0.00  0.00    +0.000 A 
ATOM     22  C   UNL     1      -2.946  12.733  23.722  0.00  0.00    +0.000 A 
ATOM     23  C   UNL     1      -2.361  13.995  23.712  0.00  0.00    +0.000 A 
ATOM     24  C   UNL     1      -1.130  14.244  23.069  0.00  0.00    +0.000 A 
ATOM     25  C   UNL     1      -0.481  13.134  22.515  0.00  0.00    +0.000 A 
BRANCH  24  26
ATOM     26  C   UNL     1      -0.543  15.714  22.869  0.00  0.00    +0.000 C 
ATOM     27  C   UNL     1       0.960  15.906  22.474  0.00  0.00    +0.000 C 
ATOM     28  O   UNL     1       0.573  16.842  21.420  0.00  0.00    +0.000 OA
ATOM     29  C   UNL     1      -0.741  16.231  21.403  0.00  0.00    +0.000 C 
BRANCH  26  30
ATOM     30  C   UNL     1      -1.013  16.679  23.978  0.00  0.00    +0.000 C 
BRANCH  30  31
ATOM     31  C   UNL     1      -0.236  16.618  25.264  0.00  0.00    +0.000 A 
ATOM     32  N   UNL     1      -0.360  15.711  26.217  0.00  0.00    +0.000 NA
ATOM     33  N   UNL     1       0.529  16.005  27.227  0.00  0.00    +0.000 NA
ATOM     34  C   UNL     1       1.199  17.076  26.862  0.00  0.00    +0.000 A 
ATOM     35  N   UNL     1       0.765  17.484  25.636  0.00  0.00    +0.000 N 
ATOM     36  C   UNL     1       1.271  18.630  24.930  0.00  0.00    +0.000 C 
ENDBRANCH  30  31
ENDBRANCH  26  30
ENDBRANCH  24  26
ENDBRANCH   8  20
BRANCH   5  37
ATOM     37  C   UNL     1       1.589   9.932  17.895  0.00  0.00    +0.000 C 
ATOM     38  F   UNL     1       0.409  10.289  17.320  0.00  0.00    +0.000 F 
ATOM     39  F   UNL     1       2.267  11.094  18.108  0.00  0.00    +0.000 F 
ATOM     40  F   UNL     1       2.282   9.259  16.937  0.00  0.00    +0.000 F 
ENDBRANCH   5  37
TORSDOF 6
ENDMDL
