MODEL 1
REMARK VINA RESULT:      -9.8      0.000      0.000
REMARK  Name = 
REMARK  9 active torsions:
REMARK  status: ('A' for Active; 'I' for Inactive)
REMARK    1  A    between atoms: C_1  and  C_2
REMARK    2  A    between atoms: C_2  and  C_3
REMARK    3  A    between atoms: C_2  and  C_13
REMARK    4  A    between atoms: C_3  and  C_4
REMARK    5  A    between atoms: C_8  and  C_9
REMARK    6  A    between atoms: C_17  and  N_18
REMARK    7  A    between atoms: C_23  and  C_24
REMARK    8  A    between atoms: C_24  and  N_25
REMARK    9  A    between atoms: C_32  and  C_33
REMARK                            x       y       z     vdW  Elec       q    Type
REMARK                         _______ _______ _______ _____ _____    ______ ____
ROOT
ATOM      1  N   UNL     1       1.417   8.115  20.215  0.00  0.00    +0.000 N 
ATOM      2  C   UNL     1       1.431   6.756  20.691  0.00  0.00    +0.000 C 
ATOM      3  C   UNL     1       2.221   6.006  19.704  0.00  0.00    +0.000 A 
ATOM      4  C   UNL     1       2.644   6.853  18.683  0.00  0.00    +0.000 A 
ATOM      5  C   UNL     1       3.348   6.330  17.603  0.00  0.00    +0.000 A 
ATOM      6  C   UNL     1       3.572   4.928  17.562  0.00  0.00    +0.000 A 
ATOM      7  C   UNL     1       3.125   4.107  18.627  0.00  0.00    +0.000 A 
ATOM      8  C   UNL     1       2.466   4.640  19.735  0.00  0.00    +0.000 A 
ATOM      9  C   UNL     1       2.153   8.234  19.024  0.00  0.00    +0.000 C 
ATOM     10  O   UNL     1       2.384   9.222  18.341  0.00  0.00    +0.000 OA
ENDROOT
BRANCH   1  15
ATOM     11  C   UNL     1      -0.621  11.206  20.873  0.00  0.00    +0.000 A 
ATOM     12  C   UNL     1      -0.874  11.077  22.234  0.00  0.00    +0.000 A 
ATOM     13  C   UNL     1      -0.371   9.968  22.950  0.00  0.00    +0.000 A 
ATOM     14  C   UNL     1       0.390   8.965  22.322  0.00  0.00    +0.000 A 
ATOM     15  C   UNL     1       0.656   9.059  20.965  0.00  0.00    +0.000 A 
ATOM     16  C   UNL     1       0.141  10.190  20.281  0.00  0.00    +0.000 A 
BRANCH  11  18
ATOM     17  C   UNL     1      -0.701  13.749  20.508  0.00  0.00    +0.000 C 
ATOM     18  C   UNL     1      -1.080  12.365  19.976  0.00  0.00    +0.000 C 
BRANCH  18  19
ATOM     19  C   UNL     1      -2.598  12.250  19.683  0.00  0.00    +0.000 C 
BRANCH  19  20
ATOM     20  C   UNL     1      -2.977  11.717  18.333  0.00  0.00    +0.000 A 
ATOM     21  N   UNL     1      -2.010  11.432  17.450  0.00  0.00    +0.000 NA
ATOM     22  O   UNL     1      -2.649  11.076  16.282  0.00  0.00    +0.000 OA
ATOM     23  C   UNL     1      -3.988  11.154  16.460  0.00  0.00    +0.000 A 
ATOM     24  C   UNL     1      -4.266  11.534  17.754  0.00  0.00    +0.000 A 
BRANCH  24  25
ATOM     25  C   UNL     1      -5.598  11.733  18.345  0.00  0.00    +0.000 C 
ATOM     26  F   UNL     1      -6.551  10.955  17.765  0.00  0.00    +0.000 F 
ATOM     27  F   UNL     1      -5.610  11.451  19.669  0.00  0.00    +0.000 F 
ATOM     28  F   UNL     1      -6.015  13.018  18.212  0.00  0.00    +0.000 F 
ENDBRANCH  24  25
ENDBRANCH  19  20
ENDBRANCH  18  19
ENDBRANCH  11  18
ENDBRANCH   1  15
BRANCH   8  29
ATOM     29  C   UNL     1       2.048   3.766  20.887  0.00  0.00    +0.000 C 
ATOM     30  F   UNL     1       2.483   4.211  22.103  0.00  0.00    +0.000 F 
ATOM     31  F   UNL     1       0.698   3.657  21.004  0.00  0.00    +0.000 F 
ATOM     32  F   UNL     1       2.529   2.499  20.777  0.00  0.00    +0.000 F 
ENDBRANCH   8  29
BRANCH   6  33
ATOM     33  C   UNL     1       4.323   4.239  16.429  0.00  0.00    +0.000 C 
BRANCH  33  34
ATOM     34  N   UNL     1       5.779   4.213  16.634  0.00  0.00    +0.000 NA
ATOM     35  C   UNL     1       6.511   5.287  15.959  0.00  0.00    +0.000 C 
ATOM     36  C   UNL     1       7.220   6.113  17.021  0.00  0.00    +0.000 C 
ATOM     37  C   UNL     1       7.303   5.210  18.226  0.00  0.00    +0.000 C 
ATOM     38  F   UNL     1       8.497   4.556  18.212  0.00  0.00    +0.000 F 
ATOM     39  C   UNL     1       6.167   4.212  18.055  0.00  0.00    +0.000 C 
ENDBRANCH  33  34
ENDBRANCH   6  33
TORSDOF 8
ENDMDL
MODEL 2
REMARK VINA RESULT:      -9.7      2.228      2.613
REMARK  Name = 
REMARK  9 active torsions:
REMARK  status: ('A' for Active; 'I' for Inactive)
REMARK    1  A    between atoms: C_1  and  C_2
REMARK    2  A    between atoms: C_2  and  C_3
REMARK    3  A    between atoms: C_2  and  C_13
REMARK    4  A    between atoms: C_3  and  C_4
REMARK    5  A    between atoms: C_8  and  C_9
REMARK    6  A    between atoms: C_17  and  N_18
REMARK    7  A    between atoms: C_23  and  C_24
REMARK    8  A    between atoms: C_24  and  N_25
REMARK    9  A    between atoms: C_32  and  C_33
REMARK                            x       y       z     vdW  Elec       q    Type
REMARK                         _______ _______ _______ _____ _____    ______ ____
ROOT
ATOM      1  N   UNL     1       1.449   8.152  20.115  0.00  0.00    +0.000 N 
ATOM      2  C   UNL     1       1.445   6.795  20.597  0.00  0.00    +0.000 C 
ATOM      3  C   UNL     1       2.238   6.032  19.622  0.00  0.00    +0.000 A 
ATOM      4  C   UNL     1       2.680   6.870  18.601  0.00  0.00    +0.000 A 
ATOM      5  C   UNL     1       3.390   6.336  17.531  0.00  0.00    +0.000 A 
ATOM      6  C   UNL     1       3.600   4.931  17.500  0.00  0.00    +0.000 A 
ATOM      7  C   UNL     1       3.134   4.119  18.563  0.00  0.00    +0.000 A 
ATOM      8  C   UNL     1       2.468   4.665  19.662  0.00  0.00    +0.000 A 
ATOM      9  C   UNL     1       2.199   8.258  18.931  0.00  0.00    +0.000 C 
ATOM     10  O   UNL     1       2.447   9.240  18.246  0.00  0.00    +0.000 OA
ENDROOT
BRANCH   1  15
ATOM     11  C   UNL     1      -0.879  11.047  20.697  0.00  0.00    +0.000 A 
ATOM     12  C   UNL     1      -0.892  11.107  22.086  0.00  0.00    +0.000 A 
ATOM     13  C   UNL     1      -0.129  10.193  22.845  0.00  0.00    +0.000 A 
ATOM     14  C   UNL     1       0.658   9.199  22.235  0.00  0.00    +0.000 A 
ATOM     15  C   UNL     1       0.690   9.107  20.853  0.00  0.00    +0.000 A 
ATOM     16  C   UNL     1      -0.083  10.046  20.123  0.00  0.00    +0.000 A 
BRANCH  11  18
ATOM     17  C   UNL     1      -0.755  12.609  18.659  0.00  0.00    +0.000 C 
ATOM     18  C   UNL     1      -1.635  11.987  19.747  0.00  0.00    +0.000 C 
BRANCH  18  19
ATOM     19  C   UNL     1      -2.409  13.061  20.554  0.00  0.00    +0.000 C 
BRANCH  19  20
ATOM     20  C   UNL     1      -3.873  12.808  20.765  0.00  0.00    +0.000 A 
ATOM     21  N   UNL     1      -4.670  12.663  19.698  0.00  0.00    +0.000 NA
ATOM     22  O   UNL     1      -5.954  12.558  20.189  0.00  0.00    +0.000 OA
ATOM     23  C   UNL     1      -5.927  12.647  21.538  0.00  0.00    +0.000 A 
ATOM     24  C   UNL     1      -4.628  12.782  21.973  0.00  0.00    +0.000 A 
BRANCH  24  25
ATOM     25  C   UNL     1      -4.176  12.910  23.366  0.00  0.00    +0.000 C 
ATOM     26  F   UNL     1      -3.395  14.007  23.566  0.00  0.00    +0.000 F 
ATOM     27  F   UNL     1      -5.214  13.002  24.229  0.00  0.00    +0.000 F 
ATOM     28  F   UNL     1      -3.438  11.837  23.751  0.00  0.00    +0.000 F 
ENDBRANCH  24  25
ENDBRANCH  19  20
ENDBRANCH  18  19
ENDBRANCH  11  18
ENDBRANCH   1  15
BRANCH   8  29
ATOM     29  C   UNL     1       2.030   3.800  20.814  0.00  0.00    +0.000 C 
ATOM     30  F   UNL     1       0.674   3.685  20.932  0.00  0.00    +0.000 F 
ATOM     31  F   UNL     1       2.494   2.525  20.723  0.00  0.00    +0.000 F 
ATOM     32  F   UNL     1       2.453   4.281  22.013  0.00  0.00    +0.000 F 
ENDBRANCH   8  29
BRANCH   6  33
ATOM     33  C   UNL     1       4.356   4.229  16.378  0.00  0.00    +0.000 C 
BRANCH  33  34
ATOM     34  N   UNL     1       5.812   4.211  16.587  0.00  0.00    +0.000 NA
ATOM     35  C   UNL     1       6.539   5.297  15.927  0.00  0.00    +0.000 C 
ATOM     36  C   UNL     1       7.239   6.115  17.000  0.00  0.00    +0.000 C 
ATOM     37  C   UNL     1       7.325   5.198  18.194  0.00  0.00    +0.000 C 
ATOM     38  F   UNL     1       8.522   4.552  18.177  0.00  0.00    +0.000 F 
ATOM     39  C   UNL     1       6.195   4.194  18.009  0.00  0.00    +0.000 C 
ENDBRANCH  33  34
ENDBRANCH   6  33
TORSDOF 8
ENDMDL
MODEL 3
REMARK VINA RESULT:      -9.7      1.797      2.074
REMARK  Name = 
REMARK  9 active torsions:
REMARK  status: ('A' for Active; 'I' for Inactive)
REMARK    1  A    between atoms: C_1  and  C_2
REMARK    2  A    between atoms: C_2  and  C_3
REMARK    3  A    between atoms: C_2  and  C_13
REMARK    4  A    between atoms: C_3  and  C_4
REMARK    5  A    between atoms: C_8  and  C_9
REMARK    6  A    between atoms: C_17  and  N_18
REMARK    7  A    between atoms: C_23  and  C_24
REMARK    8  A    between atoms: C_24  and  N_25
REMARK    9  A    between atoms: C_32  and  C_33
REMARK                            x       y       z     vdW  Elec       q    Type
REMARK                         _______ _______ _______ _____ _____    ______ ____
ROOT
ATOM      1  N   UNL     1       1.478   8.017  20.127  0.00  0.00    +0.000 N 
ATOM      2  C   UNL     1       1.501   6.686  20.677  0.00  0.00    +0.000 C 
ATOM      3  C   UNL     1       2.280   5.884  19.722  0.00  0.00    +0.000 A 
ATOM      4  C   UNL     1       2.687   6.674  18.651  0.00  0.00    +0.000 A 
ATOM      5  C   UNL     1       3.378   6.093  17.592  0.00  0.00    +0.000 A 
ATOM      6  C   UNL     1       3.604   4.691  17.626  0.00  0.00    +0.000 A 
ATOM      7  C   UNL     1       3.174   3.929  18.740  0.00  0.00    +0.000 A 
ATOM      8  C   UNL     1       2.528   4.523  19.826  0.00  0.00    +0.000 A 
ATOM      9  C   UNL     1       2.197   8.071  18.921  0.00  0.00    +0.000 C 
ATOM     10  O   UNL     1       2.416   9.020  18.182  0.00  0.00    +0.000 OA
ENDROOT
BRANCH   1  15
ATOM     11  C   UNL     1      -0.770  10.992  20.617  0.00  0.00    +0.000 A 
ATOM     12  C   UNL     1      -0.832  11.056  22.005  0.00  0.00    +0.000 A 
ATOM     13  C   UNL     1      -0.129  10.119  22.793  0.00  0.00    +0.000 A 
ATOM     14  C   UNL     1       0.645   9.097  22.215  0.00  0.00    +0.000 A 
ATOM     15  C   UNL     1       0.724   9.000  20.834  0.00  0.00    +0.000 A 
ATOM     16  C   UNL     1       0.012   9.963  20.075  0.00  0.00    +0.000 A 
BRANCH  11  18
ATOM     17  C   UNL     1      -0.706  13.271  19.430  0.00  0.00    +0.000 C 
ATOM     18  C   UNL     1      -1.458  11.954  19.637  0.00  0.00    +0.000 C 
BRANCH  18  19
ATOM     19  C   UNL     1      -2.933  12.185  20.056  0.00  0.00    +0.000 C 
BRANCH  19  20
ATOM     20  C   UNL     1      -3.955  12.104  18.961  0.00  0.00    +0.000 A 
ATOM     21  N   UNL     1      -5.083  12.818  19.068  0.00  0.00    +0.000 NA
ATOM     22  O   UNL     1      -5.868  12.462  17.992  0.00  0.00    +0.000 OA
ATOM     23  C   UNL     1      -5.218  11.536  17.250  0.00  0.00    +0.000 A 
ATOM     24  C   UNL     1      -3.982  11.280  17.799  0.00  0.00    +0.000 A 
BRANCH  24  25
ATOM     25  C   UNL     1      -2.973  10.337  17.292  0.00  0.00    +0.000 C 
ATOM     26  F   UNL     1      -1.806  10.949  16.955  0.00  0.00    +0.000 F 
ATOM     27  F   UNL     1      -2.671   9.383  18.204  0.00  0.00    +0.000 F 
ATOM     28  F   UNL     1      -3.407   9.693  16.178  0.00  0.00    +0.000 F 
ENDBRANCH  24  25
ENDBRANCH  19  20
ENDBRANCH  18  19
ENDBRANCH  11  18
ENDBRANCH   1  15
BRANCH   8  29
ATOM     29  C   UNL     1       2.128   3.713  21.030  0.00  0.00    +0.000 C 
ATOM     30  F   UNL     1       2.484   4.282  22.220  0.00  0.00    +0.000 F 
ATOM     31  F   UNL     1       0.786   3.515  21.111  0.00  0.00    +0.000 F 
ATOM     32  F   UNL     1       2.701   2.479  21.039  0.00  0.00    +0.000 F 
ENDBRANCH   8  29
BRANCH   6  33
ATOM     33  C   UNL     1       4.342   3.942  16.522  0.00  0.00    +0.000 C 
BRANCH  33  34
ATOM     34  N   UNL     1       5.192   4.815  15.701  0.00  0.00    +0.000 NA
ATOM     35  C   UNL     1       6.393   5.311  16.375  0.00  0.00    +0.000 C 
ATOM     36  C   UNL     1       7.606   4.812  15.604  0.00  0.00    +0.000 C 
ATOM     37  C   UNL     1       7.082   4.476  14.231  0.00  0.00    +0.000 C 
ATOM     38  F   UNL     1       7.247   5.553  13.415  0.00  0.00    +0.000 F 
ATOM     39  C   UNL     1       5.598   4.200  14.425  0.00  0.00    +0.000 C 
ENDBRANCH  33  34
ENDBRANCH   6  33
TORSDOF 8
ENDMDL
MODEL 4
REMARK VINA RESULT:      -9.7      1.576      1.836
REMARK  Name = 
REMARK  9 active torsions:
REMARK  status: ('A' for Active; 'I' for Inactive)
REMARK    1  A    between atoms: C_1  and  C_2
REMARK    2  A    between atoms: C_2  and  C_3
REMARK    3  A    between atoms: C_2  and  C_13
REMARK    4  A    between atoms: C_3  and  C_4
REMARK    5  A    between atoms: C_8  and  C_9
REMARK    6  A    between atoms: C_17  and  N_18
REMARK    7  A    between atoms: C_23  and  C_24
REMARK    8  A    between atoms: C_24  and  N_25
REMARK    9  A    between atoms: C_32  and  C_33
REMARK                            x       y       z     vdW  Elec       q    Type
REMARK                         _______ _______ _______ _____ _____    ______ ____
ROOT
ATOM      1  N   UNL     1       1.346   8.355  19.994  0.00  0.00    +0.000 N 
ATOM      2  C   UNL     1       1.362   7.013  20.517  0.00  0.00    +0.000 C 
ATOM      3  C   UNL     1       2.221   6.248  19.601  0.00  0.00    +0.000 A 
ATOM      4  C   UNL     1       2.682   7.069  18.576  0.00  0.00    +0.000 A 
ATOM      5  C   UNL     1       3.455   6.527  17.555  0.00  0.00    +0.000 A 
ATOM      6  C   UNL     1       3.710   5.129  17.576  0.00  0.00    +0.000 A 
ATOM      7  C   UNL     1       3.222   4.334  18.643  0.00  0.00    +0.000 A 
ATOM      8  C   UNL     1       2.492   4.890  19.694  0.00  0.00    +0.000 A 
ATOM      9  C   UNL     1       2.145   8.450  18.841  0.00  0.00    +0.000 C 
ATOM     10  O   UNL     1       2.392   9.419  18.138  0.00  0.00    +0.000 OA
ENDROOT
BRANCH   1  15
ATOM     11  C   UNL     1      -1.256  11.038  20.400  0.00  0.00    +0.000 A 
ATOM     12  C   UNL     1      -1.201  11.262  21.771  0.00  0.00    +0.000 A 
ATOM     13  C   UNL     1      -0.300  10.531  22.576  0.00  0.00    +0.000 A 
ATOM     14  C   UNL     1       0.559   9.560  22.031  0.00  0.00    +0.000 A 
ATOM     15  C   UNL     1       0.526   9.306  20.669  0.00  0.00    +0.000 A 
ATOM     16  C   UNL     1      -0.386  10.065  19.891  0.00  0.00    +0.000 A 
BRANCH  11  18
ATOM     17  C   UNL     1      -1.417  12.368  18.206  0.00  0.00    +0.000 C 
ATOM     18  C   UNL     1      -2.164  11.772  19.402  0.00  0.00    +0.000 C 
BRANCH  18  19
ATOM     19  C   UNL     1      -3.026  12.832  20.136  0.00  0.00    +0.000 C 
BRANCH  19  20
ATOM     20  C   UNL     1      -4.435  12.434  20.462  0.00  0.00    +0.000 A 
ATOM     21  N   UNL     1      -4.874  12.560  21.721  0.00  0.00    +0.000 NA
ATOM     22  O   UNL     1      -6.142  12.021  21.743  0.00  0.00    +0.000 OA
ATOM     23  C   UNL     1      -6.458  11.568  20.508  0.00  0.00    +0.000 A 
ATOM     24  C   UNL     1      -5.423  11.822  19.637  0.00  0.00    +0.000 A 
BRANCH  24  25
ATOM     25  C   UNL     1      -5.374  11.486  18.206  0.00  0.00    +0.000 C 
ATOM     26  F   UNL     1      -4.545  10.439  17.941  0.00  0.00    +0.000 F 
ATOM     27  F   UNL     1      -6.594  11.156  17.722  0.00  0.00    +0.000 F 
ATOM     28  F   UNL     1      -4.925  12.530  17.463  0.00  0.00    +0.000 F 
ENDBRANCH  24  25
ENDBRANCH  19  20
ENDBRANCH  18  19
ENDBRANCH  11  18
ENDBRANCH   1  15
BRANCH   8  29
ATOM     29  C   UNL     1       2.029   4.046  20.852  0.00  0.00    +0.000 C 
ATOM     30  F   UNL     1       2.397   4.536  22.072  0.00  0.00    +0.000 F 
ATOM     31  F   UNL     1       0.677   3.921  20.906  0.00  0.00    +0.000 F 
ATOM     32  F   UNL     1       2.533   2.784  20.806  0.00  0.00    +0.000 F 
ENDBRANCH   8  29
BRANCH   6  33
ATOM     33  C   UNL     1       4.537   4.419  16.510  0.00  0.00    +0.000 C 
BRANCH  33  34
ATOM     34  N   UNL     1       5.977   4.419  16.803  0.00  0.00    +0.000 NA
ATOM     35  C   UNL     1       6.737   5.482  16.142  0.00  0.00    +0.000 C 
ATOM     36  C   UNL     1       7.371   6.347  17.220  0.00  0.00    +0.000 C 
ATOM     37  C   UNL     1       7.391   5.480  18.454  0.00  0.00    +0.000 C 
ATOM     38  F   UNL     1       8.590   4.842  18.532  0.00  0.00    +0.000 F 
ATOM     39  C   UNL     1       6.278   4.462  18.244  0.00  0.00    +0.000 C 
ENDBRANCH  33  34
ENDBRANCH   6  33
TORSDOF 8
ENDMDL
MODEL 5
REMARK VINA RESULT:      -9.7      1.035      1.436
REMARK  Name = 
REMARK  9 active torsions:
REMARK  status: ('A' for Active; 'I' for Inactive)
REMARK    1  A    between atoms: C_1  and  C_2
REMARK    2  A    between atoms: C_2  and  C_3
REMARK    3  A    between atoms: C_2  and  C_13
REMARK    4  A    between atoms: C_3  and  C_4
REMARK    5  A    between atoms: C_8  and  C_9
REMARK    6  A    between atoms: C_17  and  N_18
REMARK    7  A    between atoms: C_23  and  C_24
REMARK    8  A    between atoms: C_24  and  N_25
REMARK    9  A    between atoms: C_32  and  C_33
REMARK                            x       y       z     vdW  Elec       q    Type
REMARK                         _______ _______ _______ _____ _____    ______ ____
ROOT
ATOM      1  N   UNL     1       1.482   8.005  20.208  0.00  0.00    +0.000 N 
ATOM      2  C   UNL     1       1.517   6.678  20.765  0.00  0.00    +0.000 C 
ATOM      3  C   UNL     1       2.284   5.871  19.804  0.00  0.00    +0.000 A 
ATOM      4  C   UNL     1       2.674   6.656  18.722  0.00  0.00    +0.000 A 
ATOM      5  C   UNL     1       3.352   6.071  17.657  0.00  0.00    +0.000 A 
ATOM      6  C   UNL     1       3.583   4.670  17.696  0.00  0.00    +0.000 A 
ATOM      7  C   UNL     1       3.170   3.914  18.821  0.00  0.00    +0.000 A 
ATOM      8  C   UNL     1       2.538   4.512  19.912  0.00  0.00    +0.000 A 
ATOM      9  C   UNL     1       2.185   8.054  18.992  0.00  0.00    +0.000 C 
ATOM     10  O   UNL     1       2.391   8.999  18.244  0.00  0.00    +0.000 OA
ENDROOT
BRANCH   1  15
ATOM     11  C   UNL     1      -0.577  11.108  20.728  0.00  0.00    +0.000 A 
ATOM     12  C   UNL     1      -0.774  11.073  22.104  0.00  0.00    +0.000 A 
ATOM     13  C   UNL     1      -0.225  10.025  22.875  0.00  0.00    +0.000 A 
ATOM     14  C   UNL     1       0.526   8.990  22.290  0.00  0.00    +0.000 A 
ATOM     15  C   UNL     1       0.736   8.990  20.920  0.00  0.00    +0.000 A 
ATOM     16  C   UNL     1       0.177  10.062  20.179  0.00  0.00    +0.000 A 
BRANCH  11  18
ATOM     17  C   UNL     1      -0.745  13.620  20.208  0.00  0.00    +0.000 C 
ATOM     18  C   UNL     1      -1.090  12.194  19.771  0.00  0.00    +0.000 C 
BRANCH  18  19
ATOM     19  C   UNL     1      -2.608  12.014  19.516  0.00  0.00    +0.000 C 
BRANCH  19  20
ATOM     20  C   UNL     1      -3.003  11.548  18.146  0.00  0.00    +0.000 A 
ATOM     21  N   UNL     1      -2.062  11.435  17.199  0.00  0.00    +0.000 NA
ATOM     22  O   UNL     1      -2.723  11.103  16.036  0.00  0.00    +0.000 OA
ATOM     23  C   UNL     1      -4.051  11.026  16.282  0.00  0.00    +0.000 A 
ATOM     24  C   UNL     1      -4.296  11.274  17.613  0.00  0.00    +0.000 A 
BRANCH  24  25
ATOM     25  C   UNL     1      -5.608  11.286  18.280  0.00  0.00    +0.000 C 
ATOM     26  F   UNL     1      -6.607  11.715  17.463  0.00  0.00    +0.000 F 
ATOM     27  F   UNL     1      -5.960  10.057  18.723  0.00  0.00    +0.000 F 
ATOM     28  F   UNL     1      -5.611  12.109  19.360  0.00  0.00    +0.000 F 
ENDBRANCH  24  25
ENDBRANCH  19  20
ENDBRANCH  18  19
ENDBRANCH  11  18
ENDBRANCH   1  15
BRANCH   8  29
ATOM     29  C   UNL     1       2.157   3.708  21.127  0.00  0.00    +0.000 C 
ATOM     30  F   UNL     1       2.723   2.465  21.166  0.00  0.00    +0.000 F 
ATOM     31  F   UNL     1       2.521   4.307  22.292  0.00  0.00    +0.000 F 
ATOM     32  F   UNL     1       0.817   3.492  21.206  0.00  0.00    +0.000 F 
ENDBRANCH   8  29
BRANCH   6  33
ATOM     33  C   UNL     1       4.306   3.916  16.587  0.00  0.00    +0.000 C 
BRANCH  33  34
ATOM     34  N   UNL     1       5.160   4.783  15.762  0.00  0.00    +0.000 NA
ATOM     35  C   UNL     1       6.356   5.288  16.438  0.00  0.00    +0.000 C 
ATOM     36  C   UNL     1       7.574   4.784  15.680  0.00  0.00    +0.000 C 
ATOM     37  C   UNL     1       7.059   4.434  14.306  0.00  0.00    +0.000 C 
ATOM     38  F   UNL     1       7.226   5.503  13.481  0.00  0.00    +0.000 F 
ATOM     39  C   UNL     1       5.574   4.156  14.495  0.00  0.00    +0.000 C 
ENDBRANCH  33  34
ENDBRANCH   6  33
TORSDOF 8
ENDMDL
MODEL 6
REMARK VINA RESULT:      -9.5      1.593      1.924
REMARK  Name = 
REMARK  9 active torsions:
REMARK  status: ('A' for Active; 'I' for Inactive)
REMARK    1  A    between atoms: C_1  and  C_2
REMARK    2  A    between atoms: C_2  and  C_3
REMARK    3  A    between atoms: C_2  and  C_13
REMARK    4  A    between atoms: C_3  and  C_4
REMARK    5  A    between atoms: C_8  and  C_9
REMARK    6  A    between atoms: C_17  and  N_18
REMARK    7  A    between atoms: C_23  and  C_24
REMARK    8  A    between atoms: C_24  and  N_25
REMARK    9  A    between atoms: C_32  and  C_33
REMARK                            x       y       z     vdW  Elec       q    Type
REMARK                         _______ _______ _______ _____ _____    ______ ____
ROOT
ATOM      1  N   UNL     1       1.487   8.145  20.168  0.00  0.00    +0.000 N 
ATOM      2  C   UNL     1       1.473   6.790  20.656  0.00  0.00    +0.000 C 
ATOM      3  C   UNL     1       2.240   6.013  19.672  0.00  0.00    +0.000 A 
ATOM      4  C   UNL     1       2.677   6.840  18.641  0.00  0.00    +0.000 A 
ATOM      5  C   UNL     1       3.363   6.291  17.563  0.00  0.00    +0.000 A 
ATOM      6  C   UNL     1       3.555   4.884  17.534  0.00  0.00    +0.000 A 
ATOM      7  C   UNL     1       3.095   4.083  18.609  0.00  0.00    +0.000 A 
ATOM      8  C   UNL     1       2.454   4.642  19.715  0.00  0.00    +0.000 A 
ATOM      9  C   UNL     1       2.220   8.236  18.972  0.00  0.00    +0.000 C 
ATOM     10  O   UNL     1       2.469   9.211  18.278  0.00  0.00    +0.000 OA
ENDROOT
BRANCH   1  15
ATOM     11  C   UNL     1       0.011  11.498  21.013  0.00  0.00    +0.000 A 
ATOM     12  C   UNL     1      -0.635  11.213  22.212  0.00  0.00    +0.000 A 
ATOM     13  C   UNL     1      -0.586   9.911  22.755  0.00  0.00    +0.000 A 
ATOM     14  C   UNL     1       0.103   8.866  22.112  0.00  0.00    +0.000 A 
ATOM     15  C   UNL     1       0.752   9.113  20.913  0.00  0.00    +0.000 A 
ATOM     16  C   UNL     1       0.688  10.435  20.402  0.00  0.00    +0.000 A 
BRANCH  11  18
ATOM     17  C   UNL     1      -0.409  14.027  21.201  0.00  0.00    +0.000 C 
ATOM     18  C   UNL     1       0.064  12.868  20.320  0.00  0.00    +0.000 C 
BRANCH  18  19
ATOM     19  C   UNL     1      -0.693  12.817  18.968  0.00  0.00    +0.000 C 
BRANCH  19  20
ATOM     20  C   UNL     1      -2.134  12.405  19.027  0.00  0.00    +0.000 A 
ATOM     21  N   UNL     1      -2.941  12.981  19.928  0.00  0.00    +0.000 NA
ATOM     22  O   UNL     1      -4.154  12.335  19.828  0.00  0.00    +0.000 OA
ATOM     23  C   UNL     1      -4.073  11.373  18.880  0.00  0.00    +0.000 A 
ATOM     24  C   UNL     1      -2.819  11.380  18.312  0.00  0.00    +0.000 A 
BRANCH  24  25
ATOM     25  C   UNL     1      -2.330  10.490  17.248  0.00  0.00    +0.000 C 
ATOM     26  F   UNL     1      -3.183   9.462  16.990  0.00  0.00    +0.000 F 
ATOM     27  F   UNL     1      -2.144  11.152  16.082  0.00  0.00    +0.000 F 
ATOM     28  F   UNL     1      -1.138   9.929  17.576  0.00  0.00    +0.000 F 
ENDBRANCH  24  25
ENDBRANCH  19  20
ENDBRANCH  18  19
ENDBRANCH  11  18
ENDBRANCH   1  15
BRANCH   8  29
ATOM     29  C   UNL     1       2.022   3.789  20.878  0.00  0.00    +0.000 C 
ATOM     30  F   UNL     1       2.474   2.501  20.815  0.00  0.00    +0.000 F 
ATOM     31  F   UNL     1       2.460   4.266  22.074  0.00  0.00    +0.000 F 
ATOM     32  F   UNL     1       0.670   3.689  20.974  0.00  0.00    +0.000 F 
ENDBRANCH   8  29
BRANCH   6  33
ATOM     33  C   UNL     1       4.284   4.167  16.404  0.00  0.00    +0.000 C 
BRANCH  33  34
ATOM     34  N   UNL     1       5.742   4.137  16.586  0.00  0.00    +0.000 NA
ATOM     35  C   UNL     1       6.468   5.205  15.894  0.00  0.00    +0.000 C 
ATOM     36  C   UNL     1       7.196   6.034  16.940  0.00  0.00    +0.000 C 
ATOM     37  C   UNL     1       7.295   5.136  18.148  0.00  0.00    +0.000 C 
ATOM     38  F   UNL     1       8.485   4.478  18.120  0.00  0.00    +0.000 F 
ATOM     39  C   UNL     1       6.152   4.141  18.001  0.00  0.00    +0.000 C 
ENDBRANCH  33  34
ENDBRANCH   6  33
TORSDOF 8
ENDMDL
MODEL 7
REMARK VINA RESULT:      -9.5      2.521      3.453
REMARK  Name = 
REMARK  9 active torsions:
REMARK  status: ('A' for Active; 'I' for Inactive)
REMARK    1  A    between atoms: C_1  and  C_2
REMARK    2  A    between atoms: C_2  and  C_3
REMARK    3  A    between atoms: C_2  and  C_13
REMARK    4  A    between atoms: C_3  and  C_4
REMARK    5  A    between atoms: C_8  and  C_9
REMARK    6  A    between atoms: C_17  and  N_18
REMARK    7  A    between atoms: C_23  and  C_24
REMARK    8  A    between atoms: C_24  and  N_25
REMARK    9  A    between atoms: C_32  and  C_33
REMARK                            x       y       z     vdW  Elec       q    Type
REMARK                         _______ _______ _______ _____ _____    ______ ____
ROOT
ATOM      1  N   UNL     1       1.454   8.116  20.259  0.00  0.00    +0.000 N 
ATOM      2  C   UNL     1       1.473   6.759  20.740  0.00  0.00    +0.000 C 
ATOM      3  C   UNL     1       2.234   6.000  19.738  0.00  0.00    +0.000 A 
ATOM      4  C   UNL     1       2.637   6.840  18.703  0.00  0.00    +0.000 A 
ATOM      5  C   UNL     1       3.312   6.309  17.609  0.00  0.00    +0.000 A 
ATOM      6  C   UNL     1       3.527   4.905  17.569  0.00  0.00    +0.000 A 
ATOM      7  C   UNL     1       3.102   4.091  18.648  0.00  0.00    +0.000 A 
ATOM      8  C   UNL     1       2.472   4.633  19.769  0.00  0.00    +0.000 A 
ATOM      9  C   UNL     1       2.162   8.226  19.050  0.00  0.00    +0.000 C 
ATOM     10  O   UNL     1       2.382   9.209  18.357  0.00  0.00    +0.000 OA
ENDROOT
BRANCH   1  15
ATOM     11  C   UNL     1      -0.381  11.313  21.001  0.00  0.00    +0.000 A 
ATOM     12  C   UNL     1      -0.739  11.116  22.330  0.00  0.00    +0.000 A 
ATOM     13  C   UNL     1      -0.374   9.925  22.996  0.00  0.00    +0.000 A 
ATOM     14  C   UNL     1       0.349   8.907  22.350  0.00  0.00    +0.000 A 
ATOM     15  C   UNL     1       0.717   9.068  21.023  0.00  0.00    +0.000 A 
ATOM     16  C   UNL     1       0.340  10.279  20.389  0.00  0.00    +0.000 A 
BRANCH  11  18
ATOM     17  C   UNL     1      -2.178  12.885  20.048  0.00  0.00    +0.000 C 
ATOM     18  C   UNL     1      -0.686  12.562  20.160  0.00  0.00    +0.000 C 
BRANCH  18  19
ATOM     19  C   UNL     1      -0.007  12.455  18.771  0.00  0.00    +0.000 C 
BRANCH  19  20
ATOM     20  C   UNL     1       1.256  13.243  18.585  0.00  0.00    +0.000 A 
ATOM     21  N   UNL     1       2.399  12.593  18.327  0.00  0.00    +0.000 NA
ATOM     22  O   UNL     1       3.392  13.549  18.319  0.00  0.00    +0.000 OA
ATOM     23  C   UNL     1       2.850  14.761  18.577  0.00  0.00    +0.000 A 
ATOM     24  C   UNL     1       1.488  14.641  18.732  0.00  0.00    +0.000 A 
BRANCH  24  25
ATOM     25  C   UNL     1       0.536  15.725  19.024  0.00  0.00    +0.000 C 
ATOM     26  F   UNL     1       1.066  16.960  18.810  0.00  0.00    +0.000 F 
ATOM     27  F   UNL     1      -0.579  15.637  18.263  0.00  0.00    +0.000 F 
ATOM     28  F   UNL     1       0.131  15.698  20.320  0.00  0.00    +0.000 F 
ENDBRANCH  24  25
ENDBRANCH  19  20
ENDBRANCH  18  19
ENDBRANCH  11  18
ENDBRANCH   1  15
BRANCH   8  29
ATOM     29  C   UNL     1       2.078   3.767  20.936  0.00  0.00    +0.000 C 
ATOM     30  F   UNL     1       2.596   2.504  20.884  0.00  0.00    +0.000 F 
ATOM     31  F   UNL     1       2.482   4.274  22.131  0.00  0.00    +0.000 F 
ATOM     32  F   UNL     1       0.732   3.597  21.023  0.00  0.00    +0.000 F 
ENDBRANCH   8  29
BRANCH   6  33
ATOM     33  C   UNL     1       4.246   4.207  16.421  0.00  0.00    +0.000 C 
BRANCH  33  34
ATOM     34  N   UNL     1       5.704   4.150  16.604  0.00  0.00    +0.000 NA
ATOM     35  C   UNL     1       6.452   5.185  15.887  0.00  0.00    +0.000 C 
ATOM     36  C   UNL     1       7.198   6.023  16.912  0.00  0.00    +0.000 C 
ATOM     37  C   UNL     1       7.279   5.153  18.141  0.00  0.00    +0.000 C 
ATOM     38  F   UNL     1       8.455   4.469  18.128  0.00  0.00    +0.000 F 
ATOM     39  C   UNL     1       6.115   4.179  18.018  0.00  0.00    +0.000 C 
ENDBRANCH  33  34
ENDBRANCH   6  33
TORSDOF 8
ENDMDL
MODEL 8
REMARK VINA RESULT:      -9.5      2.868      3.824
REMARK  Name = 
REMARK  9 active torsions:
REMARK  status: ('A' for Active; 'I' for Inactive)
REMARK    1  A    between atoms: C_1  and  C_2
REMARK    2  A    between atoms: C_2  and  C_3
REMARK    3  A    between atoms: C_2  and  C_13
REMARK    4  A    between atoms: C_3  and  C_4
REMARK    5  A    between atoms: C_8  and  C_9
REMARK    6  A    between atoms: C_17  and  N_18
REMARK    7  A    between atoms: C_23  and  C_24
REMARK    8  A    between atoms: C_24  and  N_25
REMARK    9  A    between atoms: C_32  and  C_33
REMARK                            x       y       z     vdW  Elec       q    Type
REMARK                         _______ _______ _______ _____ _____    ______ ____
ROOT
ATOM      1  N   UNL     1       1.461   8.218  20.163  0.00  0.00    +0.000 N 
ATOM      2  C   UNL     1       1.466   6.867  20.662  0.00  0.00    +0.000 C 
ATOM      3  C   UNL     1       2.243   6.093  19.683  0.00  0.00    +0.000 A 
ATOM      4  C   UNL     1       2.667   6.918  18.645  0.00  0.00    +0.000 A 
ATOM      5  C   UNL     1       3.360   6.371  17.570  0.00  0.00    +0.000 A 
ATOM      6  C   UNL     1       3.571   4.966  17.552  0.00  0.00    +0.000 A 
ATOM      7  C   UNL     1       3.123   4.167  18.633  0.00  0.00    +0.000 A 
ATOM      8  C   UNL     1       2.476   4.726  19.736  0.00  0.00    +0.000 A 
ATOM      9  C   UNL     1       2.191   8.310  18.965  0.00  0.00    +0.000 C 
ATOM     10  O   UNL     1       2.426   9.284  18.265  0.00  0.00    +0.000 OA
ENDROOT
BRANCH   1  15
ATOM     11  C   UNL     1      -0.647  11.274  20.761  0.00  0.00    +0.000 A 
ATOM     12  C   UNL     1      -0.809  11.223  22.141  0.00  0.00    +0.000 A 
ATOM     13  C   UNL     1      -0.221  10.180  22.889  0.00  0.00    +0.000 A 
ATOM     14  C   UNL     1       0.536   9.165  22.276  0.00  0.00    +0.000 A 
ATOM     15  C   UNL     1       0.713   9.181  20.902  0.00  0.00    +0.000 A 
ATOM     16  C   UNL     1       0.114  10.248  20.184  0.00  0.00    +0.000 A 
BRANCH  11  18
ATOM     17  C   UNL     1      -1.063  12.026  18.338  0.00  0.00    +0.000 C 
ATOM     18  C   UNL     1      -1.205  12.357  19.826  0.00  0.00    +0.000 C 
BRANCH  18  19
ATOM     19  C   UNL     1      -0.594  13.738  20.176  0.00  0.00    +0.000 C 
BRANCH  19  20
ATOM     20  C   UNL     1       0.828  13.734  20.655  0.00  0.00    +0.000 A 
ATOM     21  N   UNL     1       1.082  13.988  21.945  0.00  0.00    +0.000 NA
ATOM     22  O   UNL     1       2.455  14.029  22.066  0.00  0.00    +0.000 OA
ATOM     23  C   UNL     1       3.019  13.809  20.857  0.00  0.00    +0.000 A 
ATOM     24  C   UNL     1       2.038  13.588  19.916  0.00  0.00    +0.000 A 
BRANCH  24  25
ATOM     25  C   UNL     1       2.237  13.313  18.485  0.00  0.00    +0.000 C 
ATOM     26  F   UNL     1       3.487  13.638  18.057  0.00  0.00    +0.000 F 
ATOM     27  F   UNL     1       2.047  12.006  18.191  0.00  0.00    +0.000 F 
ATOM     28  F   UNL     1       1.370  14.020  17.716  0.00  0.00    +0.000 F 
ENDBRANCH  24  25
ENDBRANCH  19  20
ENDBRANCH  18  19
ENDBRANCH  11  18
ENDBRANCH   1  15
BRANCH   8  29
ATOM     29  C   UNL     1       2.057   3.875  20.906  0.00  0.00    +0.000 C 
ATOM     30  F   UNL     1       2.512   2.589  20.842  0.00  0.00    +0.000 F 
ATOM     31  F   UNL     1       2.505   4.358  22.096  0.00  0.00    +0.000 F 
ATOM     32  F   UNL     1       0.706   3.772  21.014  0.00  0.00    +0.000 F 
ENDBRANCH   8  29
BRANCH   6  33
ATOM     33  C   UNL     1       4.308   4.251  16.426  0.00  0.00    +0.000 C 
BRANCH  33  34
ATOM     34  N   UNL     1       5.765   4.218  16.621  0.00  0.00    +0.000 NA
ATOM     35  C   UNL     1       6.498   5.293  15.949  0.00  0.00    +0.000 C 
ATOM     36  C   UNL     1       7.217   6.109  17.011  0.00  0.00    +0.000 C 
ATOM     37  C   UNL     1       7.304   5.197  18.210  0.00  0.00    +0.000 C 
ATOM     38  F   UNL     1       8.495   4.538  18.184  0.00  0.00    +0.000 F 
ATOM     39  C   UNL     1       6.162   4.205  18.040  0.00  0.00    +0.000 C 
ENDBRANCH  33  34
ENDBRANCH   6  33
TORSDOF 8
ENDMDL
MODEL 9
REMARK VINA RESULT:      -9.5      3.718      9.577
REMARK  Name = 
REMARK  9 active torsions:
REMARK  status: ('A' for Active; 'I' for Inactive)
REMARK    1  A    between atoms: C_1  and  C_2
REMARK    2  A    between atoms: C_2  and  C_3
REMARK    3  A    between atoms: C_2  and  C_13
REMARK    4  A    between atoms: C_3  and  C_4
REMARK    5  A    between atoms: C_8  and  C_9
REMARK    6  A    between atoms: C_17  and  N_18
REMARK    7  A    between atoms: C_23  and  C_24
REMARK    8  A    between atoms: C_24  and  N_25
REMARK    9  A    between atoms: C_32  and  C_33
REMARK                            x       y       z     vdW  Elec       q    Type
REMARK                         _______ _______ _______ _____ _____    ______ ____
ROOT
ATOM      1  N   UNL     1       1.698   7.084  19.997  0.00  0.00    +0.000 N 
ATOM      2  C   UNL     1       1.075   7.759  21.106  0.00  0.00    +0.000 C 
ATOM      3  C   UNL     1       0.919   9.156  20.675  0.00  0.00    +0.000 A 
ATOM      4  C   UNL     1       1.433   9.323  19.392  0.00  0.00    +0.000 A 
ATOM      5  C   UNL     1       1.452  10.590  18.819  0.00  0.00    +0.000 A 
ATOM      6  C   UNL     1       0.982  11.685  19.593  0.00  0.00    +0.000 A 
ATOM      7  C   UNL     1       0.465  11.465  20.893  0.00  0.00    +0.000 A 
ATOM      8  C   UNL     1       0.398  10.185  21.446  0.00  0.00    +0.000 A 
ATOM      9  C   UNL     1       1.912   7.973  18.929  0.00  0.00    +0.000 C 
ATOM     10  O   UNL     1       2.393   7.768  17.824  0.00  0.00    +0.000 OA
ENDROOT
BRANCH   1  15
ATOM     11  C   UNL     1       2.755   3.608  19.030  0.00  0.00    +0.000 A 
ATOM     12  C   UNL     1       2.707   2.960  20.260  0.00  0.00    +0.000 A 
ATOM     13  C   UNL     1       2.321   3.665  21.421  0.00  0.00    +0.000 A 
ATOM     14  C   UNL     1       1.981   5.029  21.380  0.00  0.00    +0.000 A 
ATOM     15  C   UNL     1       2.024   5.707  20.172  0.00  0.00    +0.000 A 
ATOM     16  C   UNL     1       2.408   4.965  19.026  0.00  0.00    +0.000 A 
BRANCH  11  18
ATOM     17  C   UNL     1       3.862   1.628  17.822  0.00  0.00    +0.000 C 
ATOM     18  C   UNL     1       3.130   2.965  17.687  0.00  0.00    +0.000 C 
BRANCH  18  19
ATOM     19  C   UNL     1       3.916   3.973  16.809  0.00  0.00    +0.000 C 
BRANCH  19  20
ATOM     20  C   UNL     1       5.374   4.135  17.125  0.00  0.00    +0.000 A 
ATOM     21  N   UNL     1       5.770   4.116  18.404  0.00  0.00    +0.000 NA
ATOM     22  O   UNL     1       7.119   4.397  18.393  0.00  0.00    +0.000 OA
ATOM     23  C   UNL     1       7.528   4.590  17.118  0.00  0.00    +0.000 A 
ATOM     24  C   UNL     1       6.469   4.413  16.256  0.00  0.00    +0.000 A 
BRANCH  24  25
ATOM     25  C   UNL     1       6.498   4.534  14.791  0.00  0.00    +0.000 C 
ATOM     26  F   UNL     1       6.401   3.331  14.163  0.00  0.00    +0.000 F 
ATOM     27  F   UNL     1       5.487   5.305  14.327  0.00  0.00    +0.000 F 
ATOM     28  F   UNL     1       7.654   5.102  14.360  0.00  0.00    +0.000 F 
ENDBRANCH  24  25
ENDBRANCH  19  20
ENDBRANCH  18  19
ENDBRANCH  11  18
ENDBRANCH   1  15
BRANCH   8  29
ATOM     29  C   UNL     1      -0.208   9.956  22.805  0.00  0.00    +0.000 C 
ATOM     30  F   UNL     1      -1.181   8.997  22.821  0.00  0.00    +0.000 F 
ATOM     31  F   UNL     1       0.706   9.557  23.730  0.00  0.00    +0.000 F 
ATOM     32  F   UNL     1      -0.800  11.074  23.304  0.00  0.00    +0.000 F 
ENDBRANCH   8  29
BRANCH   6  33
ATOM     33  C   UNL     1       0.960  13.119  19.077  0.00  0.00    +0.000 C 
BRANCH  33  34
ATOM     34  N   UNL     1       2.208  13.848  19.348  0.00  0.00    +0.000 NA
ATOM     35  C   UNL     1       3.194  13.799  18.267  0.00  0.00    +0.000 C 
ATOM     36  C   UNL     1       3.448  15.222  17.796  0.00  0.00    +0.000 C 
ATOM     37  C   UNL     1       3.001  16.097  18.940  0.00  0.00    +0.000 C 
ATOM     38  F   UNL     1       4.071  16.373  19.736  0.00  0.00    +0.000 F 
ATOM     39  C   UNL     1       1.989  15.259  19.711  0.00  0.00    +0.000 C 
ENDBRANCH  33  34
ENDBRANCH   6  33
TORSDOF 8
ENDMDL
