MODEL 1
REMARK VINA RESULT:      -8.5      0.000      0.000
REMARK  Name = 
REMARK  8 active torsions:
REMARK  status: ('A' for Active; 'I' for Inactive)
REMARK    1  A    between atoms: C_1  and  C_2
REMARK    2  A    between atoms: C_2  and  S_3
REMARK    3  A    between atoms: C_2  and  C_10
REMARK    4  A    between atoms: S_3  and  C_4
REMARK    5  A    between atoms: N_8  and  C_9
REMARK    6  A    between atoms: C_15  and  N_16
REMARK    7  A    between atoms: C_17  and  C_19
REMARK    8  A    between atoms: C_23  and  C_24
REMARK                            x       y       z     vdW  Elec       q    Type
REMARK                         _______ _______ _______ _____ _____    ______ ____
ROOT
ATOM      1  C   UNL     1       4.410   4.774  16.906  0.00  0.00    +0.000 A 
ATOM      2  C   UNL     1       3.910   3.497  17.210  0.00  0.00    +0.000 A 
ATOM      3  C   UNL     1       2.772   3.349  17.994  0.00  0.00    +0.000 A 
ATOM      4  C   UNL     1       2.130   4.470  18.507  0.00  0.00    +0.000 A 
ATOM      5  F   UNL     1       0.968   4.249  19.134  0.00  0.00    +0.000 F 
ATOM      6  C   UNL     1       2.634   5.761  18.293  0.00  0.00    +0.000 A 
ATOM      7  C   UNL     1       3.757   5.901  17.453  0.00  0.00    +0.000 A 
ENDROOT
BRANCH   6   8
ATOM      8  N   UNL     1       2.092   6.939  18.870  0.00  0.00    +0.000 N 
ATOM      9  C   UNL     1       2.097   8.203  18.308  0.00  0.00    +0.000 C 
ATOM     10  O   UNL     1       2.566   8.536  17.225  0.00  0.00    +0.000 OA
ATOM     11  H   UNL     1       1.503   6.841  19.695  0.00  0.00    +0.000 HD
BRANCH   9  12
ATOM     12  C   UNL     1       1.369   9.253  19.096  0.00  0.00    +0.000 A 
ATOM     13  C   UNL     1       0.934  10.405  18.447  0.00  0.00    +0.000 A 
ATOM     14  C   UNL     1       0.183  11.325  19.163  0.00  0.00    +0.000 A 
ATOM     15  C   UNL     1      -0.112  11.067  20.498  0.00  0.00    +0.000 A 
ATOM     16  C   UNL     1       0.361   9.892  21.095  0.00  0.00    +0.000 A 
ATOM     17  N   UNL     1       1.114   8.979  20.404  0.00  0.00    +0.000 NA
BRANCH  16  18
ATOM     18  C   UNL     1       0.006   9.600  22.549  0.00  0.00    +0.000 C 
ATOM     19  F   UNL     1       1.076   9.190  23.294  0.00  0.00    +0.000 F 
ATOM     20  F   UNL     1      -0.493  10.689  23.198  0.00  0.00    +0.000 F 
ATOM     21  F   UNL     1      -0.928   8.616  22.678  0.00  0.00    +0.000 F 
ENDBRANCH  16  18
ENDBRANCH   9  12
ENDBRANCH   6   8
BRANCH   1  23
ATOM     22  C   UNL     1       5.527   4.076  14.665  0.00  0.00    +0.000 C 
ATOM     23  C   UNL     1       5.609   4.869  15.969  0.00  0.00    +0.000 C 
BRANCH  23  24
ATOM     24  S   UNL     1       7.184   4.594  16.863  0.00  0.00    +0.000 S 
BRANCH  24  25
ATOM     25  C   UNL     1       7.622   6.186  17.358  0.00  0.00    +0.000 A 
ATOM     26  N   UNL     1       7.608   7.272  16.619  0.00  0.00    +0.000 NA
ATOM     27  N   UNL     1       7.954   8.332  17.427  0.00  0.00    +0.000 NA
ATOM     28  C   UNL     1       8.156   7.859  18.636  0.00  0.00    +0.000 A 
ATOM     29  N   UNL     1       7.978   6.508  18.634  0.00  0.00    +0.000 N 
ATOM     30  C   UNL     1       8.151   5.629  19.758  0.00  0.00    +0.000 C 
ENDBRANCH  24  25
ENDBRANCH  23  24
ENDBRANCH   1  23
TORSDOF 6
ENDMDL
MODEL 2
REMARK VINA RESULT:      -8.3      2.513      3.468
REMARK  Name = 
REMARK  8 active torsions:
REMARK  status: ('A' for Active; 'I' for Inactive)
REMARK    1  A    between atoms: C_1  and  C_2
REMARK    2  A    between atoms: C_2  and  S_3
REMARK    3  A    between atoms: C_2  and  C_10
REMARK    4  A    between atoms: S_3  and  C_4
REMARK    5  A    between atoms: N_8  and  C_9
REMARK    6  A    between atoms: C_15  and  N_16
REMARK    7  A    between atoms: C_17  and  C_19
REMARK    8  A    between atoms: C_23  and  C_24
REMARK                            x       y       z     vdW  Elec       q    Type
REMARK                         _______ _______ _______ _____ _____    ______ ____
ROOT
ATOM      1  C   UNL     1       4.541   5.266  18.010  0.00  0.00    +0.000 A 
ATOM      2  C   UNL     1       4.588   3.955  18.512  0.00  0.00    +0.000 A 
ATOM      3  C   UNL     1       3.784   3.575  19.580  0.00  0.00    +0.000 A 
ATOM      4  C   UNL     1       2.940   4.502  20.180  0.00  0.00    +0.000 A 
ATOM      5  F   UNL     1       2.102   4.023  21.108  0.00  0.00    +0.000 F 
ATOM      6  C   UNL     1       2.912   5.840  19.763  0.00  0.00    +0.000 A 
ATOM      7  C   UNL     1       3.692   6.200  18.645  0.00  0.00    +0.000 A 
ENDROOT
BRANCH   6   8
ATOM      8  N   UNL     1       2.155   6.862  20.394  0.00  0.00    +0.000 N 
ATOM      9  C   UNL     1       1.792   8.075  19.836  0.00  0.00    +0.000 C 
ATOM     10  O   UNL     1       2.056   8.488  18.713  0.00  0.00    +0.000 OA
ATOM     11  H   UNL     1       1.693   6.640  21.273  0.00  0.00    +0.000 HD
BRANCH   9  12
ATOM     12  C   UNL     1       0.907   8.930  20.695  0.00  0.00    +0.000 A 
ATOM     13  C   UNL     1       0.902   8.727  22.072  0.00  0.00    +0.000 A 
ATOM     14  C   UNL     1       0.151   9.583  22.865  0.00  0.00    +0.000 A 
ATOM     15  C   UNL     1      -0.566  10.611  22.262  0.00  0.00    +0.000 A 
ATOM     16  C   UNL     1      -0.524  10.758  20.870  0.00  0.00    +0.000 A 
ATOM     17  N   UNL     1       0.204   9.914  20.073  0.00  0.00    +0.000 NA
BRANCH  16  18
ATOM     18  C   UNL     1      -1.286  11.908  20.219  0.00  0.00    +0.000 C 
ATOM     19  F   UNL     1      -2.309  11.491  19.416  0.00  0.00    +0.000 F 
ATOM     20  F   UNL     1      -1.857  12.744  21.131  0.00  0.00    +0.000 F 
ATOM     21  F   UNL     1      -0.494  12.686  19.429  0.00  0.00    +0.000 F 
ENDBRANCH  16  18
ENDBRANCH   9  12
ENDBRANCH   6   8
BRANCH   1  23
ATOM     22  C   UNL     1       4.914   6.765  15.920  0.00  0.00    +0.000 C 
ATOM     23  C   UNL     1       5.382   5.593  16.782  0.00  0.00    +0.000 C 
BRANCH  23  24
ATOM     24  S   UNL     1       5.741   4.092  15.794  0.00  0.00    +0.000 S 
BRANCH  24  25
ATOM     25  C   UNL     1       6.757   4.698  14.539  0.00  0.00    +0.000 A 
ATOM     26  N   UNL     1       7.756   5.539  14.674  0.00  0.00    +0.000 NA
ATOM     27  N   UNL     1       8.341   5.693  13.437  0.00  0.00    +0.000 NA
ATOM     28  C   UNL     1       7.686   4.931  12.591  0.00  0.00    +0.000 A 
ATOM     29  N   UNL     1       6.666   4.301  13.238  0.00  0.00    +0.000 N 
ATOM     30  C   UNL     1       5.702   3.418  12.642  0.00  0.00    +0.000 C 
ENDBRANCH  24  25
ENDBRANCH  23  24
ENDBRANCH   1  23
TORSDOF 6
ENDMDL
MODEL 3
REMARK VINA RESULT:      -8.2      2.430      3.376
REMARK  Name = 
REMARK  8 active torsions:
REMARK  status: ('A' for Active; 'I' for Inactive)
REMARK    1  A    between atoms: C_1  and  C_2
REMARK    2  A    between atoms: C_2  and  S_3
REMARK    3  A    between atoms: C_2  and  C_10
REMARK    4  A    between atoms: S_3  and  C_4
REMARK    5  A    between atoms: N_8  and  C_9
REMARK    6  A    between atoms: C_15  and  N_16
REMARK    7  A    between atoms: C_17  and  C_19
REMARK    8  A    between atoms: C_23  and  C_24
REMARK                            x       y       z     vdW  Elec       q    Type
REMARK                         _______ _______ _______ _____ _____    ______ ____
ROOT
ATOM      1  C   UNL     1       4.332   5.211  17.770  0.00  0.00    +0.000 A 
ATOM      2  C   UNL     1       4.065   3.858  18.039  0.00  0.00    +0.000 A 
ATOM      3  C   UNL     1       3.079   3.497  18.950  0.00  0.00    +0.000 A 
ATOM      4  C   UNL     1       2.362   4.478  19.624  0.00  0.00    +0.000 A 
ATOM      5  F   UNL     1       1.341   4.050  20.377  0.00  0.00    +0.000 F 
ATOM      6  C   UNL     1       2.643   5.840  19.444  0.00  0.00    +0.000 A 
ATOM      7  C   UNL     1       3.607   6.194  18.479  0.00  0.00    +0.000 A 
ENDROOT
BRANCH   6   8
ATOM      8  N   UNL     1       2.024   6.889  20.173  0.00  0.00    +0.000 N 
ATOM      9  C   UNL     1       1.681   8.136  19.681  0.00  0.00    +0.000 C 
ATOM     10  O   UNL     1       1.848   8.561  18.543  0.00  0.00    +0.000 OA
ATOM     11  H   UNL     1       1.646   6.675  21.093  0.00  0.00    +0.000 HD
BRANCH   9  12
ATOM     12  C   UNL     1       0.951   9.022  20.647  0.00  0.00    +0.000 A 
ATOM     13  C   UNL     1       0.399   8.460  21.794  0.00  0.00    +0.000 A 
ATOM     14  C   UNL     1      -0.194   9.301  22.724  0.00  0.00    +0.000 A 
ATOM     15  C   UNL     1      -0.216  10.671  22.483  0.00  0.00    +0.000 A 
ATOM     16  C   UNL     1       0.352  11.173  21.306  0.00  0.00    +0.000 A 
ATOM     17  N   UNL     1       0.931  10.355  20.372  0.00  0.00    +0.000 NA
BRANCH  16  18
ATOM     18  C   UNL     1       0.354  12.679  21.063  0.00  0.00    +0.000 C 
ATOM     19  F   UNL     1       0.237  13.411  22.211  0.00  0.00    +0.000 F 
ATOM     20  F   UNL     1       1.499  13.115  20.468  0.00  0.00    +0.000 F 
ATOM     21  F   UNL     1      -0.672  13.087  20.264  0.00  0.00    +0.000 F 
ENDBRANCH  16  18
ENDBRANCH   9  12
ENDBRANCH   6   8
BRANCH   1  23
ATOM     22  C   UNL     1       5.040   6.703  15.763  0.00  0.00    +0.000 C 
ATOM     23  C   UNL     1       5.364   5.537  16.696  0.00  0.00    +0.000 C 
BRANCH  23  24
ATOM     24  S   UNL     1       5.887   4.033  15.788  0.00  0.00    +0.000 S 
BRANCH  24  25
ATOM     25  C   UNL     1       6.822   4.680  14.492  0.00  0.00    +0.000 A 
ATOM     26  N   UNL     1       7.817   5.532  14.588  0.00  0.00    +0.000 NA
ATOM     27  N   UNL     1       8.329   5.720  13.324  0.00  0.00    +0.000 NA
ATOM     28  C   UNL     1       7.638   4.966  12.500  0.00  0.00    +0.000 A 
ATOM     29  N   UNL     1       6.664   4.309  13.189  0.00  0.00    +0.000 N 
ATOM     30  C   UNL     1       5.680   3.424  12.629  0.00  0.00    +0.000 C 
ENDBRANCH  24  25
ENDBRANCH  23  24
ENDBRANCH   1  23
TORSDOF 6
ENDMDL
MODEL 4
REMARK VINA RESULT:      -8.0      1.566      2.058
REMARK  Name = 
REMARK  8 active torsions:
REMARK  status: ('A' for Active; 'I' for Inactive)
REMARK    1  A    between atoms: C_1  and  C_2
REMARK    2  A    between atoms: C_2  and  S_3
REMARK    3  A    between atoms: C_2  and  C_10
REMARK    4  A    between atoms: S_3  and  C_4
REMARK    5  A    between atoms: N_8  and  C_9
REMARK    6  A    between atoms: C_15  and  N_16
REMARK    7  A    between atoms: C_17  and  C_19
REMARK    8  A    between atoms: C_23  and  C_24
REMARK                            x       y       z     vdW  Elec       q    Type
REMARK                         _______ _______ _______ _____ _____    ______ ____
ROOT
ATOM      1  C   UNL     1       4.267   4.677  17.060  0.00  0.00    +0.000 A 
ATOM      2  C   UNL     1       3.691   3.398  17.133  0.00  0.00    +0.000 A 
ATOM      3  C   UNL     1       2.553   3.175  17.898  0.00  0.00    +0.000 A 
ATOM      4  C   UNL     1       1.986   4.218  18.622  0.00  0.00    +0.000 A 
ATOM      5  F   UNL     1       0.818   3.954  19.220  0.00  0.00    +0.000 F 
ATOM      6  C   UNL     1       2.566   5.493  18.639  0.00  0.00    +0.000 A 
ATOM      7  C   UNL     1       3.689   5.720  17.817  0.00  0.00    +0.000 A 
ENDROOT
BRANCH   6   8
ATOM      8  N   UNL     1       2.104   6.575  19.434  0.00  0.00    +0.000 N 
ATOM      9  C   UNL     1       1.852   7.863  18.997  0.00  0.00    +0.000 C 
ATOM     10  O   UNL     1       1.983   8.305  17.861  0.00  0.00    +0.000 OA
ATOM     11  H   UNL     1       1.769   6.369  20.373  0.00  0.00    +0.000 HD
BRANCH   9  12
ATOM     12  C   UNL     1       1.278   8.785  20.033  0.00  0.00    +0.000 A 
ATOM     13  C   UNL     1       1.164   8.338  21.346  0.00  0.00    +0.000 A 
ATOM     14  C   UNL     1       0.718   9.229  22.312  0.00  0.00    +0.000 A 
ATOM     15  C   UNL     1       0.402  10.531  21.940  0.00  0.00    +0.000 A 
ATOM     16  C   UNL     1       0.532  10.916  20.600  0.00  0.00    +0.000 A 
ATOM     17  N   UNL     1       0.961  10.046  19.632  0.00  0.00    +0.000 NA
BRANCH  16  18
ATOM     18  C   UNL     1       0.216  12.355  20.204  0.00  0.00    +0.000 C 
ATOM     19  F   UNL     1      -1.068  12.527  19.771  0.00  0.00    +0.000 F 
ATOM     20  F   UNL     1       0.372  13.231  21.236  0.00  0.00    +0.000 F 
ATOM     21  F   UNL     1       1.008  12.811  19.193  0.00  0.00    +0.000 F 
ENDBRANCH  16  18
ENDBRANCH   9  12
ENDBRANCH   6   8
BRANCH   1  23
ATOM     22  C   UNL     1       5.389   4.193  14.766  0.00  0.00    +0.000 C 
ATOM     23  C   UNL     1       5.461   4.873  16.133  0.00  0.00    +0.000 C 
BRANCH  23  24
ATOM     24  S   UNL     1       7.044   4.547  16.998  0.00  0.00    +0.000 S 
BRANCH  24  25
ATOM     25  C   UNL     1       7.577   6.132  17.420  0.00  0.00    +0.000 A 
ATOM     26  N   UNL     1       7.624   7.182  16.633  0.00  0.00    +0.000 NA
ATOM     27  N   UNL     1       8.036   8.254  17.392  0.00  0.00    +0.000 NA
ATOM     28  C   UNL     1       8.213   7.826  18.621  0.00  0.00    +0.000 A 
ATOM     29  N   UNL     1       7.955   6.489  18.680  0.00  0.00    +0.000 N 
ATOM     30  C   UNL     1       8.079   5.653  19.843  0.00  0.00    +0.000 C 
ENDBRANCH  24  25
ENDBRANCH  23  24
ENDBRANCH   1  23
TORSDOF 6
ENDMDL
MODEL 5
REMARK VINA RESULT:      -8.0      3.691      8.797
REMARK  Name = 
REMARK  8 active torsions:
REMARK  status: ('A' for Active; 'I' for Inactive)
REMARK    1  A    between atoms: C_1  and  C_2
REMARK    2  A    between atoms: C_2  and  S_3
REMARK    3  A    between atoms: C_2  and  C_10
REMARK    4  A    between atoms: S_3  and  C_4
REMARK    5  A    between atoms: N_8  and  C_9
REMARK    6  A    between atoms: C_15  and  N_16
REMARK    7  A    between atoms: C_17  and  C_19
REMARK    8  A    between atoms: C_23  and  C_24
REMARK                            x       y       z     vdW  Elec       q    Type
REMARK                         _______ _______ _______ _____ _____    ______ ____
ROOT
ATOM      1  C   UNL     1      -0.304  11.153  19.848  0.00  0.00    +0.000 A 
ATOM      2  C   UNL     1      -0.392  11.259  21.246  0.00  0.00    +0.000 A 
ATOM      3  C   UNL     1       0.263  10.350  22.069  0.00  0.00    +0.000 A 
ATOM      4  C   UNL     1       0.993   9.307  21.511  0.00  0.00    +0.000 A 
ATOM      5  F   UNL     1       1.703   8.561  22.366  0.00  0.00    +0.000 F 
ATOM      6  C   UNL     1       1.049   9.117  20.123  0.00  0.00    +0.000 A 
ATOM      7  C   UNL     1       0.426  10.076  19.299  0.00  0.00    +0.000 A 
ENDROOT
BRANCH   6   8
ATOM      8  N   UNL     1       1.687   8.019  19.489  0.00  0.00    +0.000 N 
ATOM      9  C   UNL     1       2.304   8.034  18.251  0.00  0.00    +0.000 C 
ATOM     10  O   UNL     1       2.409   8.982  17.481  0.00  0.00    +0.000 OA
ATOM     11  H   UNL     1       1.859   7.181  20.042  0.00  0.00    +0.000 HD
BRANCH   9  12
ATOM     12  C   UNL     1       2.983   6.753  17.863  0.00  0.00    +0.000 A 
ATOM     13  C   UNL     1       4.272   6.803  17.339  0.00  0.00    +0.000 A 
ATOM     14  C   UNL     1       4.924   5.609  17.071  0.00  0.00    +0.000 A 
ATOM     15  C   UNL     1       4.275   4.407  17.334  0.00  0.00    +0.000 A 
ATOM     16  C   UNL     1       2.976   4.425  17.856  0.00  0.00    +0.000 A 
ATOM     17  N   UNL     1       2.313   5.596  18.116  0.00  0.00    +0.000 NA
BRANCH  16  18
ATOM     18  C   UNL     1       2.282   3.104  18.173  0.00  0.00    +0.000 C 
ATOM     19  F   UNL     1       0.924   3.214  18.261  0.00  0.00    +0.000 F 
ATOM     20  F   UNL     1       2.509   2.150  17.227  0.00  0.00    +0.000 F 
ATOM     21  F   UNL     1       2.684   2.568  19.360  0.00  0.00    +0.000 F 
ENDBRANCH  16  18
ENDBRANCH   9  12
ENDBRANCH   6   8
BRANCH   1  23
ATOM     22  C   UNL     1      -0.588  13.681  19.312  0.00  0.00    +0.000 C 
ATOM     23  C   UNL     1      -0.971  12.234  19.005  0.00  0.00    +0.000 C 
BRANCH  23  24
ATOM     24  S   UNL     1      -2.785  11.991  18.914  0.00  0.00    +0.000 S 
BRANCH  24  25
ATOM     25  C   UNL     1      -2.994  11.278  17.358  0.00  0.00    +0.000 A 
ATOM     26  N   UNL     1      -2.134  10.518  16.719  0.00  0.00    +0.000 NA
ATOM     27  N   UNL     1      -2.732  10.103  15.551  0.00  0.00    +0.000 NA
ATOM     28  C   UNL     1      -3.943  10.611  15.522  0.00  0.00    +0.000 A 
ATOM     29  N   UNL     1      -4.144  11.376  16.632  0.00  0.00    +0.000 N 
ATOM     30  C   UNL     1      -5.328  12.130  16.938  0.00  0.00    +0.000 C 
ENDBRANCH  24  25
ENDBRANCH  23  24
ENDBRANCH   1  23
TORSDOF 6
ENDMDL
MODEL 6
REMARK VINA RESULT:      -8.0      6.063      9.846
REMARK  Name = 
REMARK  8 active torsions:
REMARK  status: ('A' for Active; 'I' for Inactive)
REMARK    1  A    between atoms: C_1  and  C_2
REMARK    2  A    between atoms: C_2  and  S_3
REMARK    3  A    between atoms: C_2  and  C_10
REMARK    4  A    between atoms: S_3  and  C_4
REMARK    5  A    between atoms: N_8  and  C_9
REMARK    6  A    between atoms: C_15  and  N_16
REMARK    7  A    between atoms: C_17  and  C_19
REMARK    8  A    between atoms: C_23  and  C_24
REMARK                            x       y       z     vdW  Elec       q    Type
REMARK                         _______ _______ _______ _____ _____    ______ ____
ROOT
ATOM      1  C   UNL     1       9.384  12.488  21.058  0.00  0.00    +0.000 A 
ATOM      2  C   UNL     1      10.489  13.064  20.408  0.00  0.00    +0.000 A 
ATOM      3  C   UNL     1      11.057  12.451  19.297  0.00  0.00    +0.000 A 
ATOM      4  C   UNL     1      10.550  11.244  18.834  0.00  0.00    +0.000 A 
ATOM      5  F   UNL     1      11.062  10.791  17.682  0.00  0.00    +0.000 F 
ATOM      6  C   UNL     1       9.497  10.593  19.493  0.00  0.00    +0.000 A 
ATOM      7  C   UNL     1       8.895  11.251  20.585  0.00  0.00    +0.000 A 
ENDROOT
BRANCH   6   8
ATOM      8  N   UNL     1       8.998   9.313  19.138  0.00  0.00    +0.000 N 
ATOM      9  C   UNL     1       8.111   9.034  18.113  0.00  0.00    +0.000 C 
ATOM     10  O   UNL     1       7.597   9.830  17.335  0.00  0.00    +0.000 OA
ATOM     11  H   UNL     1       9.438   8.496  19.556  0.00  0.00    +0.000 HD
BRANCH   9  12
ATOM     12  C   UNL     1       7.824   7.577  17.899  0.00  0.00    +0.000 A 
ATOM     13  C   UNL     1       8.213   6.661  18.873  0.00  0.00    +0.000 A 
ATOM     14  C   UNL     1       7.862   5.330  18.708  0.00  0.00    +0.000 A 
ATOM     15  C   UNL     1       7.135   4.955  17.583  0.00  0.00    +0.000 A 
ATOM     16  C   UNL     1       6.780   5.923  16.636  0.00  0.00    +0.000 A 
ATOM     17  N   UNL     1       7.129   7.241  16.779  0.00  0.00    +0.000 NA
BRANCH  16  18
ATOM     18  C   UNL     1       5.955   5.511  15.422  0.00  0.00    +0.000 C 
ATOM     19  F   UNL     1       5.178   4.409  15.645  0.00  0.00    +0.000 F 
ATOM     20  F   UNL     1       5.095   6.485  15.014  0.00  0.00    +0.000 F 
ATOM     21  F   UNL     1       6.725   5.202  14.340  0.00  0.00    +0.000 F 
ENDBRANCH  16  18
ENDBRANCH   9  12
ENDBRANCH   6   8
BRANCH   1  23
ATOM     22  C   UNL     1       9.507  14.489  22.713  0.00  0.00    +0.000 C 
ATOM     23  C   UNL     1       8.754  13.256  22.214  0.00  0.00    +0.000 C 
BRANCH  23  24
ATOM     24  S   UNL     1       8.260  12.134  23.576  0.00  0.00    +0.000 S 
BRANCH  24  25
ATOM     25  C   UNL     1       7.009  13.022  24.363  0.00  0.00    +0.000 A 
ATOM     26  N   UNL     1       5.758  13.126  23.979  0.00  0.00    +0.000 NA
ATOM     27  N   UNL     1       5.088  13.860  24.933  0.00  0.00    +0.000 NA
ATOM     28  C   UNL     1       5.951  14.167  25.875  0.00  0.00    +0.000 A 
ATOM     29  N   UNL     1       7.179  13.677  25.547  0.00  0.00    +0.000 N 
ATOM     30  C   UNL     1       8.388  13.845  26.305  0.00  0.00    +0.000 C 
ENDBRANCH  24  25
ENDBRANCH  23  24
ENDBRANCH   1  23
TORSDOF 6
ENDMDL
MODEL 7
REMARK VINA RESULT:      -8.0      0.799      1.426
REMARK  Name = 
REMARK  8 active torsions:
REMARK  status: ('A' for Active; 'I' for Inactive)
REMARK    1  A    between atoms: C_1  and  C_2
REMARK    2  A    between atoms: C_2  and  S_3
REMARK    3  A    between atoms: C_2  and  C_10
REMARK    4  A    between atoms: S_3  and  C_4
REMARK    5  A    between atoms: N_8  and  C_9
REMARK    6  A    between atoms: C_15  and  N_16
REMARK    7  A    between atoms: C_17  and  C_19
REMARK    8  A    between atoms: C_23  and  C_24
REMARK                            x       y       z     vdW  Elec       q    Type
REMARK                         _______ _______ _______ _____ _____    ______ ____
ROOT
ATOM      1  C   UNL     1       4.153   4.827  16.926  0.00  0.00    +0.000 A 
ATOM      2  C   UNL     1       3.738   3.572  17.404  0.00  0.00    +0.000 A 
ATOM      3  C   UNL     1       2.773   3.477  18.400  0.00  0.00    +0.000 A 
ATOM      4  C   UNL     1       2.225   4.630  18.950  0.00  0.00    +0.000 A 
ATOM      5  F   UNL     1       1.208   4.451  19.802  0.00  0.00    +0.000 F 
ATOM      6  C   UNL     1       2.660   5.903  18.558  0.00  0.00    +0.000 A 
ATOM      7  C   UNL     1       3.600   5.987  17.511  0.00  0.00    +0.000 A 
ENDROOT
BRANCH   6   8
ATOM      8  N   UNL     1       2.222   7.117  19.149  0.00  0.00    +0.000 N 
ATOM      9  C   UNL     1       2.010   8.317  18.493  0.00  0.00    +0.000 C 
ATOM     10  O   UNL     1       2.163   8.552  17.299  0.00  0.00    +0.000 OA
ATOM     11  H   UNL     1       1.874   7.086  20.105  0.00  0.00    +0.000 HD
BRANCH   9  12
ATOM     12  C   UNL     1       1.454   9.419  19.346  0.00  0.00    +0.000 A 
ATOM     13  C   UNL     1       1.395  10.710  18.829  0.00  0.00    +0.000 A 
ATOM     14  C   UNL     1       0.796  11.702  19.592  0.00  0.00    +0.000 A 
ATOM     15  C   UNL     1       0.275  11.376  20.840  0.00  0.00    +0.000 A 
ATOM     16  C   UNL     1       0.372  10.059  21.306  0.00  0.00    +0.000 A 
ATOM     17  N   UNL     1       0.971   9.071  20.570  0.00  0.00    +0.000 NA
BRANCH  16  18
ATOM     18  C   UNL     1      -0.231   9.702  22.660  0.00  0.00    +0.000 C 
ATOM     19  F   UNL     1      -0.972   8.554  22.636  0.00  0.00    +0.000 F 
ATOM     20  F   UNL     1       0.715   9.504  23.622  0.00  0.00    +0.000 F 
ATOM     21  F   UNL     1      -1.066  10.667  23.138  0.00  0.00    +0.000 F 
ENDBRANCH  16  18
ENDBRANCH   9  12
ENDBRANCH   6   8
BRANCH   1  23
ATOM     22  C   UNL     1       5.848   3.544  15.430  0.00  0.00    +0.000 C 
ATOM     23  C   UNL     1       5.150   4.859  15.772  0.00  0.00    +0.000 C 
BRANCH  23  24
ATOM     24  S   UNL     1       6.323   6.256  15.936  0.00  0.00    +0.000 S 
BRANCH  24  25
ATOM     25  C   UNL     1       7.053   5.960  17.470  0.00  0.00    +0.000 A 
ATOM     26  N   UNL     1       7.113   4.811  18.104  0.00  0.00    +0.000 NA
ATOM     27  N   UNL     1       7.848   5.005  19.252  0.00  0.00    +0.000 NA
ATOM     28  C   UNL     1       8.224   6.263  19.274  0.00  0.00    +0.000 A 
ATOM     29  N   UNL     1       7.728   6.907  18.181  0.00  0.00    +0.000 N 
ATOM     30  C   UNL     1       7.888   8.303  17.874  0.00  0.00    +0.000 C 
ENDBRANCH  24  25
ENDBRANCH  23  24
ENDBRANCH   1  23
TORSDOF 6
ENDMDL
MODEL 8
REMARK VINA RESULT:      -7.9      1.702      2.804
REMARK  Name = 
REMARK  8 active torsions:
REMARK  status: ('A' for Active; 'I' for Inactive)
REMARK    1  A    between atoms: C_1  and  C_2
REMARK    2  A    between atoms: C_2  and  S_3
REMARK    3  A    between atoms: C_2  and  C_10
REMARK    4  A    between atoms: S_3  and  C_4
REMARK    5  A    between atoms: N_8  and  C_9
REMARK    6  A    between atoms: C_15  and  N_16
REMARK    7  A    between atoms: C_17  and  C_19
REMARK    8  A    between atoms: C_23  and  C_24
REMARK                            x       y       z     vdW  Elec       q    Type
REMARK                         _______ _______ _______ _____ _____    ______ ____
ROOT
ATOM      1  C   UNL     1       4.649   4.869  17.888  0.00  0.00    +0.000 A 
ATOM      2  C   UNL     1       4.032   3.630  18.132  0.00  0.00    +0.000 A 
ATOM      3  C   UNL     1       2.813   3.565  18.797  0.00  0.00    +0.000 A 
ATOM      4  C   UNL     1       2.204   4.729  19.250  0.00  0.00    +0.000 A 
ATOM      5  F   UNL     1       0.972   4.591  19.757  0.00  0.00    +0.000 F 
ATOM      6  C   UNL     1       2.817   5.980  19.096  0.00  0.00    +0.000 A 
ATOM      7  C   UNL     1       4.026   6.039  18.373  0.00  0.00    +0.000 A 
ENDROOT
BRANCH   6   8
ATOM      8  N   UNL     1       2.305   7.194  19.623  0.00  0.00    +0.000 N 
ATOM      9  C   UNL     1       1.823   8.266  18.892  0.00  0.00    +0.000 C 
ATOM     10  O   UNL     1       1.754   8.366  17.673  0.00  0.00    +0.000 OA
ATOM     11  H   UNL     1       2.117   7.240  20.623  0.00  0.00    +0.000 HD
BRANCH   9  12
ATOM     12  C   UNL     1       1.253   9.388  19.709  0.00  0.00    +0.000 A 
ATOM     13  C   UNL     1       1.180  10.661  19.151  0.00  0.00    +0.000 A 
ATOM     14  C   UNL     1       0.568  11.670  19.881  0.00  0.00    +0.000 A 
ATOM     15  C   UNL     1       0.048  11.378  21.138  0.00  0.00    +0.000 A 
ATOM     16  C   UNL     1       0.160  10.078  21.645  0.00  0.00    +0.000 A 
ATOM     17  N   UNL     1       0.771   9.074  20.942  0.00  0.00    +0.000 NA
BRANCH  16  18
ATOM     18  C   UNL     1      -0.441   9.757  23.010  0.00  0.00    +0.000 C 
ATOM     19  F   UNL     1      -1.176   8.606  23.020  0.00  0.00    +0.000 F 
ATOM     20  F   UNL     1       0.505   9.593  23.977  0.00  0.00    +0.000 F 
ATOM     21  F   UNL     1      -1.282  10.732  23.459  0.00  0.00    +0.000 F 
ENDBRANCH  16  18
ENDBRANCH   9  12
ENDBRANCH   6   8
BRANCH   1  23
ATOM     22  C   UNL     1       6.498   6.245  16.686  0.00  0.00    +0.000 C 
ATOM     23  C   UNL     1       5.940   4.877  17.076  0.00  0.00    +0.000 C 
BRANCH  23  24
ATOM     24  S   UNL     1       5.848   3.724  15.655  0.00  0.00    +0.000 S 
BRANCH  24  25
ATOM     25  C   UNL     1       6.810   4.515  14.463  0.00  0.00    +0.000 A 
ATOM     26  N   UNL     1       7.769   5.385  14.677  0.00  0.00    +0.000 NA
ATOM     27  N   UNL     1       8.324   5.704  13.457  0.00  0.00    +0.000 NA
ATOM     28  C   UNL     1       7.693   5.006  12.540  0.00  0.00    +0.000 A 
ATOM     29  N   UNL     1       6.717   4.258  13.127  0.00  0.00    +0.000 N 
ATOM     30  C   UNL     1       5.787   3.398  12.449  0.00  0.00    +0.000 C 
ENDBRANCH  24  25
ENDBRANCH  23  24
ENDBRANCH   1  23
TORSDOF 6
ENDMDL
MODEL 9
REMARK VINA RESULT:      -7.9      3.806      8.716
REMARK  Name = 
REMARK  8 active torsions:
REMARK  status: ('A' for Active; 'I' for Inactive)
REMARK    1  A    between atoms: C_1  and  C_2
REMARK    2  A    between atoms: C_2  and  S_3
REMARK    3  A    between atoms: C_2  and  C_10
REMARK    4  A    between atoms: S_3  and  C_4
REMARK    5  A    between atoms: N_8  and  C_9
REMARK    6  A    between atoms: C_15  and  N_16
REMARK    7  A    between atoms: C_17  and  C_19
REMARK    8  A    between atoms: C_23  and  C_24
REMARK                            x       y       z     vdW  Elec       q    Type
REMARK                         _______ _______ _______ _____ _____    ______ ____
ROOT
ATOM      1  C   UNL     1      -0.254  10.948  19.869  0.00  0.00    +0.000 A 
ATOM      2  C   UNL     1      -0.338  11.436  21.184  0.00  0.00    +0.000 A 
ATOM      3  C   UNL     1       0.249  10.743  22.236  0.00  0.00    +0.000 A 
ATOM      4  C   UNL     1       0.906   9.542  21.998  0.00  0.00    +0.000 A 
ATOM      5  F   UNL     1       1.560   9.010  23.038  0.00  0.00    +0.000 F 
ATOM      6  C   UNL     1       0.952   8.978  20.715  0.00  0.00    +0.000 A 
ATOM      7  C   UNL     1       0.400   9.716  19.649  0.00  0.00    +0.000 A 
ENDROOT
BRANCH   6   8
ATOM      8  N   UNL     1       1.514   7.709  20.416  0.00  0.00    +0.000 N 
ATOM      9  C   UNL     1       2.322   7.405  19.335  0.00  0.00    +0.000 C 
ATOM     10  O   UNL     1       2.695   8.162  18.446  0.00  0.00    +0.000 OA
ATOM     11  H   UNL     1       1.464   6.984  21.129  0.00  0.00    +0.000 HD
BRANCH   9  12
ATOM     12  C   UNL     1       2.856   6.002  19.314  0.00  0.00    +0.000 A 
ATOM     13  C   UNL     1       4.214   5.799  19.089  0.00  0.00    +0.000 A 
ATOM     14  C   UNL     1       4.712   4.507  19.163  0.00  0.00    +0.000 A 
ATOM     15  C   UNL     1       3.843   3.462  19.460  0.00  0.00    +0.000 A 
ATOM     16  C   UNL     1       2.485   3.732  19.670  0.00  0.00    +0.000 A 
ATOM     17  N   UNL     1       1.976   5.001  19.589  0.00  0.00    +0.000 NA
BRANCH  16  18
ATOM     18  C   UNL     1       1.545   2.586  20.028  0.00  0.00    +0.000 C 
ATOM     19  F   UNL     1       1.482   2.337  21.370  0.00  0.00    +0.000 F 
ATOM     20  F   UNL     1       0.259   2.819  19.642  0.00  0.00    +0.000 F 
ATOM     21  F   UNL     1       1.908   1.405  19.454  0.00  0.00    +0.000 F 
ENDBRANCH  16  18
ENDBRANCH   9  12
ENDBRANCH   6   8
BRANCH   1  23
ATOM     22  C   UNL     1      -0.351  13.244  18.655  0.00  0.00    +0.000 C 
ATOM     23  C   UNL     1      -0.843  11.800  18.751  0.00  0.00    +0.000 C 
BRANCH  23  24
ATOM     24  S   UNL     1      -2.670  11.675  18.701  0.00  0.00    +0.000 S 
BRANCH  24  25
ATOM     25  C   UNL     1      -2.968  11.124  17.094  0.00  0.00    +0.000 A 
ATOM     26  N   UNL     1      -2.157  10.417  16.342  0.00  0.00    +0.000 NA
ATOM     27  N   UNL     1      -2.818  10.130  15.169  0.00  0.00    +0.000 NA
ATOM     28  C   UNL     1      -4.017  10.662  15.249  0.00  0.00    +0.000 A 
ATOM     29  N   UNL     1      -4.148  11.316  16.437  0.00  0.00    +0.000 N 
ATOM     30  C   UNL     1      -5.298  12.058  16.874  0.00  0.00    +0.000 C 
ENDBRANCH  24  25
ENDBRANCH  23  24
ENDBRANCH   1  23
TORSDOF 6
ENDMDL
