MODEL 1
REMARK VINA RESULT:      -8.5      0.000      0.000
REMARK  Name = 
REMARK  9 active torsions:
REMARK  status: ('A' for Active; 'I' for Inactive)
REMARK    1  A    between atoms: C_1  and  N_2
REMARK    2  A    between atoms: C_3  and  C_5
REMARK    3  A    between atoms: C_8  and  C_9
REMARK    4  A    between atoms: N_11  and  C_12
REMARK    5  A    between atoms: C_16  and  C_17
REMARK    6  A    between atoms: C_17  and  C_18
REMARK    7  A    between atoms: C_17  and  S_19
REMARK    8  A    between atoms: S_19  and  C_20
REMARK    9  A    between atoms: N_24  and  C_25
REMARK                            x       y       z     vdW  Elec       q    Type
REMARK                         _______ _______ _______ _____ _____    ______ ____
ROOT
ATOM      1  C   UNL     1       2.849   6.528  18.810  0.00  0.00    +0.000 A 
ATOM      2  C   UNL     1       2.336   7.798  18.908  0.00  0.00    +0.000 A 
ATOM      3  N   UNL     1       1.652   7.809  20.102  0.00  0.00    +0.000 N 
ATOM      4  N   UNL     1       1.754   6.592  20.692  0.00  0.00    +0.000 NA
ATOM      5  N   UNL     1       2.482   5.807  19.910  0.00  0.00    +0.000 NA
ENDROOT
BRANCH   1   9
ATOM      6  C   UNL     1       5.361   5.104  15.682  0.00  0.00    +0.000 A 
ATOM      7  C   UNL     1       5.250   6.476  15.945  0.00  0.00    +0.000 A 
ATOM      8  C   UNL     1       4.434   6.924  16.983  0.00  0.00    +0.000 A 
ATOM      9  C   UNL     1       3.705   6.017  17.761  0.00  0.00    +0.000 A 
ATOM     10  C   UNL     1       3.808   4.644  17.488  0.00  0.00    +0.000 A 
ATOM     11  C   UNL     1       4.627   4.191  16.449  0.00  0.00    +0.000 A 
BRANCH   6  14
ATOM     12  C   UNL     1       8.049   5.143  13.032  0.00  0.00    +0.000 C 
ATOM     13  N   UNL     1       7.144   5.503  14.092  0.00  0.00    +0.000 N 
ATOM     14  C   UNL     1       6.229   4.601  14.589  0.00  0.00    +0.000 C 
ATOM     15  O   UNL     1       6.124   3.444  14.194  0.00  0.00    +0.000 OA
ATOM     16  H   UNL     1       7.306   6.371  14.584  0.00  0.00    +0.000 HD
ENDBRANCH   6  14
ENDBRANCH   1   9
BRANCH   3  17
ATOM     17  C   UNL     1       0.932   8.872  20.696  0.00  0.00    +0.000 A 
ATOM     18  C   UNL     1       0.616   8.820  22.060  0.00  0.00    +0.000 A 
ATOM     19  C   UNL     1      -0.100   9.862  22.646  0.00  0.00    +0.000 A 
ATOM     20  C   UNL     1      -0.524  10.943  21.874  0.00  0.00    +0.000 A 
ATOM     21  C   UNL     1      -0.240  11.003  20.502  0.00  0.00    +0.000 A 
ATOM     22  C   UNL     1       0.514   9.966  19.927  0.00  0.00    +0.000 A 
BRANCH  21  23
ATOM     23  C   UNL     1      -0.797  12.143  19.661  0.00  0.00    +0.000 C 
ATOM     24  C   UNL     1      -0.360  13.488  20.256  0.00  0.00    +0.000 C 
BRANCH  23  25
ATOM     25  S   UNL     1      -2.622  12.147  19.549  0.00  0.00    +0.000 S 
BRANCH  25  26
ATOM     26  C   UNL     1      -2.868  11.592  17.936  0.00  0.00    +0.000 A 
ATOM     27  N   UNL     1      -1.962  11.139  17.101  0.00  0.00    +0.000 NA
ATOM     28  N   UNL     1      -2.615  10.743  15.953  0.00  0.00    +0.000 NA
ATOM     29  C   UNL     1      -3.897  10.981  16.123  0.00  0.00    +0.000 A 
ATOM     30  N   UNL     1      -4.098  11.546  17.345  0.00  0.00    +0.000 N 
ATOM     31  C   UNL     1      -5.358  11.979  17.885  0.00  0.00    +0.000 C 
ENDBRANCH  25  26
ENDBRANCH  23  25
ENDBRANCH  21  23
ENDBRANCH   3  17
TORSDOF 6
ENDMDL
MODEL 2
REMARK VINA RESULT:      -8.4      2.441      3.371
REMARK  Name = 
REMARK  9 active torsions:
REMARK  status: ('A' for Active; 'I' for Inactive)
REMARK    1  A    between atoms: C_1  and  N_2
REMARK    2  A    between atoms: C_3  and  C_5
REMARK    3  A    between atoms: C_8  and  C_9
REMARK    4  A    between atoms: N_11  and  C_12
REMARK    5  A    between atoms: C_16  and  C_17
REMARK    6  A    between atoms: C_17  and  C_18
REMARK    7  A    between atoms: C_17  and  S_19
REMARK    8  A    between atoms: S_19  and  C_20
REMARK    9  A    between atoms: N_24  and  C_25
REMARK                            x       y       z     vdW  Elec       q    Type
REMARK                         _______ _______ _______ _____ _____    ______ ____
ROOT
ATOM      1  C   UNL     1       2.811   6.497  18.936  0.00  0.00    +0.000 A 
ATOM      2  C   UNL     1       2.303   7.763  19.096  0.00  0.00    +0.000 A 
ATOM      3  N   UNL     1       1.596   7.710  20.275  0.00  0.00    +0.000 N 
ATOM      4  N   UNL     1       1.678   6.461  20.797  0.00  0.00    +0.000 NA
ATOM      5  N   UNL     1       2.417   5.717  19.985  0.00  0.00    +0.000 NA
ENDROOT
BRANCH   1   9
ATOM      6  C   UNL     1       5.377   5.237  15.782  0.00  0.00    +0.000 A 
ATOM      7  C   UNL     1       5.263   6.593  16.115  0.00  0.00    +0.000 A 
ATOM      8  C   UNL     1       4.429   6.987  17.162  0.00  0.00    +0.000 A 
ATOM      9  C   UNL     1       3.685   6.041  17.877  0.00  0.00    +0.000 A 
ATOM     10  C   UNL     1       3.791   4.684  17.533  0.00  0.00    +0.000 A 
ATOM     11  C   UNL     1       4.629   4.285  16.486  0.00  0.00    +0.000 A 
BRANCH   6  14
ATOM     12  C   UNL     1       6.410   3.522  12.582  0.00  0.00    +0.000 C 
ATOM     13  N   UNL     1       5.664   4.018  13.709  0.00  0.00    +0.000 N 
ATOM     14  C   UNL     1       6.264   4.791  14.679  0.00  0.00    +0.000 C 
ATOM     15  O   UNL     1       7.444   5.127  14.656  0.00  0.00    +0.000 OA
ATOM     16  H   UNL     1       4.657   3.937  13.689  0.00  0.00    +0.000 HD
ENDBRANCH   6  14
ENDBRANCH   1   9
BRANCH   3  17
ATOM     17  C   UNL     1       0.870   8.742  20.915  0.00  0.00    +0.000 A 
ATOM     18  C   UNL     1       0.627   8.669  22.292  0.00  0.00    +0.000 A 
ATOM     19  C   UNL     1      -0.095   9.680  22.924  0.00  0.00    +0.000 A 
ATOM     20  C   UNL     1      -0.597  10.751  22.185  0.00  0.00    +0.000 A 
ATOM     21  C   UNL     1      -0.386  10.831  20.800  0.00  0.00    +0.000 A 
ATOM     22  C   UNL     1       0.373   9.825  20.178  0.00  0.00    +0.000 A 
BRANCH  21  23
ATOM     23  C   UNL     1      -1.026  11.955  19.999  0.00  0.00    +0.000 C 
ATOM     24  C   UNL     1      -1.952  11.366  18.926  0.00  0.00    +0.000 C 
BRANCH  23  25
ATOM     25  S   UNL     1       0.185  13.038  19.158  0.00  0.00    +0.000 S 
BRANCH  25  26
ATOM     26  C   UNL     1       0.751  14.002  20.471  0.00  0.00    +0.000 A 
ATOM     27  N   UNL     1       1.540  13.629  21.451  0.00  0.00    +0.000 NA
ATOM     28  N   UNL     1       1.787  14.740  22.231  0.00  0.00    +0.000 NA
ATOM     29  C   UNL     1       1.129  15.749  21.704  0.00  0.00    +0.000 A 
ATOM     30  N   UNL     1       0.437  15.322  20.612  0.00  0.00    +0.000 N 
ATOM     31  C   UNL     1      -0.426  16.123  19.786  0.00  0.00    +0.000 C 
ENDBRANCH  25  26
ENDBRANCH  23  25
ENDBRANCH  21  23
ENDBRANCH   3  17
TORSDOF 6
ENDMDL
MODEL 3
REMARK VINA RESULT:      -8.4      2.236      3.289
REMARK  Name = 
REMARK  9 active torsions:
REMARK  status: ('A' for Active; 'I' for Inactive)
REMARK    1  A    between atoms: C_1  and  N_2
REMARK    2  A    between atoms: C_3  and  C_5
REMARK    3  A    between atoms: C_8  and  C_9
REMARK    4  A    between atoms: N_11  and  C_12
REMARK    5  A    between atoms: C_16  and  C_17
REMARK    6  A    between atoms: C_17  and  C_18
REMARK    7  A    between atoms: C_17  and  S_19
REMARK    8  A    between atoms: S_19  and  C_20
REMARK    9  A    between atoms: N_24  and  C_25
REMARK                            x       y       z     vdW  Elec       q    Type
REMARK                         _______ _______ _______ _____ _____    ______ ____
ROOT
ATOM      1  C   UNL     1       2.809   6.671  18.861  0.00  0.00    +0.000 A 
ATOM      2  C   UNL     1       2.242   7.919  18.939  0.00  0.00    +0.000 A 
ATOM      3  N   UNL     1       1.556   7.918  20.132  0.00  0.00    +0.000 N 
ATOM      4  N   UNL     1       1.708   6.716  20.741  0.00  0.00    +0.000 NA
ATOM      5  N   UNL     1       2.471   5.952  19.972  0.00  0.00    +0.000 NA
ENDROOT
BRANCH   1   9
ATOM      6  C   UNL     1       5.388   5.309  15.761  0.00  0.00    +0.000 A 
ATOM      7  C   UNL     1       5.233   6.678  16.014  0.00  0.00    +0.000 A 
ATOM      8  C   UNL     1       4.395   7.106  17.044  0.00  0.00    +0.000 A 
ATOM      9  C   UNL     1       3.688   6.181  17.821  0.00  0.00    +0.000 A 
ATOM     10  C   UNL     1       3.836   4.811  17.558  0.00  0.00    +0.000 A 
ATOM     11  C   UNL     1       4.678   4.377  16.527  0.00  0.00    +0.000 A 
BRANCH   6  14
ATOM     12  C   UNL     1       6.425   3.527  12.598  0.00  0.00    +0.000 C 
ATOM     13  N   UNL     1       5.675   4.056  13.708  0.00  0.00    +0.000 N 
ATOM     14  C   UNL     1       6.280   4.827  14.676  0.00  0.00    +0.000 C 
ATOM     15  O   UNL     1       7.467   5.134  14.666  0.00  0.00    +0.000 OA
ATOM     16  H   UNL     1       4.667   3.999  13.674  0.00  0.00    +0.000 HD
ENDBRANCH   6  14
ENDBRANCH   1   9
BRANCH   3  17
ATOM     17  C   UNL     1       0.790   8.959  20.708  0.00  0.00    +0.000 A 
ATOM     18  C   UNL     1       0.698   9.063  22.102  0.00  0.00    +0.000 A 
ATOM     19  C   UNL     1      -0.062  10.082  22.673  0.00  0.00    +0.000 A 
ATOM     20  C   UNL     1      -0.752  10.982  21.861  0.00  0.00    +0.000 A 
ATOM     21  C   UNL     1      -0.694  10.880  20.463  0.00  0.00    +0.000 A 
ATOM     22  C   UNL     1       0.104   9.872  19.896  0.00  0.00    +0.000 A 
BRANCH  21  23
ATOM     23  C   UNL     1      -1.532  11.811  19.599  0.00  0.00    +0.000 C 
ATOM     24  C   UNL     1      -2.375  10.988  18.615  0.00  0.00    +0.000 C 
BRANCH  23  25
ATOM     25  S   UNL     1      -0.540  13.000  18.626  0.00  0.00    +0.000 S 
BRANCH  25  26
ATOM     26  C   UNL     1       0.695  13.418  19.753  0.00  0.00    +0.000 A 
ATOM     27  N   UNL     1       0.545  13.990  20.925  0.00  0.00    +0.000 NA
ATOM     28  N   UNL     1       1.791  14.070  21.512  0.00  0.00    +0.000 NA
ATOM     29  C   UNL     1       2.660  13.555  20.670  0.00  0.00    +0.000 A 
ATOM     30  N   UNL     1       2.018  13.161  19.536  0.00  0.00    +0.000 N 
ATOM     31  C   UNL     1       2.629  12.582  18.370  0.00  0.00    +0.000 C 
ENDBRANCH  25  26
ENDBRANCH  23  25
ENDBRANCH  21  23
ENDBRANCH   3  17
TORSDOF 6
ENDMDL
MODEL 4
REMARK VINA RESULT:      -8.4      5.078     11.028
REMARK  Name = 
REMARK  9 active torsions:
REMARK  status: ('A' for Active; 'I' for Inactive)
REMARK    1  A    between atoms: C_1  and  N_2
REMARK    2  A    between atoms: C_3  and  C_5
REMARK    3  A    between atoms: C_8  and  C_9
REMARK    4  A    between atoms: N_11  and  C_12
REMARK    5  A    between atoms: C_16  and  C_17
REMARK    6  A    between atoms: C_17  and  C_18
REMARK    7  A    between atoms: C_17  and  S_19
REMARK    8  A    between atoms: S_19  and  C_20
REMARK    9  A    between atoms: N_24  and  C_25
REMARK                            x       y       z     vdW  Elec       q    Type
REMARK                         _______ _______ _______ _____ _____    ______ ____
ROOT
ATOM      1  C   UNL     1      -0.411  10.979  22.433  0.00  0.00    +0.000 A 
ATOM      2  C   UNL     1      -0.053  10.743  21.129  0.00  0.00    +0.000 A 
ATOM      3  N   UNL     1       0.694   9.589  21.174  0.00  0.00    +0.000 N 
ATOM      4  N   UNL     1       0.780   9.154  22.456  0.00  0.00    +0.000 NA
ATOM      5  N   UNL     1       0.108   9.997  23.228  0.00  0.00    +0.000 NA
ENDROOT
BRANCH   1   9
ATOM      6  C   UNL     1      -2.977  14.067  23.848  0.00  0.00    +0.000 A 
ATOM      7  C   UNL     1      -3.416  12.738  23.794  0.00  0.00    +0.000 A 
ATOM      8  C   UNL     1      -2.557  11.736  23.342  0.00  0.00    +0.000 A 
ATOM      9  C   UNL     1      -1.258  12.046  22.921  0.00  0.00    +0.000 A 
ATOM     10  C   UNL     1      -0.824  13.379  22.965  0.00  0.00    +0.000 A 
ATOM     11  C   UNL     1      -1.682  14.386  23.420  0.00  0.00    +0.000 A 
BRANCH   6  14
ATOM     12  C   UNL     1      -6.031  16.276  24.046  0.00  0.00    +0.000 C 
ATOM     13  N   UNL     1      -5.072  15.269  23.674  0.00  0.00    +0.000 N 
ATOM     14  C   UNL     1      -3.868  15.149  24.333  0.00  0.00    +0.000 C 
ATOM     15  O   UNL     1      -3.530  15.857  25.276  0.00  0.00    +0.000 OA
ATOM     16  H   UNL     1      -5.366  14.541  23.037  0.00  0.00    +0.000 HD
ENDBRANCH   6  14
ENDBRANCH   1   9
BRANCH   3  17
ATOM     17  C   UNL     1       1.313   8.897  20.106  0.00  0.00    +0.000 A 
ATOM     18  C   UNL     1       1.386   9.495  18.841  0.00  0.00    +0.000 A 
ATOM     19  C   UNL     1       1.987   8.813  17.785  0.00  0.00    +0.000 A 
ATOM     20  C   UNL     1       2.494   7.527  17.977  0.00  0.00    +0.000 A 
ATOM     21  C   UNL     1       2.408   6.900  19.230  0.00  0.00    +0.000 A 
ATOM     22  C   UNL     1       1.833   7.610  20.297  0.00  0.00    +0.000 A 
BRANCH  21  23
ATOM     23  C   UNL     1       2.878   5.462  19.391  0.00  0.00    +0.000 C 
ATOM     24  C   UNL     1       2.306   4.872  20.687  0.00  0.00    +0.000 C 
BRANCH  23  25
ATOM     25  S   UNL     1       4.697   5.288  19.453  0.00  0.00    +0.000 S 
BRANCH  25  26
ATOM     26  C   UNL     1       5.042   4.723  17.861  0.00  0.00    +0.000 A 
ATOM     27  N   UNL     1       4.181   4.347  16.944  0.00  0.00    +0.000 NA
ATOM     28  N   UNL     1       4.893   4.041  15.804  0.00  0.00    +0.000 NA
ATOM     29  C   UNL     1       6.167   4.230  16.069  0.00  0.00    +0.000 A 
ATOM     30  N   UNL     1       6.309   4.629  17.363  0.00  0.00    +0.000 N 
ATOM     31  C   UNL     1       7.549   4.903  18.037  0.00  0.00    +0.000 C 
ENDBRANCH  25  26
ENDBRANCH  23  25
ENDBRANCH  21  23
ENDBRANCH   3  17
TORSDOF 6
ENDMDL
MODEL 5
REMARK VINA RESULT:      -8.3      1.768      2.333
REMARK  Name = 
REMARK  9 active torsions:
REMARK  status: ('A' for Active; 'I' for Inactive)
REMARK    1  A    between atoms: C_1  and  N_2
REMARK    2  A    between atoms: C_3  and  C_5
REMARK    3  A    between atoms: C_8  and  C_9
REMARK    4  A    between atoms: N_11  and  C_12
REMARK    5  A    between atoms: C_16  and  C_17
REMARK    6  A    between atoms: C_17  and  C_18
REMARK    7  A    between atoms: C_17  and  S_19
REMARK    8  A    between atoms: S_19  and  C_20
REMARK    9  A    between atoms: N_24  and  C_25
REMARK                            x       y       z     vdW  Elec       q    Type
REMARK                         _______ _______ _______ _____ _____    ______ ____
ROOT
ATOM      1  C   UNL     1       2.705   6.608  18.992  0.00  0.00    +0.000 A 
ATOM      2  C   UNL     1       2.212   7.882  19.133  0.00  0.00    +0.000 A 
ATOM      3  N   UNL     1       1.481   7.847  20.298  0.00  0.00    +0.000 N 
ATOM      4  N   UNL     1       1.537   6.602  20.831  0.00  0.00    +0.000 NA
ATOM      5  N   UNL     1       2.281   5.842  20.040  0.00  0.00    +0.000 NA
ENDROOT
BRANCH   1   9
ATOM      6  C   UNL     1       5.328   5.131  15.982  0.00  0.00    +0.000 A 
ATOM      7  C   UNL     1       4.675   4.254  16.858  0.00  0.00    +0.000 A 
ATOM      8  C   UNL     1       3.807   4.754  17.828  0.00  0.00    +0.000 A 
ATOM      9  C   UNL     1       3.592   6.132  17.953  0.00  0.00    +0.000 A 
ATOM     10  C   UNL     1       4.258   7.009  17.083  0.00  0.00    +0.000 A 
ATOM     11  C   UNL     1       5.127   6.511  16.106  0.00  0.00    +0.000 A 
BRANCH   6  14
ATOM     12  C   UNL     1       6.424   3.582  12.719  0.00  0.00    +0.000 C 
ATOM     13  N   UNL     1       5.646   4.105  13.811  0.00  0.00    +0.000 N 
ATOM     14  C   UNL     1       6.250   4.624  14.936  0.00  0.00    +0.000 C 
ATOM     15  O   UNL     1       7.465   4.698  15.088  0.00  0.00    +0.000 OA
ATOM     16  H   UNL     1       4.655   4.245  13.668  0.00  0.00    +0.000 HD
ENDBRANCH   6  14
ENDBRANCH   1   9
BRANCH   3  17
ATOM     17  C   UNL     1       0.757   8.894  20.916  0.00  0.00    +0.000 A 
ATOM     18  C   UNL     1       0.635   8.925  22.311  0.00  0.00    +0.000 A 
ATOM     19  C   UNL     1      -0.083   9.951  22.922  0.00  0.00    +0.000 A 
ATOM     20  C   UNL     1      -0.703  10.932  22.148  0.00  0.00    +0.000 A 
ATOM     21  C   UNL     1      -0.614  10.905  20.747  0.00  0.00    +0.000 A 
ATOM     22  C   UNL     1       0.143   9.888  20.142  0.00  0.00    +0.000 A 
BRANCH  21  23
ATOM     23  C   UNL     1      -1.379  11.928  19.920  0.00  0.00    +0.000 C 
ATOM     24  C   UNL     1      -0.400  12.726  19.048  0.00  0.00    +0.000 C 
BRANCH  23  25
ATOM     25  S   UNL     1      -2.331  13.121  20.926  0.00  0.00    +0.000 S 
BRANCH  25  26
ATOM     26  C   UNL     1      -3.952  12.671  20.550  0.00  0.00    +0.000 A 
ATOM     27  N   UNL     1      -4.416  12.255  19.395  0.00  0.00    +0.000 NA
ATOM     28  N   UNL     1      -5.747  11.941  19.570  0.00  0.00    +0.000 NA
ATOM     29  C   UNL     1      -6.052  12.190  20.824  0.00  0.00    +0.000 A 
ATOM     30  N   UNL     1      -4.959  12.682  21.470  0.00  0.00    +0.000 N 
ATOM     31  C   UNL     1      -4.901  13.102  22.844  0.00  0.00    +0.000 C 
ENDBRANCH  25  26
ENDBRANCH  23  25
ENDBRANCH  21  23
ENDBRANCH   3  17
TORSDOF 6
ENDMDL
MODEL 6
REMARK VINA RESULT:      -8.3      1.903      2.514
REMARK  Name = 
REMARK  9 active torsions:
REMARK  status: ('A' for Active; 'I' for Inactive)
REMARK    1  A    between atoms: C_1  and  N_2
REMARK    2  A    between atoms: C_3  and  C_5
REMARK    3  A    between atoms: C_8  and  C_9
REMARK    4  A    between atoms: N_11  and  C_12
REMARK    5  A    between atoms: C_16  and  C_17
REMARK    6  A    between atoms: C_17  and  C_18
REMARK    7  A    between atoms: C_17  and  S_19
REMARK    8  A    between atoms: S_19  and  C_20
REMARK    9  A    between atoms: N_24  and  C_25
REMARK                            x       y       z     vdW  Elec       q    Type
REMARK                         _______ _______ _______ _____ _____    ______ ____
ROOT
ATOM      1  C   UNL     1       2.664   6.755  18.943  0.00  0.00    +0.000 A 
ATOM      2  C   UNL     1       2.132   8.018  19.018  0.00  0.00    +0.000 A 
ATOM      3  N   UNL     1       1.412   8.026  20.191  0.00  0.00    +0.000 N 
ATOM      4  N   UNL     1       1.511   6.814  20.791  0.00  0.00    +0.000 NA
ATOM      5  N   UNL     1       2.272   6.035  20.036  0.00  0.00    +0.000 NA
ENDROOT
BRANCH   1   9
ATOM      6  C   UNL     1       5.287   5.185  15.981  0.00  0.00    +0.000 A 
ATOM      7  C   UNL     1       4.398   4.348  16.667  0.00  0.00    +0.000 A 
ATOM      8  C   UNL     1       3.535   4.882  17.624  0.00  0.00    +0.000 A 
ATOM      9  C   UNL     1       3.558   6.249  17.923  0.00  0.00    +0.000 A 
ATOM     10  C   UNL     1       4.458   7.084  17.243  0.00  0.00    +0.000 A 
ATOM     11  C   UNL     1       5.323   6.552  16.281  0.00  0.00    +0.000 A 
BRANCH   6  14
ATOM     12  C   UNL     1       6.387   3.562  12.755  0.00  0.00    +0.000 C 
ATOM     13  N   UNL     1       5.608   4.117  13.831  0.00  0.00    +0.000 N 
ATOM     14  C   UNL     1       6.210   4.644  14.952  0.00  0.00    +0.000 C 
ATOM     15  O   UNL     1       7.424   4.700  15.116  0.00  0.00    +0.000 OA
ATOM     16  H   UNL     1       4.621   4.272  13.675  0.00  0.00    +0.000 HD
ENDBRANCH   6  14
ENDBRANCH   1   9
BRANCH   3  17
ATOM     17  C   UNL     1       0.661   9.083  20.757  0.00  0.00    +0.000 A 
ATOM     18  C   UNL     1       0.666   9.273  22.144  0.00  0.00    +0.000 A 
ATOM     19  C   UNL     1      -0.080  10.309  22.706  0.00  0.00    +0.000 A 
ATOM     20  C   UNL     1      -0.850  11.139  21.892  0.00  0.00    +0.000 A 
ATOM     21  C   UNL     1      -0.889  10.951  20.502  0.00  0.00    +0.000 A 
ATOM     22  C   UNL     1      -0.106   9.927  19.942  0.00  0.00    +0.000 A 
BRANCH  21  23
ATOM     23  C   UNL     1      -1.812  11.805  19.646  0.00  0.00    +0.000 C 
ATOM     24  C   UNL     1      -1.073  12.259  18.380  0.00  0.00    +0.000 C 
BRANCH  23  25
ATOM     25  S   UNL     1      -2.427  13.301  20.501  0.00  0.00    +0.000 S 
BRANCH  25  26
ATOM     26  C   UNL     1      -3.964  12.764  21.068  0.00  0.00    +0.000 A 
ATOM     27  N   UNL     1      -4.321  12.537  22.310  0.00  0.00    +0.000 NA
ATOM     28  N   UNL     1      -5.656  12.193  22.304  0.00  0.00    +0.000 NA
ATOM     29  C   UNL     1      -6.065  12.211  21.054  0.00  0.00    +0.000 A 
ATOM     30  N   UNL     1      -5.024  12.534  20.238  0.00  0.00    +0.000 N 
ATOM     31  C   UNL     1      -5.063  12.624  18.804  0.00  0.00    +0.000 C 
ENDBRANCH  25  26
ENDBRANCH  23  25
ENDBRANCH  21  23
ENDBRANCH   3  17
TORSDOF 6
ENDMDL
MODEL 7
REMARK VINA RESULT:      -8.3      2.007      3.034
REMARK  Name = 
REMARK  9 active torsions:
REMARK  status: ('A' for Active; 'I' for Inactive)
REMARK    1  A    between atoms: C_1  and  N_2
REMARK    2  A    between atoms: C_3  and  C_5
REMARK    3  A    between atoms: C_8  and  C_9
REMARK    4  A    between atoms: N_11  and  C_12
REMARK    5  A    between atoms: C_16  and  C_17
REMARK    6  A    between atoms: C_17  and  C_18
REMARK    7  A    between atoms: C_17  and  S_19
REMARK    8  A    between atoms: S_19  and  C_20
REMARK    9  A    between atoms: N_24  and  C_25
REMARK                            x       y       z     vdW  Elec       q    Type
REMARK                         _______ _______ _______ _____ _____    ______ ____
ROOT
ATOM      1  C   UNL     1       2.832   6.641  18.895  0.00  0.00    +0.000 A 
ATOM      2  C   UNL     1       2.257   7.885  18.973  0.00  0.00    +0.000 A 
ATOM      3  N   UNL     1       1.583   7.885  20.173  0.00  0.00    +0.000 N 
ATOM      4  N   UNL     1       1.750   6.687  20.786  0.00  0.00    +0.000 NA
ATOM      5  N   UNL     1       2.510   5.924  20.012  0.00  0.00    +0.000 NA
ENDROOT
BRANCH   1   9
ATOM      6  C   UNL     1       5.395   5.285  15.779  0.00  0.00    +0.000 A 
ATOM      7  C   UNL     1       5.314   6.646  16.099  0.00  0.00    +0.000 A 
ATOM      8  C   UNL     1       4.480   7.071  17.134  0.00  0.00    +0.000 A 
ATOM      9  C   UNL     1       3.704   6.152  17.849  0.00  0.00    +0.000 A 
ATOM     10  C   UNL     1       3.778   4.790  17.518  0.00  0.00    +0.000 A 
ATOM     11  C   UNL     1       4.615   4.360  16.483  0.00  0.00    +0.000 A 
BRANCH   6  14
ATOM     12  C   UNL     1       6.418   3.503  12.612  0.00  0.00    +0.000 C 
ATOM     13  N   UNL     1       5.674   4.029  13.726  0.00  0.00    +0.000 N 
ATOM     14  C   UNL     1       6.281   4.806  14.688  0.00  0.00    +0.000 C 
ATOM     15  O   UNL     1       7.467   5.120  14.668  0.00  0.00    +0.000 OA
ATOM     16  H   UNL     1       4.665   3.966  13.700  0.00  0.00    +0.000 HD
ENDBRANCH   6  14
ENDBRANCH   1   9
BRANCH   3  17
ATOM     17  C   UNL     1       0.815   8.922  20.752  0.00  0.00    +0.000 A 
ATOM     18  C   UNL     1       0.767   9.055  22.146  0.00  0.00    +0.000 A 
ATOM     19  C   UNL     1       0.006  10.071  22.720  0.00  0.00    +0.000 A 
ATOM     20  C   UNL     1      -0.729  10.939  21.913  0.00  0.00    +0.000 A 
ATOM     21  C   UNL     1      -0.715  10.808  20.516  0.00  0.00    +0.000 A 
ATOM     22  C   UNL     1       0.084   9.804  19.945  0.00  0.00    +0.000 A 
BRANCH  21  23
ATOM     23  C   UNL     1      -1.601  11.703  19.661  0.00  0.00    +0.000 C 
ATOM     24  C   UNL     1      -1.540  11.247  18.197  0.00  0.00    +0.000 C 
BRANCH  23  25
ATOM     25  S   UNL     1      -1.129  13.469  19.717  0.00  0.00    +0.000 S 
BRANCH  25  26
ATOM     26  C   UNL     1       0.574  13.377  19.464  0.00  0.00    +0.000 A 
ATOM     27  N   UNL     1       1.199  12.957  18.389  0.00  0.00    +0.000 NA
ATOM     28  N   UNL     1       2.551  13.124  18.602  0.00  0.00    +0.000 NA
ATOM     29  C   UNL     1       2.704  13.628  19.806  0.00  0.00    +0.000 A 
ATOM     30  N   UNL     1       1.487  13.774  20.398  0.00  0.00    +0.000 N 
ATOM     31  C   UNL     1       1.240  14.263  21.727  0.00  0.00    +0.000 C 
ENDBRANCH  25  26
ENDBRANCH  23  25
ENDBRANCH  21  23
ENDBRANCH   3  17
TORSDOF 6
ENDMDL
MODEL 8
REMARK VINA RESULT:      -8.3      2.440      3.284
REMARK  Name = 
REMARK  9 active torsions:
REMARK  status: ('A' for Active; 'I' for Inactive)
REMARK    1  A    between atoms: C_1  and  N_2
REMARK    2  A    between atoms: C_3  and  C_5
REMARK    3  A    between atoms: C_8  and  C_9
REMARK    4  A    between atoms: N_11  and  C_12
REMARK    5  A    between atoms: C_16  and  C_17
REMARK    6  A    between atoms: C_17  and  C_18
REMARK    7  A    between atoms: C_17  and  S_19
REMARK    8  A    between atoms: S_19  and  C_20
REMARK    9  A    between atoms: N_24  and  C_25
REMARK                            x       y       z     vdW  Elec       q    Type
REMARK                         _______ _______ _______ _____ _____    ______ ____
ROOT
ATOM      1  C   UNL     1       2.683   6.634  19.064  0.00  0.00    +0.000 A 
ATOM      2  C   UNL     1       2.212   7.912  19.243  0.00  0.00    +0.000 A 
ATOM      3  N   UNL     1       1.482   7.855  20.408  0.00  0.00    +0.000 N 
ATOM      4  N   UNL     1       1.516   6.593  20.903  0.00  0.00    +0.000 NA
ATOM      5  N   UNL     1       2.246   5.844  20.088  0.00  0.00    +0.000 NA
ENDROOT
BRANCH   1   9
ATOM      6  C   UNL     1       5.273   5.200  16.005  0.00  0.00    +0.000 A 
ATOM      7  C   UNL     1       4.540   4.309  16.800  0.00  0.00    +0.000 A 
ATOM      8  C   UNL     1       3.684   4.797  17.787  0.00  0.00    +0.000 A 
ATOM      9  C   UNL     1       3.561   6.174  18.010  0.00  0.00    +0.000 A 
ATOM     10  C   UNL     1       4.307   7.064  17.221  0.00  0.00    +0.000 A 
ATOM     11  C   UNL     1       5.164   6.578  16.228  0.00  0.00    +0.000 A 
BRANCH   6  14
ATOM     12  C   UNL     1       6.339   3.575  12.769  0.00  0.00    +0.000 C 
ATOM     13  N   UNL     1       5.572   4.095  13.870  0.00  0.00    +0.000 N 
ATOM     14  C   UNL     1       6.184   4.707  14.942  0.00  0.00    +0.000 C 
ATOM     15  O   UNL     1       7.396   4.870  15.037  0.00  0.00    +0.000 OA
ATOM     16  H   UNL     1       4.568   4.161  13.765  0.00  0.00    +0.000 HD
ENDBRANCH   6  14
ENDBRANCH   1   9
BRANCH   3  17
ATOM     17  C   UNL     1       0.777   8.896  21.057  0.00  0.00    +0.000 A 
ATOM     18  C   UNL     1       0.355   8.727  22.382  0.00  0.00    +0.000 A 
ATOM     19  C   UNL     1      -0.346   9.747  23.023  0.00  0.00    +0.000 A 
ATOM     20  C   UNL     1      -0.652  10.925  22.340  0.00  0.00    +0.000 A 
ATOM     21  C   UNL     1      -0.260  11.104  21.004  0.00  0.00    +0.000 A 
ATOM     22  C   UNL     1       0.478  10.085  20.379  0.00  0.00    +0.000 A 
BRANCH  21  23
ATOM     23  C   UNL     1      -0.689  12.354  20.250  0.00  0.00    +0.000 C 
ATOM     24  C   UNL     1      -2.205  12.325  20.016  0.00  0.00    +0.000 C 
BRANCH  23  25
ATOM     25  S   UNL     1       0.124  12.543  18.623  0.00  0.00    +0.000 S 
BRANCH  25  26
ATOM     26  C   UNL     1       1.332  13.720  18.977  0.00  0.00    +0.000 A 
ATOM     27  N   UNL     1       2.597  13.506  19.258  0.00  0.00    +0.000 NA
ATOM     28  N   UNL     1       3.205  14.735  19.402  0.00  0.00    +0.000 NA
ATOM     29  C   UNL     1       2.287  15.657  19.216  0.00  0.00    +0.000 A 
ATOM     30  N   UNL     1       1.085  15.062  18.977  0.00  0.00    +0.000 N 
ATOM     31  C   UNL     1      -0.167  15.734  18.757  0.00  0.00    +0.000 C 
ENDBRANCH  25  26
ENDBRANCH  23  25
ENDBRANCH  21  23
ENDBRANCH   3  17
TORSDOF 6
ENDMDL
MODEL 9
REMARK VINA RESULT:      -8.2      2.262      3.117
REMARK  Name = 
REMARK  9 active torsions:
REMARK  status: ('A' for Active; 'I' for Inactive)
REMARK    1  A    between atoms: C_1  and  N_2
REMARK    2  A    between atoms: C_3  and  C_5
REMARK    3  A    between atoms: C_8  and  C_9
REMARK    4  A    between atoms: N_11  and  C_12
REMARK    5  A    between atoms: C_16  and  C_17
REMARK    6  A    between atoms: C_17  and  C_18
REMARK    7  A    between atoms: C_17  and  S_19
REMARK    8  A    between atoms: S_19  and  C_20
REMARK    9  A    between atoms: N_24  and  C_25
REMARK                            x       y       z     vdW  Elec       q    Type
REMARK                         _______ _______ _______ _____ _____    ______ ____
ROOT
ATOM      1  C   UNL     1       2.654   6.673  19.113  0.00  0.00    +0.000 A 
ATOM      2  C   UNL     1       2.222   7.959  19.325  0.00  0.00    +0.000 A 
ATOM      3  N   UNL     1       1.451   7.887  20.462  0.00  0.00    +0.000 N 
ATOM      4  N   UNL     1       1.424   6.608  20.910  0.00  0.00    +0.000 NA
ATOM      5  N   UNL     1       2.155   5.863  20.093  0.00  0.00    +0.000 NA
ENDROOT
BRANCH   1   9
ATOM      6  C   UNL     1       5.277   5.416  16.005  0.00  0.00    +0.000 A 
ATOM      7  C   UNL     1       4.988   6.773  16.194  0.00  0.00    +0.000 A 
ATOM      8  C   UNL     1       4.138   7.169  17.227  0.00  0.00    +0.000 A 
ATOM      9  C   UNL     1       3.551   6.220  18.072  0.00  0.00    +0.000 A 
ATOM     10  C   UNL     1       3.833   4.860  17.874  0.00  0.00    +0.000 A 
ATOM     11  C   UNL     1       4.687   4.459  16.841  0.00  0.00    +0.000 A 
BRANCH   6  14
ATOM     12  C   UNL     1       6.391   3.632  12.871  0.00  0.00    +0.000 C 
ATOM     13  N   UNL     1       5.622   4.135  13.978  0.00  0.00    +0.000 N 
ATOM     14  C   UNL     1       6.185   4.969  14.919  0.00  0.00    +0.000 C 
ATOM     15  O   UNL     1       7.349   5.356  14.884  0.00  0.00    +0.000 OA
ATOM     16  H   UNL     1       4.619   4.008  13.961  0.00  0.00    +0.000 HD
ENDBRANCH   6  14
ENDBRANCH   1   9
BRANCH   3  17
ATOM     17  C   UNL     1       0.761   8.928  21.126  0.00  0.00    +0.000 A 
ATOM     18  C   UNL     1       0.465   8.805  22.490  0.00  0.00    +0.000 A 
ATOM     19  C   UNL     1      -0.222   9.826  23.146  0.00  0.00    +0.000 A 
ATOM     20  C   UNL     1      -0.637  10.956  22.443  0.00  0.00    +0.000 A 
ATOM     21  C   UNL     1      -0.373  11.088  21.071  0.00  0.00    +0.000 A 
ATOM     22  C   UNL     1       0.352  10.071  20.427  0.00  0.00    +0.000 A 
BRANCH  21  23
ATOM     23  C   UNL     1      -0.921  12.283  20.305  0.00  0.00    +0.000 C 
ATOM     24  C   UNL     1      -2.452  12.202  20.243  0.00  0.00    +0.000 C 
BRANCH  23  25
ATOM     25  S   UNL     1      -0.297  12.403  18.590  0.00  0.00    +0.000 S 
BRANCH  25  26
ATOM     26  C   UNL     1       0.454  13.954  18.605  0.00  0.00    +0.000 A 
ATOM     27  N   UNL     1      -0.130  15.121  18.751  0.00  0.00    +0.000 NA
ATOM     28  N   UNL     1       0.860  16.081  18.772  0.00  0.00    +0.000 NA
ATOM     29  C   UNL     1       2.013  15.467  18.626  0.00  0.00    +0.000 A 
ATOM     30  N   UNL     1       1.802  14.129  18.485  0.00  0.00    +0.000 N 
ATOM     31  C   UNL     1       2.811  13.127  18.271  0.00  0.00    +0.000 C 
ENDBRANCH  25  26
ENDBRANCH  23  25
ENDBRANCH  21  23
ENDBRANCH   3  17
TORSDOF 6
ENDMDL
