MODEL 1
REMARK VINA RESULT:      -9.7      0.000      0.000
REMARK  Name = 
REMARK  7 active torsions:
REMARK  status: ('A' for Active; 'I' for Inactive)
REMARK    1  A    between atoms: C_1  and  C_2
REMARK    2  A    between atoms: C_2  and  S_3
REMARK    3  A    between atoms: C_2  and  C_10
REMARK    4  A    between atoms: S_3  and  C_4
REMARK    5  A    between atoms: N_8  and  C_9
REMARK    6  A    between atoms: C_15  and  N_16
REMARK    7  A    between atoms: C_23  and  C_24
REMARK                            x       y       z     vdW  Elec       q    Type
REMARK                         _______ _______ _______ _____ _____    ______ ____
ROOT
ATOM      1  C   UNL     1       4.751   5.197  18.195  0.00  0.00    +0.000 A 
ATOM      2  C   UNL     1       4.380   4.016  18.853  0.00  0.00    +0.000 A 
ATOM      3  C   UNL     1       3.272   4.005  19.697  0.00  0.00    +0.000 A 
ATOM      4  F   UNL     1       2.913   2.856  20.288  0.00  0.00    +0.000 F 
ATOM      5  C   UNL     1       2.516   5.153  19.927  0.00  0.00    +0.000 A 
ATOM      6  C   UNL     1       2.849   6.347  19.288  0.00  0.00    +0.000 A 
ATOM      7  C   UNL     1       3.967   6.345  18.433  0.00  0.00    +0.000 A 
ENDROOT
BRANCH   6   8
ATOM      8  N   UNL     1       2.094   7.536  19.453  0.00  0.00    +0.000 N 
ATOM      9  C   UNL     1       1.400   7.847  20.699  0.00  0.00    +0.000 C 
ATOM     10  C   UNL     1       0.832   9.208  20.463  0.00  0.00    +0.000 A 
ATOM     11  C   UNL     1       1.140   9.611  19.165  0.00  0.00    +0.000 A 
ATOM     12  C   UNL     1       0.741  10.829  18.649  0.00  0.00    +0.000 A 
ATOM     13  C   UNL     1       0.001  11.668  19.479  0.00  0.00    +0.000 A 
ATOM     14  C   UNL     1      -0.313  11.277  20.794  0.00  0.00    +0.000 A 
ATOM     15  C   UNL     1       0.102  10.034  21.313  0.00  0.00    +0.000 A 
ATOM     16  C   UNL     1       1.944   8.566  18.520  0.00  0.00    +0.000 C 
ATOM     17  O   UNL     1       2.354   8.672  17.380  0.00  0.00    +0.000 OA
BRANCH  15  18
ATOM     18  C   UNL     1      -0.237   9.660  22.733  0.00  0.00    +0.000 C 
ATOM     19  F   UNL     1       0.858   9.452  23.517  0.00  0.00    +0.000 F 
ATOM     20  F   UNL     1      -0.965  10.621  23.363  0.00  0.00    +0.000 F 
ATOM     21  F   UNL     1      -0.971   8.517  22.808  0.00  0.00    +0.000 F 
ENDBRANCH  15  18
ENDBRANCH   6   8
BRANCH   1  23
ATOM     22  C   UNL     1       6.467   6.624  16.937  0.00  0.00    +0.000 C 
ATOM     23  C   UNL     1       5.946   5.208  17.232  0.00  0.00    +0.000 C 
BRANCH  23  24
ATOM     24  S   UNL     1       5.444   4.360  15.676  0.00  0.00    +0.000 S 
BRANCH  24  25
ATOM     25  C   UNL     1       6.693   4.767  14.559  0.00  0.00    +0.000 A 
ATOM     26  N   UNL     1       7.738   5.535  14.758  0.00  0.00    +0.000 NA
ATOM     27  N   UNL     1       8.381   5.696  13.552  0.00  0.00    +0.000 NA
ATOM     28  C   UNL     1       7.729   4.987  12.659  0.00  0.00    +0.000 A 
ATOM     29  N   UNL     1       6.683   4.351  13.259  0.00  0.00    +0.000 N 
ATOM     30  C   UNL     1       5.789   3.417  12.631  0.00  0.00    +0.000 C 
ENDBRANCH  24  25
ENDBRANCH  23  24
ENDBRANCH   1  23
TORSDOF 5
ENDMDL
MODEL 2
REMARK VINA RESULT:      -9.6      1.687      2.738
REMARK  Name = 
REMARK  7 active torsions:
REMARK  status: ('A' for Active; 'I' for Inactive)
REMARK    1  A    between atoms: C_1  and  C_2
REMARK    2  A    between atoms: C_2  and  S_3
REMARK    3  A    between atoms: C_2  and  C_10
REMARK    4  A    between atoms: S_3  and  C_4
REMARK    5  A    between atoms: N_8  and  C_9
REMARK    6  A    between atoms: C_15  and  N_16
REMARK    7  A    between atoms: C_23  and  C_24
REMARK                            x       y       z     vdW  Elec       q    Type
REMARK                         _______ _______ _______ _____ _____    ______ ____
ROOT
ATOM      1  C   UNL     1       4.238   5.080  17.357  0.00  0.00    +0.000 A 
ATOM      2  C   UNL     1       3.853   3.905  18.016  0.00  0.00    +0.000 A 
ATOM      3  C   UNL     1       2.883   3.947  19.014  0.00  0.00    +0.000 A 
ATOM      4  F   UNL     1       2.504   2.806  19.605  0.00  0.00    +0.000 F 
ATOM      5  C   UNL     1       2.284   5.145  19.401  0.00  0.00    +0.000 A 
ATOM      6  C   UNL     1       2.636   6.337  18.767  0.00  0.00    +0.000 A 
ATOM      7  C   UNL     1       3.612   6.280  17.755  0.00  0.00    +0.000 A 
ENDROOT
BRANCH   6   8
ATOM      8  N   UNL     1       2.031   7.579  19.090  0.00  0.00    +0.000 N 
ATOM      9  C   UNL     1       1.383   7.814  20.377  0.00  0.00    +0.000 C 
ATOM     10  C   UNL     1       0.985   9.252  20.320  0.00  0.00    +0.000 A 
ATOM     11  C   UNL     1       1.336   9.773  19.077  0.00  0.00    +0.000 A 
ATOM     12  C   UNL     1       1.088  11.085  18.721  0.00  0.00    +0.000 A 
ATOM     13  C   UNL     1       0.457  11.897  19.662  0.00  0.00    +0.000 A 
ATOM     14  C   UNL     1       0.101  11.386  20.924  0.00  0.00    +0.000 A 
ATOM     15  C   UNL     1       0.363  10.048  21.278  0.00  0.00    +0.000 A 
ATOM     16  C   UNL     1       2.005   8.727  18.294  0.00  0.00    +0.000 C 
ATOM     17  O   UNL     1       2.422   8.924  17.168  0.00  0.00    +0.000 OA
BRANCH  15  18
ATOM     18  C   UNL     1      -0.015   9.544  22.647  0.00  0.00    +0.000 C 
ATOM     19  F   UNL     1      -0.665  10.469  23.408  0.00  0.00    +0.000 F 
ATOM     20  F   UNL     1      -0.840   8.464  22.593  0.00  0.00    +0.000 F 
ATOM     21  F   UNL     1       1.067   9.158  23.376  0.00  0.00    +0.000 F 
ENDBRANCH  15  18
ENDBRANCH   6   8
BRANCH   1  23
ATOM     22  C   UNL     1       4.988   3.939  15.190  0.00  0.00    +0.000 C 
ATOM     23  C   UNL     1       5.277   5.036  16.228  0.00  0.00    +0.000 C 
BRANCH  23  24
ATOM     24  S   UNL     1       6.941   4.801  16.981  0.00  0.00    +0.000 S 
BRANCH  24  25
ATOM     25  C   UNL     1       7.400   6.388  17.475  0.00  0.00    +0.000 A 
ATOM     26  N   UNL     1       7.320   7.504  16.791  0.00  0.00    +0.000 NA
ATOM     27  N   UNL     1       7.935   8.495  17.522  0.00  0.00    +0.000 NA
ATOM     28  C   UNL     1       8.338   7.959  18.652  0.00  0.00    +0.000 A 
ATOM     29  N   UNL     1       7.983   6.643  18.683  0.00  0.00    +0.000 N 
ATOM     30  C   UNL     1       8.172   5.743  19.787  0.00  0.00    +0.000 C 
ENDBRANCH  24  25
ENDBRANCH  23  24
ENDBRANCH   1  23
TORSDOF 5
ENDMDL
MODEL 3
REMARK VINA RESULT:      -9.6      4.099      8.866
REMARK  Name = 
REMARK  7 active torsions:
REMARK  status: ('A' for Active; 'I' for Inactive)
REMARK    1  A    between atoms: C_1  and  C_2
REMARK    2  A    between atoms: C_2  and  S_3
REMARK    3  A    between atoms: C_2  and  C_10
REMARK    4  A    between atoms: S_3  and  C_4
REMARK    5  A    between atoms: N_8  and  C_9
REMARK    6  A    between atoms: C_15  and  N_16
REMARK    7  A    between atoms: C_23  and  C_24
REMARK                            x       y       z     vdW  Elec       q    Type
REMARK                         _______ _______ _______ _____ _____    ______ ____
ROOT
ATOM      1  C   UNL     1       0.525  10.367  19.747  0.00  0.00    +0.000 A 
ATOM      2  C   UNL     1       0.437  10.401  21.145  0.00  0.00    +0.000 A 
ATOM      3  C   UNL     1       0.934   9.345  21.904  0.00  0.00    +0.000 A 
ATOM      4  F   UNL     1       0.872   9.416  23.241  0.00  0.00    +0.000 F 
ATOM      5  C   UNL     1       1.512   8.225  21.309  0.00  0.00    +0.000 A 
ATOM      6  C   UNL     1       1.624   8.153  19.920  0.00  0.00    +0.000 A 
ATOM      7  C   UNL     1       1.123   9.230  19.164  0.00  0.00    +0.000 A 
ENDROOT
BRANCH   6   8
ATOM      8  N   UNL     1       2.238   7.057  19.262  0.00  0.00    +0.000 N 
ATOM      9  C   UNL     1       3.196   7.243  18.177  0.00  0.00    +0.000 C 
ATOM     10  C   UNL     1       3.650   5.856  17.858  0.00  0.00    +0.000 A 
ATOM     11  C   UNL     1       2.961   4.955  18.667  0.00  0.00    +0.000 A 
ATOM     12  C   UNL     1       3.160   3.589  18.598  0.00  0.00    +0.000 A 
ATOM     13  C   UNL     1       4.090   3.121  17.672  0.00  0.00    +0.000 A 
ATOM     14  C   UNL     1       4.797   4.020  16.852  0.00  0.00    +0.000 A 
ATOM     15  C   UNL     1       4.590   5.411  16.933  0.00  0.00    +0.000 A 
ATOM     16  C   UNL     1       2.072   5.703  19.563  0.00  0.00    +0.000 C 
ATOM     17  O   UNL     1       1.360   5.152  20.382  0.00  0.00    +0.000 OA
BRANCH  15  18
ATOM     18  C   UNL     1       5.382   6.343  16.052  0.00  0.00    +0.000 C 
ATOM     19  F   UNL     1       6.161   7.219  16.746  0.00  0.00    +0.000 F 
ATOM     20  F   UNL     1       6.227   5.676  15.220  0.00  0.00    +0.000 F 
ATOM     21  F   UNL     1       4.586   7.104  15.253  0.00  0.00    +0.000 F 
ENDBRANCH  15  18
ENDBRANCH   6   8
BRANCH   1  23
ATOM     22  C   UNL     1       0.853  12.821  19.091  0.00  0.00    +0.000 C 
ATOM     23  C   UNL     1       0.017  11.545  18.905  0.00  0.00    +0.000 C 
BRANCH  23  24
ATOM     24  S   UNL     1      -1.746  11.850  19.342  0.00  0.00    +0.000 S 
BRANCH  24  25
ATOM     25  C   UNL     1      -2.608  11.424  17.911  0.00  0.00    +0.000 A 
ATOM     26  N   UNL     1      -2.127  10.946  16.788  0.00  0.00    +0.000 NA
ATOM     27  N   UNL     1      -3.155  10.895  15.874  0.00  0.00    +0.000 NA
ATOM     28  C   UNL     1      -4.245  11.306  16.482  0.00  0.00    +0.000 A 
ATOM     29  N   UNL     1      -3.955  11.608  17.780  0.00  0.00    +0.000 N 
ATOM     30  C   UNL     1      -4.900  12.009  18.786  0.00  0.00    +0.000 C 
ENDBRANCH  24  25
ENDBRANCH  23  24
ENDBRANCH   1  23
TORSDOF 5
ENDMDL
MODEL 4
REMARK VINA RESULT:      -9.5      4.109      8.428
REMARK  Name = 
REMARK  7 active torsions:
REMARK  status: ('A' for Active; 'I' for Inactive)
REMARK    1  A    between atoms: C_1  and  C_2
REMARK    2  A    between atoms: C_2  and  S_3
REMARK    3  A    between atoms: C_2  and  C_10
REMARK    4  A    between atoms: S_3  and  C_4
REMARK    5  A    between atoms: N_8  and  C_9
REMARK    6  A    between atoms: C_15  and  N_16
REMARK    7  A    between atoms: C_23  and  C_24
REMARK                            x       y       z     vdW  Elec       q    Type
REMARK                         _______ _______ _______ _____ _____    ______ ____
ROOT
ATOM      1  C   UNL     1      -0.405  10.995  20.117  0.00  0.00    +0.000 A 
ATOM      2  C   UNL     1      -0.672  11.095  21.489  0.00  0.00    +0.000 A 
ATOM      3  C   UNL     1      -0.210  10.116  22.365  0.00  0.00    +0.000 A 
ATOM      4  F   UNL     1      -0.445  10.250  23.678  0.00  0.00    +0.000 F 
ATOM      5  C   UNL     1       0.507   9.010  21.913  0.00  0.00    +0.000 A 
ATOM      6  C   UNL     1       0.798   8.875  20.555  0.00  0.00    +0.000 A 
ATOM      7  C   UNL     1       0.331   9.874  19.681  0.00  0.00    +0.000 A 
ENDROOT
BRANCH   6   8
ATOM      8  N   UNL     1       1.559   7.792  20.043  0.00  0.00    +0.000 N 
ATOM      9  C   UNL     1       1.549   6.474  20.669  0.00  0.00    +0.000 C 
ATOM     10  C   UNL     1       2.390   5.640  19.760  0.00  0.00    +0.000 A 
ATOM     11  C   UNL     1       2.878   6.440  18.729  0.00  0.00    +0.000 A 
ATOM     12  C   UNL     1       3.698   5.951  17.730  0.00  0.00    +0.000 A 
ATOM     13  C   UNL     1       4.037   4.600  17.781  0.00  0.00    +0.000 A 
ATOM     14  C   UNL     1       3.548   3.778  18.813  0.00  0.00    +0.000 A 
ATOM     15  C   UNL     1       2.709   4.286  19.825  0.00  0.00    +0.000 A 
ATOM     16  C   UNL     1       2.352   7.800  18.893  0.00  0.00    +0.000 C 
ATOM     17  O   UNL     1       2.619   8.699  18.117  0.00  0.00    +0.000 OA
BRANCH  15  18
ATOM     18  C   UNL     1       2.189   3.369  20.902  0.00  0.00    +0.000 C 
ATOM     19  F   UNL     1       0.837   3.202  20.869  0.00  0.00    +0.000 F 
ATOM     20  F   UNL     1       2.718   2.118  20.818  0.00  0.00    +0.000 F 
ATOM     21  F   UNL     1       2.478   3.820  22.153  0.00  0.00    +0.000 F 
ENDBRANCH  15  18
ENDBRANCH   6   8
BRANCH   1  23
ATOM     22  C   UNL     1      -0.467  13.503  19.598  0.00  0.00    +0.000 C 
ATOM     23  C   UNL     1      -0.876  12.091  19.150  0.00  0.00    +0.000 C 
BRANCH  23  24
ATOM     24  S   UNL     1      -2.706  11.965  18.980  0.00  0.00    +0.000 S 
BRANCH  24  25
ATOM     25  C   UNL     1      -2.928  11.194  17.454  0.00  0.00    +0.000 A 
ATOM     26  N   UNL     1      -2.077  10.446  16.793  0.00  0.00    +0.000 NA
ATOM     27  N   UNL     1      -2.624  10.170  15.560  0.00  0.00    +0.000 NA
ATOM     28  C   UNL     1      -3.813  10.727  15.522  0.00  0.00    +0.000 A 
ATOM     29  N   UNL     1      -4.064  11.346  16.710  0.00  0.00    +0.000 N 
ATOM     30  C   UNL     1      -5.291  11.993  17.084  0.00  0.00    +0.000 C 
ENDBRANCH  24  25
ENDBRANCH  23  24
ENDBRANCH   1  23
TORSDOF 5
ENDMDL
MODEL 5
REMARK VINA RESULT:      -9.5      3.799      8.525
REMARK  Name = 
REMARK  7 active torsions:
REMARK  status: ('A' for Active; 'I' for Inactive)
REMARK    1  A    between atoms: C_1  and  C_2
REMARK    2  A    between atoms: C_2  and  S_3
REMARK    3  A    between atoms: C_2  and  C_10
REMARK    4  A    between atoms: S_3  and  C_4
REMARK    5  A    between atoms: N_8  and  C_9
REMARK    6  A    between atoms: C_15  and  N_16
REMARK    7  A    between atoms: C_23  and  C_24
REMARK                            x       y       z     vdW  Elec       q    Type
REMARK                         _______ _______ _______ _____ _____    ______ ____
ROOT
ATOM      1  C   UNL     1       0.458  10.442  19.759  0.00  0.00    +0.000 A 
ATOM      2  C   UNL     1       0.322  10.538  21.151  0.00  0.00    +0.000 A 
ATOM      3  C   UNL     1       0.754   9.499  21.970  0.00  0.00    +0.000 A 
ATOM      4  F   UNL     1       0.648   9.628  23.300  0.00  0.00    +0.000 F 
ATOM      5  C   UNL     1       1.311   8.336  21.443  0.00  0.00    +0.000 A 
ATOM      6  C   UNL     1       1.468   8.201  20.063  0.00  0.00    +0.000 A 
ATOM      7  C   UNL     1       1.034   9.262  19.246  0.00  0.00    +0.000 A 
ENDROOT
BRANCH   6   8
ATOM      8  N   UNL     1       2.065   7.058  19.472  0.00  0.00    +0.000 N 
ATOM      9  C   UNL     1       1.719   5.701  19.886  0.00  0.00    +0.000 C 
ATOM     10  C   UNL     1       2.495   4.833  18.951  0.00  0.00    +0.000 A 
ATOM     11  C   UNL     1       3.258   5.638  18.109  0.00  0.00    +0.000 A 
ATOM     12  C   UNL     1       4.091   5.120  17.136  0.00  0.00    +0.000 A 
ATOM     13  C   UNL     1       4.153   3.733  17.015  0.00  0.00    +0.000 A 
ATOM     14  C   UNL     1       3.385   2.907  17.856  0.00  0.00    +0.000 A 
ATOM     15  C   UNL     1       2.535   3.445  18.842  0.00  0.00    +0.000 A 
ATOM     16  C   UNL     1       2.989   7.046  18.423  0.00  0.00    +0.000 C 
ATOM     17  O   UNL     1       3.523   7.960  17.824  0.00  0.00    +0.000 OA
BRANCH  15  18
ATOM     18  C   UNL     1       1.711   2.528  19.709  0.00  0.00    +0.000 C 
ATOM     19  F   UNL     1       0.380   2.819  19.699  0.00  0.00    +0.000 F 
ATOM     20  F   UNL     1       1.808   1.226  19.324  0.00  0.00    +0.000 F 
ATOM     21  F   UNL     1       2.092   2.567  21.014  0.00  0.00    +0.000 F 
ENDBRANCH  15  18
ENDBRANCH   6   8
BRANCH   1  23
ATOM     22  C   UNL     1       0.896  12.854  19.017  0.00  0.00    +0.000 C 
ATOM     23  C   UNL     1       0.022  11.601  18.852  0.00  0.00    +0.000 C 
BRANCH  23  24
ATOM     24  S   UNL     1      -1.744  11.984  19.211  0.00  0.00    +0.000 S 
BRANCH  24  25
ATOM     25  C   UNL     1      -2.581  11.433  17.808  0.00  0.00    +0.000 A 
ATOM     26  N   UNL     1      -2.073  10.946  16.700  0.00  0.00    +0.000 NA
ATOM     27  N   UNL     1      -3.101  10.778  15.801  0.00  0.00    +0.000 NA
ATOM     28  C   UNL     1      -4.214  11.130  16.403  0.00  0.00    +0.000 A 
ATOM     29  N   UNL     1      -3.939  11.508  17.684  0.00  0.00    +0.000 N 
ATOM     30  C   UNL     1      -4.904  11.878  18.682  0.00  0.00    +0.000 C 
ENDBRANCH  24  25
ENDBRANCH  23  24
ENDBRANCH   1  23
TORSDOF 5
ENDMDL
MODEL 6
REMARK VINA RESULT:      -9.5      1.084      1.306
REMARK  Name = 
REMARK  7 active torsions:
REMARK  status: ('A' for Active; 'I' for Inactive)
REMARK    1  A    between atoms: C_1  and  C_2
REMARK    2  A    between atoms: C_2  and  S_3
REMARK    3  A    between atoms: C_2  and  C_10
REMARK    4  A    between atoms: S_3  and  C_4
REMARK    5  A    between atoms: N_8  and  C_9
REMARK    6  A    between atoms: C_15  and  N_16
REMARK    7  A    between atoms: C_23  and  C_24
REMARK                            x       y       z     vdW  Elec       q    Type
REMARK                         _______ _______ _______ _____ _____    ______ ____
ROOT
ATOM      1  C   UNL     1       4.884   5.124  19.136  0.00  0.00    +0.000 A 
ATOM      2  C   UNL     1       4.330   3.903  19.546  0.00  0.00    +0.000 A 
ATOM      3  C   UNL     1       3.029   3.855  20.037  0.00  0.00    +0.000 A 
ATOM      4  F   UNL     1       2.507   2.671  20.389  0.00  0.00    +0.000 F 
ATOM      5  C   UNL     1       2.248   5.004  20.155  0.00  0.00    +0.000 A 
ATOM      6  C   UNL     1       2.760   6.238  19.754  0.00  0.00    +0.000 A 
ATOM      7  C   UNL     1       4.074   6.273  19.253  0.00  0.00    +0.000 A 
ENDROOT
BRANCH   6   8
ATOM      8  N   UNL     1       1.998   7.434  19.813  0.00  0.00    +0.000 N 
ATOM      9  C   UNL     1       1.277   7.834  21.017  0.00  0.00    +0.000 C 
ATOM     10  C   UNL     1       0.712   9.172  20.667  0.00  0.00    +0.000 A 
ATOM     11  C   UNL     1       1.047   9.478  19.350  0.00  0.00    +0.000 A 
ATOM     12  C   UNL     1       0.658  10.652  18.735  0.00  0.00    +0.000 A 
ATOM     13  C   UNL     1      -0.102  11.548  19.485  0.00  0.00    +0.000 A 
ATOM     14  C   UNL     1      -0.444  11.256  20.818  0.00  0.00    +0.000 A 
ATOM     15  C   UNL     1      -0.039  10.057  21.437  0.00  0.00    +0.000 A 
ATOM     16  C   UNL     1       1.867   8.390  18.803  0.00  0.00    +0.000 C 
ATOM     17  O   UNL     1       2.302   8.412  17.667  0.00  0.00    +0.000 OA
BRANCH  15  18
ATOM     18  C   UNL     1      -0.407   9.789  22.873  0.00  0.00    +0.000 C 
ATOM     19  F   UNL     1       0.670   9.617  23.690  0.00  0.00    +0.000 F 
ATOM     20  F   UNL     1      -1.128  10.805  23.421  0.00  0.00    +0.000 F 
ATOM     21  F   UNL     1      -1.164   8.667  23.015  0.00  0.00    +0.000 F 
ENDBRANCH  15  18
ENDBRANCH   6   8
BRANCH   1  23
ATOM     22  C   UNL     1       7.370   5.519  19.608  0.00  0.00    +0.000 C 
ATOM     23  C   UNL     1       6.304   5.180  18.555  0.00  0.00    +0.000 C 
BRANCH  23  24
ATOM     24  S   UNL     1       6.321   6.413  17.187  0.00  0.00    +0.000 S 
BRANCH  24  25
ATOM     25  C   UNL     1       6.558   5.458  15.771  0.00  0.00    +0.000 A 
ATOM     26  N   UNL     1       7.578   5.473  14.945  0.00  0.00    +0.000 NA
ATOM     27  N   UNL     1       7.273   4.656  13.880  0.00  0.00    +0.000 NA
ATOM     28  C   UNL     1       6.089   4.134  14.109  0.00  0.00    +0.000 A 
ATOM     29  N   UNL     1       5.621   4.578  15.310  0.00  0.00    +0.000 N 
ATOM     30  C   UNL     1       4.400   4.165  15.947  0.00  0.00    +0.000 C 
ENDBRANCH  24  25
ENDBRANCH  23  24
ENDBRANCH   1  23
TORSDOF 5
ENDMDL
MODEL 7
REMARK VINA RESULT:      -9.3      2.734      3.810
REMARK  Name = 
REMARK  7 active torsions:
REMARK  status: ('A' for Active; 'I' for Inactive)
REMARK    1  A    between atoms: C_1  and  C_2
REMARK    2  A    between atoms: C_2  and  S_3
REMARK    3  A    between atoms: C_2  and  C_10
REMARK    4  A    between atoms: S_3  and  C_4
REMARK    5  A    between atoms: N_8  and  C_9
REMARK    6  A    between atoms: C_15  and  N_16
REMARK    7  A    between atoms: C_23  and  C_24
REMARK                            x       y       z     vdW  Elec       q    Type
REMARK                         _______ _______ _______ _____ _____    ______ ____
ROOT
ATOM      1  C   UNL     1       4.437   4.642  16.695  0.00  0.00    +0.000 A 
ATOM      2  C   UNL     1       3.787   3.400  16.706  0.00  0.00    +0.000 A 
ATOM      3  C   UNL     1       2.662   3.207  17.503  0.00  0.00    +0.000 A 
ATOM      4  F   UNL     1       2.034   2.023  17.470  0.00  0.00    +0.000 F 
ATOM      5  C   UNL     1       2.160   4.219  18.318  0.00  0.00    +0.000 A 
ATOM      6  C   UNL     1       2.775   5.472  18.333  0.00  0.00    +0.000 A 
ATOM      7  C   UNL     1       3.907   5.657  17.518  0.00  0.00    +0.000 A 
ENDROOT
BRANCH   6   8
ATOM      8  N   UNL     1       2.285   6.551  19.112  0.00  0.00    +0.000 N 
ATOM      9  C   UNL     1       2.050   7.874  18.543  0.00  0.00    +0.000 C 
ATOM     10  C   UNL     1       1.456   8.650  19.672  0.00  0.00    +0.000 A 
ATOM     11  C   UNL     1       1.407   7.840  20.805  0.00  0.00    +0.000 A 
ATOM     12  C   UNL     1       0.912   8.282  22.017  0.00  0.00    +0.000 A 
ATOM     13  C   UNL     1       0.452   9.596  22.082  0.00  0.00    +0.000 A 
ATOM     14  C   UNL     1       0.490  10.425  20.945  0.00  0.00    +0.000 A 
ATOM     15  C   UNL     1       0.993   9.962  19.713  0.00  0.00    +0.000 A 
ATOM     16  C   UNL     1       1.921   6.509  20.461  0.00  0.00    +0.000 C 
ATOM     17  O   UNL     1       1.980   5.605  21.273  0.00  0.00    +0.000 OA
BRANCH  15  18
ATOM     18  C   UNL     1       0.997  10.873  18.512  0.00  0.00    +0.000 C 
ATOM     19  F   UNL     1       0.201  10.439  17.495  0.00  0.00    +0.000 F 
ATOM     20  F   UNL     1       0.563  12.128  18.811  0.00  0.00    +0.000 F 
ATOM     21  F   UNL     1       2.239  11.020  17.975  0.00  0.00    +0.000 F 
ENDBRANCH  15  18
ENDBRANCH   6   8
BRANCH   1  23
ATOM     22  C   UNL     1       5.690   3.930  14.577  0.00  0.00    +0.000 C 
ATOM     23  C   UNL     1       5.654   4.876  15.789  0.00  0.00    +0.000 C 
BRANCH  23  24
ATOM     24  S   UNL     1       7.177   4.692  16.807  0.00  0.00    +0.000 S 
BRANCH  24  25
ATOM     25  C   UNL     1       7.498   6.291  17.366  0.00  0.00    +0.000 A 
ATOM     26  N   UNL     1       7.418   7.415  16.695  0.00  0.00    +0.000 NA
ATOM     27  N   UNL     1       7.905   8.423  17.495  0.00  0.00    +0.000 NA
ATOM     28  C   UNL     1       8.231   7.887  18.650  0.00  0.00    +0.000 A 
ATOM     29  N   UNL     1       7.950   6.553  18.628  0.00  0.00    +0.000 N 
ATOM     30  C   UNL     1       8.087   5.642  19.731  0.00  0.00    +0.000 C 
ENDBRANCH  24  25
ENDBRANCH  23  24
ENDBRANCH   1  23
TORSDOF 5
ENDMDL
MODEL 8
REMARK VINA RESULT:      -9.1      3.828      8.522
REMARK  Name = 
REMARK  7 active torsions:
REMARK  status: ('A' for Active; 'I' for Inactive)
REMARK    1  A    between atoms: C_1  and  C_2
REMARK    2  A    between atoms: C_2  and  S_3
REMARK    3  A    between atoms: C_2  and  C_10
REMARK    4  A    between atoms: S_3  and  C_4
REMARK    5  A    between atoms: N_8  and  C_9
REMARK    6  A    between atoms: C_15  and  N_16
REMARK    7  A    between atoms: C_23  and  C_24
REMARK                            x       y       z     vdW  Elec       q    Type
REMARK                         _______ _______ _______ _____ _____    ______ ____
ROOT
ATOM      1  C   UNL     1       0.181  10.748  20.367  0.00  0.00    +0.000 A 
ATOM      2  C   UNL     1      -0.066  10.725  21.747  0.00  0.00    +0.000 A 
ATOM      3  C   UNL     1       0.308   9.620  22.506  0.00  0.00    +0.000 A 
ATOM      4  F   UNL     1       0.096   9.634  23.829  0.00  0.00    +0.000 F 
ATOM      5  C   UNL     1       0.914   8.506  21.927  0.00  0.00    +0.000 A 
ATOM      6  C   UNL     1       1.181   8.490  20.558  0.00  0.00    +0.000 A 
ATOM      7  C   UNL     1       0.805   9.617  19.802  0.00  0.00    +0.000 A 
ENDROOT
BRANCH   6   8
ATOM      8  N   UNL     1       1.831   7.402  19.921  0.00  0.00    +0.000 N 
ATOM      9  C   UNL     1       1.709   6.032  20.410  0.00  0.00    +0.000 C 
ATOM     10  C   UNL     1       2.458   5.224  19.402  0.00  0.00    +0.000 A 
ATOM     11  C   UNL     1       3.002   6.079  18.446  0.00  0.00    +0.000 A 
ATOM     12  C   UNL     1       3.760   5.624  17.384  0.00  0.00    +0.000 A 
ATOM     13  C   UNL     1       3.974   4.250  17.290  0.00  0.00    +0.000 A 
ATOM     14  C   UNL     1       3.426   3.374  18.245  0.00  0.00    +0.000 A 
ATOM     15  C   UNL     1       2.652   3.848  19.322  0.00  0.00    +0.000 A 
ATOM     16  C   UNL     1       2.607   7.457  18.759  0.00  0.00    +0.000 C 
ATOM     17  O   UNL     1       2.944   8.403  18.073  0.00  0.00    +0.000 OA
BRANCH  15  18
ATOM     18  C   UNL     1       2.065   2.875  20.312  0.00  0.00    +0.000 C 
ATOM     19  F   UNL     1       2.731   2.838  21.500  0.00  0.00    +0.000 F 
ATOM     20  F   UNL     1       0.773   3.168  20.622  0.00  0.00    +0.000 F 
ATOM     21  F   UNL     1       2.062   1.597  19.846  0.00  0.00    +0.000 F 
ENDBRANCH  15  18
ENDBRANCH   6   8
BRANCH   1  23
ATOM     22  C   UNL     1      -1.144  11.652  18.370  0.00  0.00    +0.000 C 
ATOM     23  C   UNL     1      -0.191  11.980  19.530  0.00  0.00    +0.000 C 
BRANCH  23  24
ATOM     24  S   UNL     1       1.363  12.744  18.903  0.00  0.00    +0.000 S 
BRANCH  24  25
ATOM     25  C   UNL     1       1.890  13.743  20.205  0.00  0.00    +0.000 A 
ATOM     26  N   UNL     1       2.597  13.399  21.256  0.00  0.00    +0.000 NA
ATOM     27  N   UNL     1       2.653  14.482  22.102  0.00  0.00    +0.000 NA
ATOM     28  C   UNL     1       2.011  15.470  21.522  0.00  0.00    +0.000 A 
ATOM     29  N   UNL     1       1.551  15.062  20.305  0.00  0.00    +0.000 N 
ATOM     30  C   UNL     1       0.876  15.883  19.338  0.00  0.00    +0.000 C 
ENDBRANCH  24  25
ENDBRANCH  23  24
ENDBRANCH   1  23
TORSDOF 5
ENDMDL
MODEL 9
REMARK VINA RESULT:      -9.1      3.917      8.765
REMARK  Name = 
REMARK  7 active torsions:
REMARK  status: ('A' for Active; 'I' for Inactive)
REMARK    1  A    between atoms: C_1  and  C_2
REMARK    2  A    between atoms: C_2  and  S_3
REMARK    3  A    between atoms: C_2  and  C_10
REMARK    4  A    between atoms: S_3  and  C_4
REMARK    5  A    between atoms: N_8  and  C_9
REMARK    6  A    between atoms: C_15  and  N_16
REMARK    7  A    between atoms: C_23  and  C_24
REMARK                            x       y       z     vdW  Elec       q    Type
REMARK                         _______ _______ _______ _____ _____    ______ ____
ROOT
ATOM      1  C   UNL     1       0.555  10.439  20.161  0.00  0.00    +0.000 A 
ATOM      2  C   UNL     1       0.444  10.398  21.557  0.00  0.00    +0.000 A 
ATOM      3  C   UNL     1       0.892   9.285  22.263  0.00  0.00    +0.000 A 
ATOM      4  F   UNL     1       0.810   9.283  23.601  0.00  0.00    +0.000 F 
ATOM      5  C   UNL     1       1.441   8.181  21.615  0.00  0.00    +0.000 A 
ATOM      6  C   UNL     1       1.574   8.182  20.226  0.00  0.00    +0.000 A 
ATOM      7  C   UNL     1       1.124   9.316  19.524  0.00  0.00    +0.000 A 
ENDROOT
BRANCH   6   8
ATOM      8  N   UNL     1       2.161   7.104  19.515  0.00  0.00    +0.000 N 
ATOM      9  C   UNL     1       3.105   7.317  18.422  0.00  0.00    +0.000 C 
ATOM     10  C   UNL     1       3.532   5.937  18.044  0.00  0.00    +0.000 A 
ATOM     11  C   UNL     1       2.844   5.016  18.829  0.00  0.00    +0.000 A 
ATOM     12  C   UNL     1       3.021   3.651  18.706  0.00  0.00    +0.000 A 
ATOM     13  C   UNL     1       3.930   3.206  17.747  0.00  0.00    +0.000 A 
ATOM     14  C   UNL     1       4.636   4.125  16.949  0.00  0.00    +0.000 A 
ATOM     15  C   UNL     1       4.451   5.515  17.087  0.00  0.00    +0.000 A 
ATOM     16  C   UNL     1       1.980   5.741  19.769  0.00  0.00    +0.000 C 
ATOM     17  O   UNL     1       1.274   5.169  20.578  0.00  0.00    +0.000 OA
BRANCH  15  18
ATOM     18  C   UNL     1       5.242   6.468  16.228  0.00  0.00    +0.000 C 
ATOM     19  F   UNL     1       4.466   7.252  15.427  0.00  0.00    +0.000 F 
ATOM     20  F   UNL     1       5.996   7.326  16.967  0.00  0.00    +0.000 F 
ATOM     21  F   UNL     1       6.105   5.824  15.396  0.00  0.00    +0.000 F 
ENDBRANCH  15  18
ENDBRANCH   6   8
BRANCH   1  23
ATOM     22  C   UNL     1      -0.853  11.344  18.222  0.00  0.00    +0.000 C 
ATOM     23  C   UNL     1       0.102  11.680  19.379  0.00  0.00    +0.000 C 
BRANCH  23  24
ATOM     24  S   UNL     1       1.600  12.552  18.758  0.00  0.00    +0.000 S 
BRANCH  24  25
ATOM     25  C   UNL     1       2.031  13.608  20.050  0.00  0.00    +0.000 A 
ATOM     26  N   UNL     1       2.546  13.294  21.216  0.00  0.00    +0.000 NA
ATOM     27  N   UNL     1       2.586  14.436  21.983  0.00  0.00    +0.000 NA
ATOM     28  C   UNL     1       2.131  15.423  21.245  0.00  0.00    +0.000 A 
ATOM     29  N   UNL     1       1.811  14.955  20.006  0.00  0.00    +0.000 N 
ATOM     30  C   UNL     1       1.362  15.746  18.893  0.00  0.00    +0.000 C 
ENDBRANCH  24  25
ENDBRANCH  23  24
ENDBRANCH   1  23
TORSDOF 5
ENDMDL
