MODEL 1
REMARK VINA RESULT:      -8.4      0.000      0.000
REMARK  Name = 
REMARK  11 active torsions:
REMARK  status: ('A' for Active; 'I' for Inactive)
REMARK    1  A    between atoms: C_1  and  C_2
REMARK    2  A    between atoms: C_2  and  S_3
REMARK    3  A    between atoms: C_2  and  C_10
REMARK    4  A    between atoms: S_3  and  C_4
REMARK    5  A    between atoms: N_8  and  C_9
REMARK    6  A    between atoms: C_14  and  N_15
REMARK    7  A    between atoms: C_16  and  C_18
REMARK    8  A    between atoms: C_22  and  O_23
REMARK    9  A    between atoms: O_23  and  C_24
REMARK   10  A    between atoms: C_24  and  C_25
REMARK   11  A    between atoms: C_25  and  O_27
REMARK                            x       y       z     vdW  Elec       q    Type
REMARK                         _______ _______ _______ _____ _____    ______ ____
ROOT
ATOM      1  N   UNL     1       7.153   8.276  17.476  0.00  0.00    +0.000 N 
ATOM      2  C   UNL     1       8.198   8.320  18.392  0.00  0.00    +0.000 C 
ATOM      3  O   UNL     1       8.626   7.338  19.008  0.00  0.00    +0.000 OA
ATOM      4  H   UNL     1       6.857   9.164  17.081  0.00  0.00    +0.000 HD
ENDROOT
BRANCH   2   5
ATOM      5  C   UNL     1       8.888   9.624  18.680  0.00  0.00    +0.000 A 
ATOM      6  C   UNL     1       9.436  10.273  17.576  0.00  0.00    +0.000 A 
ATOM      7  C   UNL     1      10.211  11.403  17.758  0.00  0.00    +0.000 A 
ATOM      8  C   UNL     1      10.241  12.020  19.006  0.00  0.00    +0.000 A 
ATOM      9  C   UNL     1      10.784  13.325  19.172  0.00  0.00    +0.000 A 
ATOM     10  C   UNL     1      10.618  13.959  20.401  0.00  0.00    +0.000 A 
ATOM     11  C   UNL     1      10.066  13.268  21.475  0.00  0.00    +0.000 A 
ATOM     12  C   UNL     1       9.608  11.955  21.317  0.00  0.00    +0.000 A 
ATOM     13  C   UNL     1       9.614  11.320  20.083  0.00  0.00    +0.000 A 
ATOM     14  N   UNL     1       8.995  10.111  19.943  0.00  0.00    +0.000 NA
BRANCH   9  15
ATOM     15  O   UNL     1      11.389  13.931  18.076  0.00  0.00    +0.000 OA
BRANCH  15  16
ATOM     16  C   UNL     1      11.351  15.362  18.075  0.00  0.00    +0.000 C 
BRANCH  16  17
ATOM     17  C   UNL     1      10.292  16.001  17.187  0.00  0.00    +0.000 C 
ATOM     18  O   UNL     1       9.193  16.341  17.602  0.00  0.00    +0.000 OA
BRANCH  17  19
ATOM     19  O   UNL     1      10.644  16.146  15.895  0.00  0.00    +0.000 OA
ATOM     20  H   UNL     1      11.053  15.312  15.570  0.00  0.00    +0.000 HD
ENDBRANCH  17  19
ENDBRANCH  16  17
ENDBRANCH  15  16
ENDBRANCH   9  15
ENDBRANCH   2   5
BRANCH   1  25
ATOM     21  C   UNL     1       4.446   5.683  17.145  0.00  0.00    +0.000 A 
ATOM     22  C   UNL     1       5.045   4.784  16.247  0.00  0.00    +0.000 A 
ATOM     23  C   UNL     1       6.332   5.010  15.783  0.00  0.00    +0.000 A 
ATOM     24  C   UNL     1       7.036   6.143  16.194  0.00  0.00    +0.000 A 
ATOM     25  C   UNL     1       6.469   7.090  17.061  0.00  0.00    +0.000 A 
ATOM     26  C   UNL     1       5.164   6.845  17.526  0.00  0.00    +0.000 A 
BRANCH  21  28
ATOM     27  C   UNL     1       2.879   5.998  19.111  0.00  0.00    +0.000 C 
ATOM     28  C   UNL     1       3.043   5.411  17.700  0.00  0.00    +0.000 C 
BRANCH  28  29
ATOM     29  S   UNL     1       2.714   3.602  17.648  0.00  0.00    +0.000 S 
BRANCH  29  30
ATOM     30  C   UNL     1       2.246   3.209  19.269  0.00  0.00    +0.000 A 
ATOM     31  N   UNL     1       1.050   3.325  19.802  0.00  0.00    +0.000 NA
ATOM     32  N   UNL     1       1.149   2.996  21.135  0.00  0.00    +0.000 NA
ATOM     33  C   UNL     1       2.397   2.662  21.366  0.00  0.00    +0.000 A 
ATOM     34  N   UNL     1       3.119   2.747  20.213  0.00  0.00    +0.000 N 
ATOM     35  C   UNL     1       4.494   2.384  20.052  0.00  0.00    +0.000 C 
ENDBRANCH  29  30
ENDBRANCH  28  29
ENDBRANCH  21  28
ENDBRANCH   1  25
TORSDOF 9
ENDMDL
MODEL 2
REMARK VINA RESULT:      -8.3      6.837     10.170
REMARK  Name = 
REMARK  11 active torsions:
REMARK  status: ('A' for Active; 'I' for Inactive)
REMARK    1  A    between atoms: C_1  and  C_2
REMARK    2  A    between atoms: C_2  and  S_3
REMARK    3  A    between atoms: C_2  and  C_10
REMARK    4  A    between atoms: S_3  and  C_4
REMARK    5  A    between atoms: N_8  and  C_9
REMARK    6  A    between atoms: C_14  and  N_15
REMARK    7  A    between atoms: C_16  and  C_18
REMARK    8  A    between atoms: C_22  and  O_23
REMARK    9  A    between atoms: O_23  and  C_24
REMARK   10  A    between atoms: C_24  and  C_25
REMARK   11  A    between atoms: C_25  and  O_27
REMARK                            x       y       z     vdW  Elec       q    Type
REMARK                         _______ _______ _______ _____ _____    ______ ____
ROOT
ATOM      1  N   UNL     1       0.525   9.073  18.942  0.00  0.00    +0.000 N 
ATOM      2  C   UNL     1       1.690   9.040  18.184  0.00  0.00    +0.000 C 
ATOM      3  O   UNL     1       2.092   9.976  17.484  0.00  0.00    +0.000 OA
ATOM      4  H   UNL     1       0.274   8.217  19.428  0.00  0.00    +0.000 HD
ENDROOT
BRANCH   2   5
ATOM      5  C   UNL     1       2.554   7.810  18.191  0.00  0.00    +0.000 A 
ATOM      6  C   UNL     1       3.726   7.892  17.444  0.00  0.00    +0.000 A 
ATOM      7  C   UNL     1       4.511   6.767  17.274  0.00  0.00    +0.000 A 
ATOM      8  C   UNL     1       4.259   5.632  18.040  0.00  0.00    +0.000 A 
ATOM      9  C   UNL     1       5.198   4.565  18.111  0.00  0.00    +0.000 A 
ATOM     10  C   UNL     1       4.974   3.546  19.034  0.00  0.00    +0.000 A 
ATOM     11  C   UNL     1       3.785   3.507  19.757  0.00  0.00    +0.000 A 
ATOM     12  C   UNL     1       2.834   4.524  19.617  0.00  0.00    +0.000 A 
ATOM     13  C   UNL     1       3.063   5.639  18.822  0.00  0.00    +0.000 A 
ATOM     14  N   UNL     1       2.186   6.685  18.858  0.00  0.00    +0.000 NA
BRANCH   9  15
ATOM     15  O   UNL     1       6.331   4.630  17.307  0.00  0.00    +0.000 OA
BRANCH  15  16
ATOM     16  C   UNL     1       7.577   4.630  18.011  0.00  0.00    +0.000 C 
BRANCH  16  17
ATOM     17  C   UNL     1       7.822   5.817  18.934  0.00  0.00    +0.000 C 
ATOM     18  O   UNL     1       7.987   6.957  18.521  0.00  0.00    +0.000 OA
BRANCH  17  19
ATOM     19  O   UNL     1       7.870   5.518  20.246  0.00  0.00    +0.000 OA
ATOM     20  H   UNL     1       7.395   4.672  20.408  0.00  0.00    +0.000 HD
ENDBRANCH  17  19
ENDBRANCH  16  17
ENDBRANCH  15  16
ENDBRANCH   9  15
ENDBRANCH   2   5
BRANCH   1  25
ATOM     21  C   UNL     1      -1.135  12.097  20.447  0.00  0.00    +0.000 A 
ATOM     22  C   UNL     1      -1.990  12.481  19.400  0.00  0.00    +0.000 A 
ATOM     23  C   UNL     1      -2.044  11.738  18.230  0.00  0.00    +0.000 A 
ATOM     24  C   UNL     1      -1.235  10.611  18.079  0.00  0.00    +0.000 A 
ATOM     25  C   UNL     1      -0.339  10.206  19.080  0.00  0.00    +0.000 A 
ATOM     26  C   UNL     1      -0.298  10.967  20.262  0.00  0.00    +0.000 A 
BRANCH  21  28
ATOM     27  C   UNL     1      -1.241  11.950  22.974  0.00  0.00    +0.000 C 
ATOM     28  C   UNL     1      -1.110  12.885  21.761  0.00  0.00    +0.000 C 
BRANCH  28  29
ATOM     29  S   UNL     1      -2.424  14.171  21.719  0.00  0.00    +0.000 S 
BRANCH  29  30
ATOM     30  C   UNL     1      -3.766  13.434  22.531  0.00  0.00    +0.000 A 
ATOM     31  N   UNL     1      -4.603  12.547  22.040  0.00  0.00    +0.000 NA
ATOM     32  N   UNL     1      -5.569  12.309  22.991  0.00  0.00    +0.000 NA
ATOM     33  C   UNL     1      -5.274  13.037  24.042  0.00  0.00    +0.000 A 
ATOM     34  N   UNL     1      -4.127  13.736  23.812  0.00  0.00    +0.000 N 
ATOM     35  C   UNL     1      -3.450  14.574  24.754  0.00  0.00    +0.000 C 
ENDBRANCH  29  30
ENDBRANCH  28  29
ENDBRANCH  21  28
ENDBRANCH   1  25
TORSDOF 9
ENDMDL
MODEL 3
REMARK VINA RESULT:      -8.3      1.302      1.751
REMARK  Name = 
REMARK  11 active torsions:
REMARK  status: ('A' for Active; 'I' for Inactive)
REMARK    1  A    between atoms: C_1  and  C_2
REMARK    2  A    between atoms: C_2  and  S_3
REMARK    3  A    between atoms: C_2  and  C_10
REMARK    4  A    between atoms: S_3  and  C_4
REMARK    5  A    between atoms: N_8  and  C_9
REMARK    6  A    between atoms: C_14  and  N_15
REMARK    7  A    between atoms: C_16  and  C_18
REMARK    8  A    between atoms: C_22  and  O_23
REMARK    9  A    between atoms: O_23  and  C_24
REMARK   10  A    between atoms: C_24  and  C_25
REMARK   11  A    between atoms: C_25  and  O_27
REMARK                            x       y       z     vdW  Elec       q    Type
REMARK                         _______ _______ _______ _____ _____    ______ ____
ROOT
ATOM      1  N   UNL     1       7.131   7.969  17.177  0.00  0.00    +0.000 N 
ATOM      2  C   UNL     1       8.066   8.268  18.162  0.00  0.00    +0.000 C 
ATOM      3  O   UNL     1       8.540   7.438  18.946  0.00  0.00    +0.000 OA
ATOM      4  H   UNL     1       6.777   8.752  16.635  0.00  0.00    +0.000 HD
ENDROOT
BRANCH   2   5
ATOM      5  C   UNL     1       8.567   9.676  18.318  0.00  0.00    +0.000 A 
ATOM      6  C   UNL     1       7.909  10.638  17.557  0.00  0.00    +0.000 A 
ATOM      7  C   UNL     1       8.390  11.934  17.524  0.00  0.00    +0.000 A 
ATOM      8  C   UNL     1       9.372  12.325  18.431  0.00  0.00    +0.000 A 
ATOM      9  C   UNL     1       9.691  13.697  18.629  0.00  0.00    +0.000 A 
ATOM     10  C   UNL     1      10.546  14.034  19.676  0.00  0.00    +0.000 A 
ATOM     11  C   UNL     1      11.181  13.035  20.408  0.00  0.00    +0.000 A 
ATOM     12  C   UNL     1      10.916  11.685  20.149  0.00  0.00    +0.000 A 
ATOM     13  C   UNL     1       9.967  11.289  19.216  0.00  0.00    +0.000 A 
ATOM     14  N   UNL     1       9.618   9.973  19.126  0.00  0.00    +0.000 NA
BRANCH   9  15
ATOM     15  O   UNL     1       9.076  14.641  17.813  0.00  0.00    +0.000 OA
BRANCH  15  16
ATOM     16  C   UNL     1       9.231  16.000  18.233  0.00  0.00    +0.000 C 
BRANCH  16  17
ATOM     17  C   UNL     1       7.946  16.810  18.361  0.00  0.00    +0.000 C 
ATOM     18  O   UNL     1       7.921  18.031  18.291  0.00  0.00    +0.000 OA
BRANCH  17  19
ATOM     19  O   UNL     1       6.835  16.083  18.581  0.00  0.00    +0.000 OA
ATOM     20  H   UNL     1       6.411  15.860  17.722  0.00  0.00    +0.000 HD
ENDBRANCH  17  19
ENDBRANCH  16  17
ENDBRANCH  15  16
ENDBRANCH   9  15
ENDBRANCH   2   5
BRANCH   1  25
ATOM     21  C   UNL     1       4.887   4.949  17.181  0.00  0.00    +0.000 A 
ATOM     22  C   UNL     1       5.578   4.102  16.298  0.00  0.00    +0.000 A 
ATOM     23  C   UNL     1       6.779   4.505  15.735  0.00  0.00    +0.000 A 
ATOM     24  C   UNL     1       7.303   5.764  16.031  0.00  0.00    +0.000 A 
ATOM     25  C   UNL     1       6.635   6.661  16.878  0.00  0.00    +0.000 A 
ATOM     26  C   UNL     1       5.419   6.237  17.444  0.00  0.00    +0.000 A 
BRANCH  21  28
ATOM     27  C   UNL     1       3.165   5.444  18.971  0.00  0.00    +0.000 C 
ATOM     28  C   UNL     1       3.585   4.487  17.845  0.00  0.00    +0.000 C 
BRANCH  28  29
ATOM     29  S   UNL     1       3.787   2.756  18.431  0.00  0.00    +0.000 S 
BRANCH  29  30
ATOM     30  C   UNL     1       2.957   2.723  19.952  0.00  0.00    +0.000 A 
ATOM     31  N   UNL     1       3.494   2.769  21.151  0.00  0.00    +0.000 NA
ATOM     32  N   UNL     1       2.481   2.617  22.071  0.00  0.00    +0.000 NA
ATOM     33  C   UNL     1       1.356   2.512  21.403  0.00  0.00    +0.000 A 
ATOM     34  N   UNL     1       1.601   2.608  20.066  0.00  0.00    +0.000 N 
ATOM     35  C   UNL     1       0.616   2.620  19.028  0.00  0.00    +0.000 C 
ENDBRANCH  29  30
ENDBRANCH  28  29
ENDBRANCH  21  28
ENDBRANCH   1  25
TORSDOF 9
ENDMDL
MODEL 4
REMARK VINA RESULT:      -8.3      1.344      1.600
REMARK  Name = 
REMARK  11 active torsions:
REMARK  status: ('A' for Active; 'I' for Inactive)
REMARK    1  A    between atoms: C_1  and  C_2
REMARK    2  A    between atoms: C_2  and  S_3
REMARK    3  A    between atoms: C_2  and  C_10
REMARK    4  A    between atoms: S_3  and  C_4
REMARK    5  A    between atoms: N_8  and  C_9
REMARK    6  A    between atoms: C_14  and  N_15
REMARK    7  A    between atoms: C_16  and  C_18
REMARK    8  A    between atoms: C_22  and  O_23
REMARK    9  A    between atoms: O_23  and  C_24
REMARK   10  A    between atoms: C_24  and  C_25
REMARK   11  A    between atoms: C_25  and  O_27
REMARK                            x       y       z     vdW  Elec       q    Type
REMARK                         _______ _______ _______ _____ _____    ______ ____
ROOT
ATOM      1  N   UNL     1       6.896   8.006  17.323  0.00  0.00    +0.000 N 
ATOM      2  C   UNL     1       7.969   8.230  18.178  0.00  0.00    +0.000 C 
ATOM      3  O   UNL     1       8.551   7.343  18.811  0.00  0.00    +0.000 OA
ATOM      4  H   UNL     1       6.467   8.828  16.907  0.00  0.00    +0.000 HD
ENDROOT
BRANCH   2   5
ATOM      5  C   UNL     1       8.495   9.625  18.372  0.00  0.00    +0.000 A 
ATOM      6  C   UNL     1       8.072  10.564  17.436  0.00  0.00    +0.000 A 
ATOM      7  C   UNL     1       8.613  11.837  17.447  0.00  0.00    +0.000 A 
ATOM      8  C   UNL     1       9.388  12.242  18.531  0.00  0.00    +0.000 A 
ATOM      9  C   UNL     1       9.725  13.611  18.726  0.00  0.00    +0.000 A 
ATOM     10  C   UNL     1      10.342  13.976  19.921  0.00  0.00    +0.000 A 
ATOM     11  C   UNL     1      10.748  12.999  20.825  0.00  0.00    +0.000 A 
ATOM     12  C   UNL     1      10.479  11.648  20.581  0.00  0.00    +0.000 A 
ATOM     13  C   UNL     1       9.741  11.233  19.480  0.00  0.00    +0.000 A 
ATOM     14  N   UNL     1       9.354   9.928  19.379  0.00  0.00    +0.000 NA
BRANCH   9  15
ATOM     15  O   UNL     1       9.355  14.527  17.748  0.00  0.00    +0.000 OA
BRANCH  15  16
ATOM     16  C   UNL     1       8.423  15.527  18.172  0.00  0.00    +0.000 C 
BRANCH  16  17
ATOM     17  C   UNL     1       7.004  15.043  18.446  0.00  0.00    +0.000 C 
ATOM     18  O   UNL     1       6.284  14.569  17.578  0.00  0.00    +0.000 OA
BRANCH  17  19
ATOM     19  O   UNL     1       6.586  15.197  19.717  0.00  0.00    +0.000 OA
ATOM     20  H   UNL     1       5.740  14.711  19.846  0.00  0.00    +0.000 HD
ENDBRANCH  17  19
ENDBRANCH  16  17
ENDBRANCH  15  16
ENDBRANCH   9  15
ENDBRANCH   2   5
BRANCH   1  25
ATOM     21  C   UNL     1       4.439   5.171  17.031  0.00  0.00    +0.000 A 
ATOM     22  C   UNL     1       5.210   4.220  16.342  0.00  0.00    +0.000 A 
ATOM     23  C   UNL     1       6.527   4.494  16.006  0.00  0.00    +0.000 A 
ATOM     24  C   UNL     1       7.092   5.726  16.339  0.00  0.00    +0.000 A 
ATOM     25  C   UNL     1       6.354   6.723  16.995  0.00  0.00    +0.000 A 
ATOM     26  C   UNL     1       5.021   6.429  17.332  0.00  0.00    +0.000 A 
BRANCH  21  28
ATOM     27  C   UNL     1       2.598   5.636  18.708  0.00  0.00    +0.000 C 
ATOM     28  C   UNL     1       2.999   4.852  17.448  0.00  0.00    +0.000 C 
BRANCH  28  29
ATOM     29  S   UNL     1       2.822   3.034  17.664  0.00  0.00    +0.000 S 
BRANCH  29  30
ATOM     30  C   UNL     1       2.309   2.851  19.309  0.00  0.00    +0.000 A 
ATOM     31  N   UNL     1       1.088   2.979  19.780  0.00  0.00    +0.000 NA
ATOM     32  N   UNL     1       1.150   2.848  21.149  0.00  0.00    +0.000 NA
ATOM     33  C   UNL     1       2.402   2.614  21.466  0.00  0.00    +0.000 A 
ATOM     34  N   UNL     1       3.164   2.572  20.337  0.00  0.00    +0.000 N 
ATOM     35  C   UNL     1       4.559   2.261  20.274  0.00  0.00    +0.000 C 
ENDBRANCH  29  30
ENDBRANCH  28  29
ENDBRANCH  21  28
ENDBRANCH   1  25
TORSDOF 9
ENDMDL
MODEL 5
REMARK VINA RESULT:      -8.2      7.040     10.495
REMARK  Name = 
REMARK  11 active torsions:
REMARK  status: ('A' for Active; 'I' for Inactive)
REMARK    1  A    between atoms: C_1  and  C_2
REMARK    2  A    between atoms: C_2  and  S_3
REMARK    3  A    between atoms: C_2  and  C_10
REMARK    4  A    between atoms: S_3  and  C_4
REMARK    5  A    between atoms: N_8  and  C_9
REMARK    6  A    between atoms: C_14  and  N_15
REMARK    7  A    between atoms: C_16  and  C_18
REMARK    8  A    between atoms: C_22  and  O_23
REMARK    9  A    between atoms: O_23  and  C_24
REMARK   10  A    between atoms: C_24  and  C_25
REMARK   11  A    between atoms: C_25  and  O_27
REMARK                            x       y       z     vdW  Elec       q    Type
REMARK                         _______ _______ _______ _____ _____    ______ ____
ROOT
ATOM      1  N   UNL     1       0.980  10.107  19.145  0.00  0.00    +0.000 N 
ATOM      2  C   UNL     1       1.275   9.027  19.970  0.00  0.00    +0.000 C 
ATOM      3  O   UNL     1       0.972   8.961  21.166  0.00  0.00    +0.000 OA
ATOM      4  H   UNL     1       1.336  10.063  18.195  0.00  0.00    +0.000 HD
ENDROOT
BRANCH   2   5
ATOM      5  C   UNL     1       2.002   7.834  19.413  0.00  0.00    +0.000 A 
ATOM      6  C   UNL     1       2.597   8.019  18.168  0.00  0.00    +0.000 A 
ATOM      7  C   UNL     1       3.164   6.941  17.512  0.00  0.00    +0.000 A 
ATOM      8  C   UNL     1       3.351   5.743  18.196  0.00  0.00    +0.000 A 
ATOM      9  C   UNL     1       4.176   4.712  17.667  0.00  0.00    +0.000 A 
ATOM     10  C   UNL     1       4.471   3.618  18.478  0.00  0.00    +0.000 A 
ATOM     11  C   UNL     1       3.848   3.478  19.715  0.00  0.00    +0.000 A 
ATOM     12  C   UNL     1       2.976   4.464  20.188  0.00  0.00    +0.000 A 
ATOM     13  C   UNL     1       2.754   5.644  19.491  0.00  0.00    +0.000 A 
ATOM     14  N   UNL     1       2.037   6.649  20.074  0.00  0.00    +0.000 NA
BRANCH   9  15
ATOM     15  O   UNL     1       4.708   4.881  16.393  0.00  0.00    +0.000 OA
BRANCH  15  16
ATOM     16  C   UNL     1       5.794   4.008  16.067  0.00  0.00    +0.000 C 
BRANCH  16  17
ATOM     17  C   UNL     1       7.187   4.622  16.133  0.00  0.00    +0.000 C 
ATOM     18  O   UNL     1       7.574   5.478  15.350  0.00  0.00    +0.000 OA
BRANCH  17  19
ATOM     19  O   UNL     1       7.978   4.133  17.107  0.00  0.00    +0.000 OA
ATOM     20  H   UNL     1       8.897   4.038  16.769  0.00  0.00    +0.000 HD
ENDBRANCH  17  19
ENDBRANCH  16  17
ENDBRANCH  15  16
ENDBRANCH   9  15
ENDBRANCH   2   5
BRANCH   1  25
ATOM     21  C   UNL     1      -1.954  12.284  20.044  0.00  0.00    +0.000 A 
ATOM     22  C   UNL     1      -1.307  13.496  20.336  0.00  0.00    +0.000 A 
ATOM     23  C   UNL     1       0.069  13.606  20.208  0.00  0.00    +0.000 A 
ATOM     24  C   UNL     1       0.824  12.505  19.802  0.00  0.00    +0.000 A 
ATOM     25  C   UNL     1       0.230  11.262  19.533  0.00  0.00    +0.000 A 
ATOM     26  C   UNL     1      -1.166  11.167  19.664  0.00  0.00    +0.000 A 
BRANCH  21  28
ATOM     27  C   UNL     1      -4.111  12.019  18.743  0.00  0.00    +0.000 C 
ATOM     28  C   UNL     1      -3.480  12.173  20.136  0.00  0.00    +0.000 C 
BRANCH  28  29
ATOM     29  S   UNL     1      -4.137  13.628  21.049  0.00  0.00    +0.000 S 
BRANCH  29  30
ATOM     30  C   UNL     1      -4.528  13.002  22.618  0.00  0.00    +0.000 A 
ATOM     31  N   UNL     1      -5.635  12.390  22.976  0.00  0.00    +0.000 NA
ATOM     32  N   UNL     1      -5.565  12.154  24.330  0.00  0.00    +0.000 NA
ATOM     33  C   UNL     1      -4.404  12.603  24.749  0.00  0.00    +0.000 A 
ATOM     34  N   UNL     1      -3.702  13.115  23.699  0.00  0.00    +0.000 N 
ATOM     35  C   UNL     1      -2.365  13.623  23.749  0.00  0.00    +0.000 C 
ENDBRANCH  29  30
ENDBRANCH  28  29
ENDBRANCH  21  28
ENDBRANCH   1  25
TORSDOF 9
ENDMDL
MODEL 6
REMARK VINA RESULT:      -8.1      6.833      9.594
REMARK  Name = 
REMARK  11 active torsions:
REMARK  status: ('A' for Active; 'I' for Inactive)
REMARK    1  A    between atoms: C_1  and  C_2
REMARK    2  A    between atoms: C_2  and  S_3
REMARK    3  A    between atoms: C_2  and  C_10
REMARK    4  A    between atoms: S_3  and  C_4
REMARK    5  A    between atoms: N_8  and  C_9
REMARK    6  A    between atoms: C_14  and  N_15
REMARK    7  A    between atoms: C_16  and  C_18
REMARK    8  A    between atoms: C_22  and  O_23
REMARK    9  A    between atoms: O_23  and  C_24
REMARK   10  A    between atoms: C_24  and  C_25
REMARK   11  A    between atoms: C_25  and  O_27
REMARK                            x       y       z     vdW  Elec       q    Type
REMARK                         _______ _______ _______ _____ _____    ______ ____
ROOT
ATOM      1  N   UNL     1       1.974   7.443  19.700  0.00  0.00    +0.000 N 
ATOM      2  C   UNL     1       1.548   8.630  19.113  0.00  0.00    +0.000 C 
ATOM      3  O   UNL     1       1.634   8.880  17.906  0.00  0.00    +0.000 OA
ATOM      4  H   UNL     1       1.901   7.385  20.711  0.00  0.00    +0.000 HD
ENDROOT
BRANCH   2   5
ATOM      5  C   UNL     1       0.930   9.706  19.962  0.00  0.00    +0.000 A 
ATOM      6  C   UNL     1       0.211   9.262  21.069  0.00  0.00    +0.000 A 
ATOM      7  C   UNL     1      -0.511  10.166  21.826  0.00  0.00    +0.000 A 
ATOM      8  C   UNL     1      -0.324  11.531  21.626  0.00  0.00    +0.000 A 
ATOM      9  C   UNL     1      -0.818  12.488  22.556  0.00  0.00    +0.000 A 
ATOM     10  C   UNL     1      -0.442  13.820  22.398  0.00  0.00    +0.000 A 
ATOM     11  C   UNL     1       0.276  14.215  21.273  0.00  0.00    +0.000 A 
ATOM     12  C   UNL     1       0.687  13.271  20.325  0.00  0.00    +0.000 A 
ATOM     13  C   UNL     1       0.467  11.912  20.498  0.00  0.00    +0.000 A 
ATOM     14  N   UNL     1       1.041  11.020  19.639  0.00  0.00    +0.000 NA
BRANCH   9  15
ATOM     15  O   UNL     1      -1.592  12.035  23.619  0.00  0.00    +0.000 OA
BRANCH  15  16
ATOM     16  C   UNL     1      -3.005  12.047  23.391  0.00  0.00    +0.000 C 
BRANCH  16  17
ATOM     17  C   UNL     1      -3.853  12.681  24.487  0.00  0.00    +0.000 C 
ATOM     18  O   UNL     1      -3.663  13.816  24.901  0.00  0.00    +0.000 OA
BRANCH  17  19
ATOM     19  O   UNL     1      -4.820  11.890  24.988  0.00  0.00    +0.000 OA
ATOM     20  H   UNL     1      -4.618  10.950  24.778  0.00  0.00    +0.000 HD
ENDBRANCH  17  19
ENDBRANCH  16  17
ENDBRANCH  15  16
ENDBRANCH   9  15
ENDBRANCH   2   5
BRANCH   1  25
ATOM     21  C   UNL     1       4.193   5.405  17.445  0.00  0.00    +0.000 A 
ATOM     22  C   UNL     1       3.632   4.127  17.602  0.00  0.00    +0.000 A 
ATOM     23  C   UNL     1       2.521   3.943  18.412  0.00  0.00    +0.000 A 
ATOM     24  C   UNL     1       1.961   5.028  19.089  0.00  0.00    +0.000 A 
ATOM     25  C   UNL     1       2.506   6.318  18.994  0.00  0.00    +0.000 A 
ATOM     26  C   UNL     1       3.630   6.489  18.167  0.00  0.00    +0.000 A 
BRANCH  21  28
ATOM     27  C   UNL     1       5.193   6.867  15.634  0.00  0.00    +0.000 C 
ATOM     28  C   UNL     1       5.390   5.621  16.512  0.00  0.00    +0.000 C 
BRANCH  28  29
ATOM     29  S   UNL     1       5.663   4.097  15.519  0.00  0.00    +0.000 S 
BRANCH  29  30
ATOM     30  C   UNL     1       6.765   4.592  14.276  0.00  0.00    +0.000 A 
ATOM     31  N   UNL     1       7.796   5.397  14.403  0.00  0.00    +0.000 NA
ATOM     32  N   UNL     1       8.331   5.595  13.150  0.00  0.00    +0.000 NA
ATOM     33  C   UNL     1       7.626   4.881  12.304  0.00  0.00    +0.000 A 
ATOM     34  N   UNL     1       6.650   4.205  12.972  0.00  0.00    +0.000 N 
ATOM     35  C   UNL     1       5.736   3.264  12.400  0.00  0.00    +0.000 C 
ENDBRANCH  29  30
ENDBRANCH  28  29
ENDBRANCH  21  28
ENDBRANCH   1  25
TORSDOF 9
ENDMDL
MODEL 7
REMARK VINA RESULT:      -8.1      6.917     10.720
REMARK  Name = 
REMARK  11 active torsions:
REMARK  status: ('A' for Active; 'I' for Inactive)
REMARK    1  A    between atoms: C_1  and  C_2
REMARK    2  A    between atoms: C_2  and  S_3
REMARK    3  A    between atoms: C_2  and  C_10
REMARK    4  A    between atoms: S_3  and  C_4
REMARK    5  A    between atoms: N_8  and  C_9
REMARK    6  A    between atoms: C_14  and  N_15
REMARK    7  A    between atoms: C_16  and  C_18
REMARK    8  A    between atoms: C_22  and  O_23
REMARK    9  A    between atoms: O_23  and  C_24
REMARK   10  A    between atoms: C_24  and  C_25
REMARK   11  A    between atoms: C_25  and  O_27
REMARK                            x       y       z     vdW  Elec       q    Type
REMARK                         _______ _______ _______ _____ _____    ______ ____
ROOT
ATOM      1  N   UNL     1       0.447   8.962  18.460  0.00  0.00    +0.000 N 
ATOM      2  C   UNL     1       1.754   9.081  18.000  0.00  0.00    +0.000 C 
ATOM      3  O   UNL     1       2.231  10.115  17.519  0.00  0.00    +0.000 OA
ATOM      4  H   UNL     1       0.160   8.042  18.779  0.00  0.00    +0.000 HD
ENDROOT
BRANCH   2   5
ATOM      5  C   UNL     1       2.687   7.905  18.079  0.00  0.00    +0.000 A 
ATOM      6  C   UNL     1       2.475   7.039  19.148  0.00  0.00    +0.000 A 
ATOM      7  C   UNL     1       3.369   6.011  19.385  0.00  0.00    +0.000 A 
ATOM      8  C   UNL     1       4.329   5.701  18.425  0.00  0.00    +0.000 A 
ATOM      9  C   UNL     1       5.075   4.491  18.490  0.00  0.00    +0.000 A 
ATOM     10  C   UNL     1       5.883   4.153  17.407  0.00  0.00    +0.000 A 
ATOM     11  C   UNL     1       6.064   5.055  16.362  0.00  0.00    +0.000 A 
ATOM     12  C   UNL     1       5.384   6.277  16.351  0.00  0.00    +0.000 A 
ATOM     13  C   UNL     1       4.455   6.609  17.329  0.00  0.00    +0.000 A 
ATOM     14  N   UNL     1       3.689   7.730  17.180  0.00  0.00    +0.000 NA
BRANCH   9  15
ATOM     15  O   UNL     1       4.902   3.669  19.599  0.00  0.00    +0.000 OA
BRANCH  15  16
ATOM     16  C   UNL     1       4.389   2.364  19.314  0.00  0.00    +0.000 C 
BRANCH  16  17
ATOM     17  C   UNL     1       2.887   2.276  19.074  0.00  0.00    +0.000 C 
ATOM     18  O   UNL     1       2.060   2.707  19.866  0.00  0.00    +0.000 OA
BRANCH  17  19
ATOM     19  O   UNL     1       2.528   1.662  17.930  0.00  0.00    +0.000 OA
ATOM     20  H   UNL     1       1.547   1.639  17.862  0.00  0.00    +0.000 HD
ENDBRANCH  17  19
ENDBRANCH  16  17
ENDBRANCH  15  16
ENDBRANCH   9  15
ENDBRANCH   2   5
BRANCH   1  25
ATOM     21  C   UNL     1      -2.693  10.930  17.808  0.00  0.00    +0.000 A 
ATOM     22  C   UNL     1      -2.463  12.069  18.598  0.00  0.00    +0.000 A 
ATOM     23  C   UNL     1      -1.280  12.203  19.309  0.00  0.00    +0.000 A 
ATOM     24  C   UNL     1      -0.314  11.197  19.255  0.00  0.00    +0.000 A 
ATOM     25  C   UNL     1      -0.511  10.024  18.510  0.00  0.00    +0.000 A 
ATOM     26  C   UNL     1      -1.714   9.904  17.792  0.00  0.00    +0.000 A 
BRANCH  21  28
ATOM     27  C   UNL     1      -3.676  10.847  15.475  0.00  0.00    +0.000 C 
ATOM     28  C   UNL     1      -3.977  10.802  16.981  0.00  0.00    +0.000 C 
BRANCH  28  29
ATOM     29  S   UNL     1      -5.163  12.108  17.502  0.00  0.00    +0.000 S 
BRANCH  29  30
ATOM     30  C   UNL     1      -6.055  11.379  18.796  0.00  0.00    +0.000 A 
ATOM     31  N   UNL     1      -6.663  10.213  18.786  0.00  0.00    +0.000 NA
ATOM     32  N   UNL     1      -7.328  10.075  19.983  0.00  0.00    +0.000 NA
ATOM     33  C   UNL     1      -7.081  11.148  20.697  0.00  0.00    +0.000 A 
ATOM     34  N   UNL     1      -6.255  11.983  20.005  0.00  0.00    +0.000 N 
ATOM     35  C   UNL     1      -5.702  13.211  20.489  0.00  0.00    +0.000 C 
ENDBRANCH  29  30
ENDBRANCH  28  29
ENDBRANCH  21  28
ENDBRANCH   1  25
TORSDOF 9
ENDMDL
MODEL 8
REMARK VINA RESULT:      -8.0      6.861     10.734
REMARK  Name = 
REMARK  11 active torsions:
REMARK  status: ('A' for Active; 'I' for Inactive)
REMARK    1  A    between atoms: C_1  and  C_2
REMARK    2  A    between atoms: C_2  and  S_3
REMARK    3  A    between atoms: C_2  and  C_10
REMARK    4  A    between atoms: S_3  and  C_4
REMARK    5  A    between atoms: N_8  and  C_9
REMARK    6  A    between atoms: C_14  and  N_15
REMARK    7  A    between atoms: C_16  and  C_18
REMARK    8  A    between atoms: C_22  and  O_23
REMARK    9  A    between atoms: O_23  and  C_24
REMARK   10  A    between atoms: C_24  and  C_25
REMARK   11  A    between atoms: C_25  and  O_27
REMARK                            x       y       z     vdW  Elec       q    Type
REMARK                         _______ _______ _______ _____ _____    ______ ____
ROOT
ATOM      1  N   UNL     1       0.974   8.624  20.639  0.00  0.00    +0.000 N 
ATOM      2  C   UNL     1       1.572   8.680  19.385  0.00  0.00    +0.000 C 
ATOM      3  O   UNL     1       1.441   9.619  18.593  0.00  0.00    +0.000 OA
ATOM      4  H   UNL     1       1.113   7.770  21.171  0.00  0.00    +0.000 HD
ENDROOT
BRANCH   2   5
ATOM      5  C   UNL     1       2.450   7.551  18.923  0.00  0.00    +0.000 A 
ATOM      6  C   UNL     1       2.348   6.370  19.652  0.00  0.00    +0.000 A 
ATOM      7  C   UNL     1       3.217   5.326  19.393  0.00  0.00    +0.000 A 
ATOM      8  C   UNL     1       4.019   5.368  18.256  0.00  0.00    +0.000 A 
ATOM      9  C   UNL     1       4.709   4.211  17.796  0.00  0.00    +0.000 A 
ATOM     10  C   UNL     1       5.343   4.268  16.557  0.00  0.00    +0.000 A 
ATOM     11  C   UNL     1       5.420   5.474  15.866  0.00  0.00    +0.000 A 
ATOM     12  C   UNL     1       4.803   6.624  16.371  0.00  0.00    +0.000 A 
ATOM     13  C   UNL     1       4.035   6.597  17.527  0.00  0.00    +0.000 A 
ATOM     14  N   UNL     1       3.309   7.698  17.881  0.00  0.00    +0.000 NA
BRANCH   9  15
ATOM     15  O   UNL     1       4.654   3.058  18.572  0.00  0.00    +0.000 OA
BRANCH  15  16
ATOM     16  C   UNL     1       3.751   2.052  18.102  0.00  0.00    +0.000 C 
BRANCH  16  17
ATOM     17  C   UNL     1       2.296   2.209  18.528  0.00  0.00    +0.000 C 
ATOM     18  O   UNL     1       1.872   1.812  19.604  0.00  0.00    +0.000 OA
BRANCH  17  19
ATOM     19  O   UNL     1       1.497   2.800  17.619  0.00  0.00    +0.000 OA
ATOM     20  H   UNL     1       2.048   3.269  16.952  0.00  0.00    +0.000 HD
ENDBRANCH  17  19
ENDBRANCH  16  17
ENDBRANCH  15  16
ENDBRANCH   9  15
ENDBRANCH   2   5
BRANCH   1  25
ATOM     21  C   UNL     1      -1.194  11.687  20.925  0.00  0.00    +0.000 A 
ATOM     22  C   UNL     1      -1.428  11.720  22.310  0.00  0.00    +0.000 A 
ATOM     23  C   UNL     1      -0.856  10.769  23.141  0.00  0.00    +0.000 A 
ATOM     24  C   UNL     1      -0.054   9.761  22.603  0.00  0.00    +0.000 A 
ATOM     25  C   UNL     1       0.182   9.663  21.223  0.00  0.00    +0.000 A 
ATOM     26  C   UNL     1      -0.402  10.636  20.394  0.00  0.00    +0.000 A 
BRANCH  21  28
ATOM     27  C   UNL     1      -1.713  14.153  20.667  0.00  0.00    +0.000 C 
ATOM     28  C   UNL     1      -1.782  12.766  20.009  0.00  0.00    +0.000 C 
BRANCH  28  29
ATOM     29  S   UNL     1      -3.498  12.292  19.545  0.00  0.00    +0.000 S 
BRANCH  29  30
ATOM     30  C   UNL     1      -3.333  11.598  17.965  0.00  0.00    +0.000 A 
ATOM     31  N   UNL     1      -2.274  11.001  17.466  0.00  0.00    +0.000 NA
ATOM     32  N   UNL     1      -2.546  10.692  16.152  0.00  0.00    +0.000 NA
ATOM     33  C   UNL     1      -3.773  11.085  15.902  0.00  0.00    +0.000 A 
ATOM     34  N   UNL     1      -4.321  11.630  17.024  0.00  0.00    +0.000 N 
ATOM     35  C   UNL     1      -5.668  12.095  17.161  0.00  0.00    +0.000 C 
ENDBRANCH  29  30
ENDBRANCH  28  29
ENDBRANCH  21  28
ENDBRANCH   1  25
TORSDOF 9
ENDMDL
MODEL 9
REMARK VINA RESULT:      -8.0      6.204      8.889
REMARK  Name = 
REMARK  11 active torsions:
REMARK  status: ('A' for Active; 'I' for Inactive)
REMARK    1  A    between atoms: C_1  and  C_2
REMARK    2  A    between atoms: C_2  and  S_3
REMARK    3  A    between atoms: C_2  and  C_10
REMARK    4  A    between atoms: S_3  and  C_4
REMARK    5  A    between atoms: N_8  and  C_9
REMARK    6  A    between atoms: C_14  and  N_15
REMARK    7  A    between atoms: C_16  and  C_18
REMARK    8  A    between atoms: C_22  and  O_23
REMARK    9  A    between atoms: O_23  and  C_24
REMARK   10  A    between atoms: C_24  and  C_25
REMARK   11  A    between atoms: C_25  and  O_27
REMARK                            x       y       z     vdW  Elec       q    Type
REMARK                         _______ _______ _______ _____ _____    ______ ____
ROOT
ATOM      1  N   UNL     1       2.202   7.133  18.999  0.00  0.00    +0.000 N 
ATOM      2  C   UNL     1       1.987   8.374  18.409  0.00  0.00    +0.000 C 
ATOM      3  O   UNL     1       2.228   8.634  17.225  0.00  0.00    +0.000 OA
ATOM      4  H   UNL     1       2.018   7.066  19.995  0.00  0.00    +0.000 HD
ENDROOT
BRANCH   2   5
ATOM      5  C   UNL     1       1.419   9.503  19.224  0.00  0.00    +0.000 A 
ATOM      6  C   UNL     1       0.716   9.128  20.366  0.00  0.00    +0.000 A 
ATOM      7  C   UNL     1       0.038  10.084  21.099  0.00  0.00    +0.000 A 
ATOM      8  C   UNL     1       0.257  11.434  20.835  0.00  0.00    +0.000 A 
ATOM      9  C   UNL     1      -0.188  12.443  21.734  0.00  0.00    +0.000 A 
ATOM     10  C   UNL     1       0.221  13.756  21.509  0.00  0.00    +0.000 A 
ATOM     11  C   UNL     1       0.921  14.081  20.351  0.00  0.00    +0.000 A 
ATOM     12  C   UNL     1       1.283  13.086  19.436  0.00  0.00    +0.000 A 
ATOM     13  C   UNL     1       1.031  11.742  19.674  0.00  0.00    +0.000 A 
ATOM     14  N   UNL     1       1.559  10.798  18.841  0.00  0.00    +0.000 NA
BRANCH   9  15
ATOM     15  O   UNL     1      -0.948  12.058  22.834  0.00  0.00    +0.000 OA
BRANCH  15  16
ATOM     16  C   UNL     1      -2.365  12.120  22.645  0.00  0.00    +0.000 C 
BRANCH  16  17
ATOM     17  C   UNL     1      -3.165  12.729  23.790  0.00  0.00    +0.000 C 
ATOM     18  O   UNL     1      -2.918  13.831  24.262  0.00  0.00    +0.000 OA
BRANCH  17  19
ATOM     19  O   UNL     1      -4.156  11.953  24.268  0.00  0.00    +0.000 OA
ATOM     20  H   UNL     1      -4.247  11.151  23.705  0.00  0.00    +0.000 HD
ENDBRANCH  17  19
ENDBRANCH  16  17
ENDBRANCH  15  16
ENDBRANCH   9  15
ENDBRANCH   2   5
BRANCH   1  25
ATOM     21  C   UNL     1       4.313   4.911  16.815  0.00  0.00    +0.000 A 
ATOM     22  C   UNL     1       3.653   3.680  16.970  0.00  0.00    +0.000 A 
ATOM     23  C   UNL     1       2.512   3.589  17.754  0.00  0.00    +0.000 A 
ATOM     24  C   UNL     1       2.021   4.720  18.409  0.00  0.00    +0.000 A 
ATOM     25  C   UNL     1       2.664   5.964  18.316  0.00  0.00    +0.000 A 
ATOM     26  C   UNL     1       3.817   6.041  17.514  0.00  0.00    +0.000 A 
BRANCH  21  28
ATOM     27  C   UNL     1       5.446   4.064  14.714  0.00  0.00    +0.000 C 
ATOM     28  C   UNL     1       5.543   5.026  15.909  0.00  0.00    +0.000 C 
BRANCH  28  29
ATOM     29  S   UNL     1       7.060   4.752  16.912  0.00  0.00    +0.000 S 
BRANCH  29  30
ATOM     30  C   UNL     1       7.501   6.337  17.457  0.00  0.00    +0.000 A 
ATOM     31  N   UNL     1       7.454   7.456  16.767  0.00  0.00    +0.000 NA
ATOM     32  N   UNL     1       7.987   8.454  17.551  0.00  0.00    +0.000 NA
ATOM     33  C   UNL     1       8.314   7.918  18.703  0.00  0.00    +0.000 A 
ATOM     34  N   UNL     1       7.994   6.593  18.704  0.00  0.00    +0.000 N 
ATOM     35  C   UNL     1       8.127   5.696  19.811  0.00  0.00    +0.000 C 
ENDBRANCH  29  30
ENDBRANCH  28  29
ENDBRANCH  21  28
ENDBRANCH   1  25
TORSDOF 9
ENDMDL
