MODEL 1
REMARK VINA RESULT:      -9.8      0.000      0.000
REMARK  Name = 
REMARK  10 active torsions:
REMARK  status: ('A' for Active; 'I' for Inactive)
REMARK    1  A    between atoms: C_1  and  N_2
REMARK    2  A    between atoms: C_6  and  C_7
REMARK    3  A    between atoms: C_7  and  C_10
REMARK    4  A    between atoms: C_10  and  C_11
REMARK    5  A    between atoms: C_10  and  C_13
REMARK    6  A    between atoms: C_17  and  N_18
REMARK    7  A    between atoms: C_23  and  C_24
REMARK    8  A    between atoms: C_24  and  N_25
REMARK    9  A    between atoms: C_27  and  C_28
REMARK   10  A    between atoms: C_32  and  C_33
REMARK                            x       y       z     vdW  Elec       q    Type
REMARK                         _______ _______ _______ _____ _____    ______ ____
ROOT
ATOM      1  N   UNL     1       1.935   7.822  19.460  0.00  0.00    +0.000 N 
ATOM      2  C   UNL     1       1.279   8.173  20.693  0.00  0.00    +0.000 C 
ATOM      3  C   UNL     1       0.768   9.541  20.491  0.00  0.00    +0.000 A 
ATOM      4  C   UNL     1       1.068   9.990  19.212  0.00  0.00    +0.000 A 
ATOM      5  C   UNL     1       0.631  11.250  18.807  0.00  0.00    +0.000 A 
ATOM      6  C   UNL     1      -0.107  12.058  19.724  0.00  0.00    +0.000 A 
ATOM      7  C   UNL     1      -0.363  11.563  21.025  0.00  0.00    +0.000 A 
ATOM      8  C   UNL     1       0.062  10.295  21.425  0.00  0.00    +0.000 A 
ATOM      9  C   UNL     1       1.842   8.883  18.528  0.00  0.00    +0.000 C 
ATOM     10  O   UNL     1       2.279   8.961  17.392  0.00  0.00    +0.000 OA
ENDROOT
BRANCH   1  15
ATOM     11  C   UNL     1       4.270   5.149  18.166  0.00  0.00    +0.000 A 
ATOM     12  C   UNL     1       3.936   4.081  18.997  0.00  0.00    +0.000 A 
ATOM     13  C   UNL     1       2.987   4.253  20.026  0.00  0.00    +0.000 A 
ATOM     14  C   UNL     1       2.312   5.475  20.220  0.00  0.00    +0.000 A 
ATOM     15  C   UNL     1       2.624   6.566  19.421  0.00  0.00    +0.000 A 
ATOM     16  C   UNL     1       3.653   6.383  18.453  0.00  0.00    +0.000 A 
BRANCH  11  17
ATOM     17  C   UNL     1       5.063   5.019  16.837  0.00  0.00    +0.000 C 
ATOM     18  C   UNL     1       4.439   3.821  16.095  0.00  0.00    +0.000 C 
ATOM     19  F   UNL     1       4.807   6.115  16.027  0.00  0.00    +0.000 F 
BRANCH  17  20
ATOM     20  C   UNL     1       6.622   4.919  16.953  0.00  0.00    +0.000 C 
ATOM     21  F   UNL     1       7.153   4.538  15.754  0.00  0.00    +0.000 F 
ATOM     22  F   UNL     1       6.938   3.910  17.821  0.00  0.00    +0.000 F 
BRANCH  20  28
ATOM     23  C   UNL     1       8.066   5.679  19.755  0.00  0.00    +0.000 C 
ATOM     24  N   UNL     1       7.813   6.522  18.616  0.00  0.00    +0.000 N 
ATOM     25  C   UNL     1       8.163   7.841  18.563  0.00  0.00    +0.000 A 
ATOM     26  N   UNL     1       7.964   8.298  17.353  0.00  0.00    +0.000 NA
ATOM     27  N   UNL     1       7.447   7.273  16.608  0.00  0.00    +0.000 NA
ATOM     28  C   UNL     1       7.274   6.215  17.387  0.00  0.00    +0.000 A 
ENDBRANCH  20  28
ENDBRANCH  17  20
ENDBRANCH  11  17
ENDBRANCH   1  15
BRANCH   8  29
ATOM     29  C   UNL     1      -0.269   9.769  22.799  0.00  0.00    +0.000 C 
ATOM     30  F   UNL     1      -0.992   8.613  22.786  0.00  0.00    +0.000 F 
ATOM     31  F   UNL     1       0.841   9.496  23.535  0.00  0.00    +0.000 F 
ATOM     32  F   UNL     1      -1.008  10.650  23.524  0.00  0.00    +0.000 F 
ENDBRANCH   8  29
BRANCH   6  33
ATOM     33  C   UNL     1      -0.763  13.371  19.289  0.00  0.00    +0.000 C 
BRANCH  33  34
ATOM     34  N   UNL     1       0.126  14.332  18.591  0.00  0.00    +0.000 NA
ATOM     35  C   UNL     1      -0.310  15.732  18.739  0.00  0.00    +0.000 C 
ATOM     36  C   UNL     1       1.082  16.116  19.276  0.00  0.00    +0.000 C 
ATOM     37  C   UNL     1       1.336  14.603  19.398  0.00  0.00    +0.000 C 
BRANCH  36  38
ATOM     38  C   UNL     1       1.950  16.834  18.370  0.00  0.00    +0.000 C 
ATOM     39  N   UNL     1       2.674  17.426  17.671  0.00  0.00    +0.000 NA
ENDBRANCH  36  38
ENDBRANCH  33  34
ENDBRANCH   6  33
TORSDOF 8
ENDMDL
MODEL 2
REMARK VINA RESULT:      -9.8      0.673      1.112
REMARK  Name = 
REMARK  10 active torsions:
REMARK  status: ('A' for Active; 'I' for Inactive)
REMARK    1  A    between atoms: C_1  and  N_2
REMARK    2  A    between atoms: C_6  and  C_7
REMARK    3  A    between atoms: C_7  and  C_10
REMARK    4  A    between atoms: C_10  and  C_11
REMARK    5  A    between atoms: C_10  and  C_13
REMARK    6  A    between atoms: C_17  and  N_18
REMARK    7  A    between atoms: C_23  and  C_24
REMARK    8  A    between atoms: C_24  and  N_25
REMARK    9  A    between atoms: C_27  and  C_28
REMARK   10  A    between atoms: C_32  and  C_33
REMARK                            x       y       z     vdW  Elec       q    Type
REMARK                         _______ _______ _______ _____ _____    ______ ____
ROOT
ATOM      1  N   UNL     1       2.036   7.844  19.160  0.00  0.00    +0.000 N 
ATOM      2  C   UNL     1       1.418   8.124  20.430  0.00  0.00    +0.000 C 
ATOM      3  C   UNL     1       0.879   9.491  20.312  0.00  0.00    +0.000 A 
ATOM      4  C   UNL     1       1.128  10.005  19.046  0.00  0.00    +0.000 A 
ATOM      5  C   UNL     1       0.658  11.276  18.718  0.00  0.00    +0.000 A 
ATOM      6  C   UNL     1      -0.060  12.026  19.698  0.00  0.00    +0.000 A 
ATOM      7  C   UNL     1      -0.263  11.466  20.982  0.00  0.00    +0.000 A 
ATOM      8  C   UNL     1       0.195  10.187  21.305  0.00  0.00    +0.000 A 
ATOM      9  C   UNL     1       1.894   8.946  18.284  0.00  0.00    +0.000 C 
ATOM     10  O   UNL     1       2.289   9.085  17.139  0.00  0.00    +0.000 OA
ENDROOT
BRANCH   1  15
ATOM     11  C   UNL     1       4.366   5.276  17.660  0.00  0.00    +0.000 A 
ATOM     12  C   UNL     1       4.076   4.163  18.448  0.00  0.00    +0.000 A 
ATOM     13  C   UNL     1       3.159   4.268  19.514  0.00  0.00    +0.000 A 
ATOM     14  C   UNL     1       2.473   5.469  19.791  0.00  0.00    +0.000 A 
ATOM     15  C   UNL     1       2.742   6.602  19.036  0.00  0.00    +0.000 A 
ATOM     16  C   UNL     1       3.741   6.484  18.028  0.00  0.00    +0.000 A 
BRANCH  11  17
ATOM     17  C   UNL     1       5.116   5.224  16.301  0.00  0.00    +0.000 C 
ATOM     18  C   UNL     1       4.374   4.173  15.455  0.00  0.00    +0.000 C 
ATOM     19  F   UNL     1       4.942   6.420  15.622  0.00  0.00    +0.000 F 
BRANCH  17  20
ATOM     20  C   UNL     1       6.663   4.979  16.359  0.00  0.00    +0.000 C 
ATOM     21  F   UNL     1       7.275   5.641  15.332  0.00  0.00    +0.000 F 
ATOM     22  F   UNL     1       6.910   3.653  16.128  0.00  0.00    +0.000 F 
BRANCH  20  28
ATOM     23  C   UNL     1       7.334   7.960  17.445  0.00  0.00    +0.000 C 
ATOM     24  N   UNL     1       7.626   6.691  18.059  0.00  0.00    +0.000 N 
ATOM     25  C   UNL     1       8.273   6.565  19.255  0.00  0.00    +0.000 A 
ATOM     26  N   UNL     1       8.245   5.314  19.640  0.00  0.00    +0.000 NA
ATOM     27  N   UNL     1       7.596   4.603  18.667  0.00  0.00    +0.000 NA
ATOM     28  C   UNL     1       7.290   5.415  17.666  0.00  0.00    +0.000 A 
ENDBRANCH  20  28
ENDBRANCH  17  20
ENDBRANCH  11  17
ENDBRANCH   1  15
BRANCH   8  29
ATOM     29  C   UNL     1      -0.080   9.591  22.662  0.00  0.00    +0.000 C 
ATOM     30  F   UNL     1      -0.812   8.441  22.621  0.00  0.00    +0.000 F 
ATOM     31  F   UNL     1       1.059   9.272  23.333  0.00  0.00    +0.000 F 
ATOM     32  F   UNL     1      -0.779  10.436  23.465  0.00  0.00    +0.000 F 
ENDBRANCH   8  29
BRANCH   6  33
ATOM     33  C   UNL     1      -0.750  13.348  19.349  0.00  0.00    +0.000 C 
BRANCH  33  34
ATOM     34  N   UNL     1       0.094  14.349  18.651  0.00  0.00    +0.000 NA
ATOM     35  C   UNL     1      -0.334  15.737  18.900  0.00  0.00    +0.000 C 
ATOM     36  C   UNL     1       1.088  16.097  19.372  0.00  0.00    +0.000 C 
ATOM     37  C   UNL     1       1.350  14.581  19.397  0.00  0.00    +0.000 C 
BRANCH  36  38
ATOM     38  C   UNL     1       1.898  16.866  18.454  0.00  0.00    +0.000 C 
ATOM     39  N   UNL     1       2.584  17.487  17.742  0.00  0.00    +0.000 NA
ENDBRANCH  36  38
ENDBRANCH  33  34
ENDBRANCH   6  33
TORSDOF 8
ENDMDL
MODEL 3
REMARK VINA RESULT:      -9.6      1.297      2.256
REMARK  Name = 
REMARK  10 active torsions:
REMARK  status: ('A' for Active; 'I' for Inactive)
REMARK    1  A    between atoms: C_1  and  N_2
REMARK    2  A    between atoms: C_6  and  C_7
REMARK    3  A    between atoms: C_7  and  C_10
REMARK    4  A    between atoms: C_10  and  C_11
REMARK    5  A    between atoms: C_10  and  C_13
REMARK    6  A    between atoms: C_17  and  N_18
REMARK    7  A    between atoms: C_23  and  C_24
REMARK    8  A    between atoms: C_24  and  N_25
REMARK    9  A    between atoms: C_27  and  C_28
REMARK   10  A    between atoms: C_32  and  C_33
REMARK                            x       y       z     vdW  Elec       q    Type
REMARK                         _______ _______ _______ _____ _____    ______ ____
ROOT
ATOM      1  N   UNL     1       2.245   7.418  19.441  0.00  0.00    +0.000 N 
ATOM      2  C   UNL     1       1.542   7.817  20.633  0.00  0.00    +0.000 C 
ATOM      3  C   UNL     1       0.977   9.144  20.331  0.00  0.00    +0.000 A 
ATOM      4  C   UNL     1       1.291   9.523  19.032  0.00  0.00    +0.000 A 
ATOM      5  C   UNL     1       0.809  10.734  18.536  0.00  0.00    +0.000 A 
ATOM      6  C   UNL     1       0.013  11.564  19.382  0.00  0.00    +0.000 A 
ATOM      7  C   UNL     1      -0.255  11.143  20.706  0.00  0.00    +0.000 A 
ATOM      8  C   UNL     1       0.215   9.924  21.197  0.00  0.00    +0.000 A 
ATOM      9  C   UNL     1       2.129   8.411  18.440  0.00  0.00    +0.000 C 
ATOM     10  O   UNL     1       2.592   8.436  17.312  0.00  0.00    +0.000 OA
ENDROOT
BRANCH   1  15
ATOM     11  C   UNL     1       5.202   5.097  19.064  0.00  0.00    +0.000 A 
ATOM     12  C   UNL     1       4.603   3.863  19.308  0.00  0.00    +0.000 A 
ATOM     13  C   UNL     1       3.239   3.793  19.659  0.00  0.00    +0.000 A 
ATOM     14  C   UNL     1       2.428   4.945  19.726  0.00  0.00    +0.000 A 
ATOM     15  C   UNL     1       2.989   6.194  19.499  0.00  0.00    +0.000 A 
ATOM     16  C   UNL     1       4.389   6.234  19.239  0.00  0.00    +0.000 A 
BRANCH  11  17
ATOM     17  C   UNL     1       6.591   5.287  18.396  0.00  0.00    +0.000 C 
ATOM     18  C   UNL     1       7.536   5.752  19.520  0.00  0.00    +0.000 C 
ATOM     19  F   UNL     1       7.090   4.057  17.994  0.00  0.00    +0.000 F 
BRANCH  17  20
ATOM     20  C   UNL     1       6.645   6.211  17.132  0.00  0.00    +0.000 C 
ATOM     21  F   UNL     1       7.774   6.979  17.168  0.00  0.00    +0.000 F 
ATOM     22  F   UNL     1       5.606   7.099  17.188  0.00  0.00    +0.000 F 
BRANCH  20  28
ATOM     23  C   UNL     1       4.356   4.261  15.920  0.00  0.00    +0.000 C 
ATOM     24  N   UNL     1       5.655   4.566  15.382  0.00  0.00    +0.000 N 
ATOM     25  C   UNL     1       6.130   4.035  14.216  0.00  0.00    +0.000 A 
ATOM     26  N   UNL     1       7.256   4.621  13.895  0.00  0.00    +0.000 NA
ATOM     27  N   UNL     1       7.539   5.528  14.879  0.00  0.00    +0.000 NA
ATOM     28  C   UNL     1       6.617   5.444  15.827  0.00  0.00    +0.000 A 
ENDBRANCH  20  28
ENDBRANCH  17  20
ENDBRANCH  11  17
ENDBRANCH   1  15
BRANCH   8  29
ATOM     29  C   UNL     1      -0.128   9.472  22.594  0.00  0.00    +0.000 C 
ATOM     30  F   UNL     1      -0.864   8.325  22.637  0.00  0.00    +0.000 F 
ATOM     31  F   UNL     1       0.975   9.226  23.349  0.00  0.00    +0.000 F 
ATOM     32  F   UNL     1      -0.861  10.396  23.269  0.00  0.00    +0.000 F 
ENDBRANCH   8  29
BRANCH   6  33
ATOM     33  C   UNL     1      -0.688  12.816  18.846  0.00  0.00    +0.000 C 
BRANCH  33  34
ATOM     34  N   UNL     1       0.207  13.909  18.393  0.00  0.00    +0.000 NA
ATOM     35  C   UNL     1      -0.282  15.247  18.770  0.00  0.00    +0.000 C 
ATOM     36  C   UNL     1       1.066  15.554  19.452  0.00  0.00    +0.000 C 
ATOM     37  C   UNL     1       1.361  14.050  19.307  0.00  0.00    +0.000 C 
BRANCH  36  38
ATOM     38  C   UNL     1       1.959  16.446  18.748  0.00  0.00    +0.000 C 
ATOM     39  N   UNL     1       2.682  17.191  18.213  0.00  0.00    +0.000 NA
ENDBRANCH  36  38
ENDBRANCH  33  34
ENDBRANCH   6  33
TORSDOF 8
ENDMDL
MODEL 4
REMARK VINA RESULT:      -9.4      1.641      2.539
REMARK  Name = 
REMARK  10 active torsions:
REMARK  status: ('A' for Active; 'I' for Inactive)
REMARK    1  A    between atoms: C_1  and  N_2
REMARK    2  A    between atoms: C_6  and  C_7
REMARK    3  A    between atoms: C_7  and  C_10
REMARK    4  A    between atoms: C_10  and  C_11
REMARK    5  A    between atoms: C_10  and  C_13
REMARK    6  A    between atoms: C_17  and  N_18
REMARK    7  A    between atoms: C_23  and  C_24
REMARK    8  A    between atoms: C_24  and  N_25
REMARK    9  A    between atoms: C_27  and  C_28
REMARK   10  A    between atoms: C_32  and  C_33
REMARK                            x       y       z     vdW  Elec       q    Type
REMARK                         _______ _______ _______ _____ _____    ______ ____
ROOT
ATOM      1  N   UNL     1       2.376   7.340  19.185  0.00  0.00    +0.000 N 
ATOM      2  C   UNL     1       1.670   7.735  20.377  0.00  0.00    +0.000 C 
ATOM      3  C   UNL     1       1.058   9.038  20.058  0.00  0.00    +0.000 A 
ATOM      4  C   UNL     1       1.348   9.405  18.750  0.00  0.00    +0.000 A 
ATOM      5  C   UNL     1       0.822  10.591  18.238  0.00  0.00    +0.000 A 
ATOM      6  C   UNL     1       0.005  11.408  19.077  0.00  0.00    +0.000 A 
ATOM      7  C   UNL     1      -0.237  11.000  20.410  0.00  0.00    +0.000 A 
ATOM      8  C   UNL     1       0.278   9.806  20.918  0.00  0.00    +0.000 A 
ATOM      9  C   UNL     1       2.219   8.312  18.169  0.00  0.00    +0.000 C 
ATOM     10  O   UNL     1       2.670   8.333  17.037  0.00  0.00    +0.000 OA
ENDROOT
BRANCH   1  15
ATOM     11  C   UNL     1       5.164   4.928  18.362  0.00  0.00    +0.000 A 
ATOM     12  C   UNL     1       4.744   3.792  19.052  0.00  0.00    +0.000 A 
ATOM     13  C   UNL     1       3.575   3.833  19.840  0.00  0.00    +0.000 A 
ATOM     14  C   UNL     1       2.771   4.989  19.921  0.00  0.00    +0.000 A 
ATOM     15  C   UNL     1       3.161   6.143  19.257  0.00  0.00    +0.000 A 
ATOM     16  C   UNL     1       4.395   6.093  18.546  0.00  0.00    +0.000 A 
BRANCH  11  17
ATOM     17  C   UNL     1       6.245   4.933  17.247  0.00  0.00    +0.000 C 
ATOM     18  C   UNL     1       6.676   6.403  17.089  0.00  0.00    +0.000 C 
ATOM     19  F   UNL     1       7.381   4.273  17.692  0.00  0.00    +0.000 F 
BRANCH  17  20
ATOM     20  C   UNL     1       5.857   4.260  15.886  0.00  0.00    +0.000 C 
ATOM     21  F   UNL     1       4.553   4.536  15.589  0.00  0.00    +0.000 F 
ATOM     22  F   UNL     1       5.911   2.901  16.033  0.00  0.00    +0.000 F 
BRANCH  20  28
ATOM     23  C   UNL     1       5.664   3.513  12.737  0.00  0.00    +0.000 C 
ATOM     24  N   UNL     1       6.656   4.305  13.414  0.00  0.00    +0.000 N 
ATOM     25  C   UNL     1       7.722   4.878  12.781  0.00  0.00    +0.000 A 
ATOM     26  N   UNL     1       8.350   5.671  13.612  0.00  0.00    +0.000 NA
ATOM     27  N   UNL     1       7.706   5.593  14.816  0.00  0.00    +0.000 NA
ATOM     28  C   UNL     1       6.728   4.704  14.730  0.00  0.00    +0.000 A 
ENDBRANCH  20  28
ENDBRANCH  17  20
ENDBRANCH  11  17
ENDBRANCH   1  15
BRANCH   8  29
ATOM     29  C   UNL     1      -0.038   9.367  22.325  0.00  0.00    +0.000 C 
ATOM     30  F   UNL     1       1.063   9.045  23.062  0.00  0.00    +0.000 F 
ATOM     31  F   UNL     1      -0.685  10.326  23.039  0.00  0.00    +0.000 F 
ATOM     32  F   UNL     1      -0.829   8.263  22.355  0.00  0.00    +0.000 F 
ENDBRANCH   8  29
BRANCH   6  33
ATOM     33  C   UNL     1      -0.742  12.627  18.527  0.00  0.00    +0.000 C 
BRANCH  33  34
ATOM     34  N   UNL     1       0.037  13.888  18.475  0.00  0.00    +0.000 NA
ATOM     35  C   UNL     1       0.045  14.613  19.759  0.00  0.00    +0.000 C 
ATOM     36  C   UNL     1       1.586  14.637  19.742  0.00  0.00    +0.000 C 
ATOM     37  C   UNL     1       1.485  13.611  18.599  0.00  0.00    +0.000 C 
BRANCH  36  38
ATOM     38  C   UNL     1       2.210  15.897  19.409  0.00  0.00    +0.000 C 
ATOM     39  N   UNL     1       2.740  16.911  19.174  0.00  0.00    +0.000 NA
ENDBRANCH  36  38
ENDBRANCH  33  34
ENDBRANCH   6  33
TORSDOF 8
ENDMDL
MODEL 5
REMARK VINA RESULT:      -9.3      1.583      2.618
REMARK  Name = 
REMARK  10 active torsions:
REMARK  status: ('A' for Active; 'I' for Inactive)
REMARK    1  A    between atoms: C_1  and  N_2
REMARK    2  A    between atoms: C_6  and  C_7
REMARK    3  A    between atoms: C_7  and  C_10
REMARK    4  A    between atoms: C_10  and  C_11
REMARK    5  A    between atoms: C_10  and  C_13
REMARK    6  A    between atoms: C_17  and  N_18
REMARK    7  A    between atoms: C_23  and  C_24
REMARK    8  A    between atoms: C_24  and  N_25
REMARK    9  A    between atoms: C_27  and  C_28
REMARK   10  A    between atoms: C_32  and  C_33
REMARK                            x       y       z     vdW  Elec       q    Type
REMARK                         _______ _______ _______ _____ _____    ______ ____
ROOT
ATOM      1  N   UNL     1       2.149   7.589  19.404  0.00  0.00    +0.000 N 
ATOM      2  C   UNL     1       1.498   7.925  20.644  0.00  0.00    +0.000 C 
ATOM      3  C   UNL     1       0.970   9.288  20.454  0.00  0.00    +0.000 A 
ATOM      4  C   UNL     1       1.255   9.748  19.175  0.00  0.00    +0.000 A 
ATOM      5  C   UNL     1       0.801  11.006  18.782  0.00  0.00    +0.000 A 
ATOM      6  C   UNL     1       0.060  11.799  19.710  0.00  0.00    +0.000 A 
ATOM      7  C   UNL     1      -0.180  11.294  21.010  0.00  0.00    +0.000 A 
ATOM      8  C   UNL     1       0.263  10.028  21.398  0.00  0.00    +0.000 A 
ATOM      9  C   UNL     1       2.036   8.654  18.479  0.00  0.00    +0.000 C 
ATOM     10  O   UNL     1       2.463   8.744  17.341  0.00  0.00    +0.000 OA
ENDROOT
BRANCH   1  15
ATOM     11  C   UNL     1       4.493   4.945  18.068  0.00  0.00    +0.000 A 
ATOM     12  C   UNL     1       4.185   3.871  18.902  0.00  0.00    +0.000 A 
ATOM     13  C   UNL     1       3.250   4.031  19.947  0.00  0.00    +0.000 A 
ATOM     14  C   UNL     1       2.565   5.245  20.154  0.00  0.00    +0.000 A 
ATOM     15  C   UNL     1       2.851   6.341  19.351  0.00  0.00    +0.000 A 
ATOM     16  C   UNL     1       3.867   6.171  18.367  0.00  0.00    +0.000 A 
BRANCH  11  17
ATOM     17  C   UNL     1       5.266   4.825  16.726  0.00  0.00    +0.000 C 
ATOM     18  C   UNL     1       4.713   3.563  16.037  0.00  0.00    +0.000 C 
ATOM     19  F   UNL     1       4.917   5.873  15.888  0.00  0.00    +0.000 F 
BRANCH  17  20
ATOM     20  C   UNL     1       6.830   4.839  16.810  0.00  0.00    +0.000 C 
ATOM     21  F   UNL     1       7.362   4.561  15.583  0.00  0.00    +0.000 F 
ATOM     22  F   UNL     1       7.239   3.813  17.618  0.00  0.00    +0.000 F 
BRANCH  20  28
ATOM     23  C   UNL     1       7.950   5.656  19.742  0.00  0.00    +0.000 C 
ATOM     24  N   UNL     1       7.790   6.485  18.576  0.00  0.00    +0.000 N 
ATOM     25  C   UNL     1       8.102   7.815  18.551  0.00  0.00    +0.000 A 
ATOM     26  N   UNL     1       8.016   8.261  17.323  0.00  0.00    +0.000 NA
ATOM     27  N   UNL     1       7.612   7.217  16.537  0.00  0.00    +0.000 NA
ATOM     28  C   UNL     1       7.392   6.157  17.300  0.00  0.00    +0.000 A 
ENDBRANCH  20  28
ENDBRANCH  17  20
ENDBRANCH  11  17
ENDBRANCH   1  15
BRANCH   8  29
ATOM     29  C   UNL     1      -0.052   9.490  22.771  0.00  0.00    +0.000 C 
ATOM     30  F   UNL     1      -0.790   8.344  22.758  0.00  0.00    +0.000 F 
ATOM     31  F   UNL     1       1.067   9.193  23.485  0.00  0.00    +0.000 F 
ATOM     32  F   UNL     1      -0.766  10.371  23.519  0.00  0.00    +0.000 F 
ENDBRANCH   8  29
BRANCH   6  33
ATOM     33  C   UNL     1      -0.613  13.108  19.288  0.00  0.00    +0.000 C 
BRANCH  33  34
ATOM     34  N   UNL     1      -1.942  12.968  18.644  0.00  0.00    +0.000 NA
ATOM     35  C   UNL     1      -2.010  11.834  17.704  0.00  0.00    +0.000 C 
ATOM     36  C   UNL     1      -3.240  11.281  18.450  0.00  0.00    +0.000 C 
ATOM     37  C   UNL     1      -2.893  12.296  19.555  0.00  0.00    +0.000 C 
BRANCH  36  38
ATOM     38  C   UNL     1      -4.521  11.459  17.806  0.00  0.00    +0.000 C 
ATOM     39  N   UNL     1      -5.545  11.574  17.255  0.00  0.00    +0.000 NA
ENDBRANCH  36  38
ENDBRANCH  33  34
ENDBRANCH   6  33
TORSDOF 8
ENDMDL
MODEL 6
REMARK VINA RESULT:      -9.3      1.670      2.464
REMARK  Name = 
REMARK  10 active torsions:
REMARK  status: ('A' for Active; 'I' for Inactive)
REMARK    1  A    between atoms: C_1  and  N_2
REMARK    2  A    between atoms: C_6  and  C_7
REMARK    3  A    between atoms: C_7  and  C_10
REMARK    4  A    between atoms: C_10  and  C_11
REMARK    5  A    between atoms: C_10  and  C_13
REMARK    6  A    between atoms: C_17  and  N_18
REMARK    7  A    between atoms: C_23  and  C_24
REMARK    8  A    between atoms: C_24  and  N_25
REMARK    9  A    between atoms: C_27  and  C_28
REMARK   10  A    between atoms: C_32  and  C_33
REMARK                            x       y       z     vdW  Elec       q    Type
REMARK                         _______ _______ _______ _____ _____    ______ ____
ROOT
ATOM      1  N   UNL     1       1.945   8.094  19.185  0.00  0.00    +0.000 N 
ATOM      2  C   UNL     1       1.305   8.295  20.459  0.00  0.00    +0.000 C 
ATOM      3  C   UNL     1       0.731   9.651  20.401  0.00  0.00    +0.000 A 
ATOM      4  C   UNL     1       0.980  10.234  19.165  0.00  0.00    +0.000 A 
ATOM      5  C   UNL     1       0.479  11.506  18.893  0.00  0.00    +0.000 A 
ATOM      6  C   UNL     1      -0.270  12.188  19.900  0.00  0.00    +0.000 A 
ATOM      7  C   UNL     1      -0.472  11.560  21.152  0.00  0.00    +0.000 A 
ATOM      8  C   UNL     1       0.017  10.280  21.418  0.00  0.00    +0.000 A 
ATOM      9  C   UNL     1       1.783   9.234  18.362  0.00  0.00    +0.000 C 
ATOM     10  O   UNL     1       2.187   9.439  17.230  0.00  0.00    +0.000 OA
ENDROOT
BRANCH   1  15
ATOM     11  C   UNL     1       4.587   5.773  17.805  0.00  0.00    +0.000 A 
ATOM     12  C   UNL     1       4.162   4.550  18.321  0.00  0.00    +0.000 A 
ATOM     13  C   UNL     1       3.041   4.493  19.176  0.00  0.00    +0.000 A 
ATOM     14  C   UNL     1       2.289   5.642  19.496  0.00  0.00    +0.000 A 
ATOM     15  C   UNL     1       2.686   6.879  19.010  0.00  0.00    +0.000 A 
ATOM     16  C   UNL     1       3.875   6.913  18.226  0.00  0.00    +0.000 A 
BRANCH  11  17
ATOM     17  C   UNL     1       5.604   5.933  16.642  0.00  0.00    +0.000 C 
ATOM     18  C   UNL     1       4.912   6.835  15.603  0.00  0.00    +0.000 C 
ATOM     19  F   UNL     1       6.702   6.661  17.075  0.00  0.00    +0.000 F 
BRANCH  17  20
ATOM     20  C   UNL     1       6.176   4.613  16.020  0.00  0.00    +0.000 C 
ATOM     21  F   UNL     1       5.176   3.693  15.886  0.00  0.00    +0.000 F 
ATOM     22  F   UNL     1       7.060   4.055  16.902  0.00  0.00    +0.000 F 
BRANCH  20  28
ATOM     23  C   UNL     1       5.278   3.558  13.088  0.00  0.00    +0.000 C 
ATOM     24  N   UNL     1       6.459   4.295  13.457  0.00  0.00    +0.000 N 
ATOM     25  C   UNL     1       7.424   4.666  12.564  0.00  0.00    +0.000 A 
ATOM     26  N   UNL     1       8.280   5.463  13.151  0.00  0.00    +0.000 NA
ATOM     27  N   UNL     1       7.889   5.593  14.455  0.00  0.00    +0.000 NA
ATOM     28  C   UNL     1       6.833   4.823  14.672  0.00  0.00    +0.000 A 
ENDBRANCH  20  28
ENDBRANCH  17  20
ENDBRANCH  11  17
ENDBRANCH   1  15
BRANCH   8  29
ATOM     29  C   UNL     1      -0.256   9.611  22.741  0.00  0.00    +0.000 C 
ATOM     30  F   UNL     1      -1.061  10.336  23.569  0.00  0.00    +0.000 F 
ATOM     31  F   UNL     1      -0.871   8.406  22.601  0.00  0.00    +0.000 F 
ATOM     32  F   UNL     1       0.881   9.385  23.450  0.00  0.00    +0.000 F 
ENDBRANCH   8  29
BRANCH   6  33
ATOM     33  C   UNL     1      -0.992  13.507  19.607  0.00  0.00    +0.000 C 
BRANCH  33  34
ATOM     34  N   UNL     1      -0.203  14.739  19.851  0.00  0.00    +0.000 NA
ATOM     35  C   UNL     1       1.243  14.480  19.982  0.00  0.00    +0.000 C 
ATOM     36  C   UNL     1       1.534  15.513  18.875  0.00  0.00    +0.000 C 
ATOM     37  C   UNL     1       0.022  15.472  18.587  0.00  0.00    +0.000 C 
BRANCH  36  38
ATOM     38  C   UNL     1       2.063  16.788  19.304  0.00  0.00    +0.000 C 
ATOM     39  N   UNL     1       2.486  17.805  19.690  0.00  0.00    +0.000 NA
ENDBRANCH  36  38
ENDBRANCH  33  34
ENDBRANCH   6  33
TORSDOF 8
ENDMDL
MODEL 7
REMARK VINA RESULT:      -9.2      1.260      1.868
REMARK  Name = 
REMARK  10 active torsions:
REMARK  status: ('A' for Active; 'I' for Inactive)
REMARK    1  A    between atoms: C_1  and  N_2
REMARK    2  A    between atoms: C_6  and  C_7
REMARK    3  A    between atoms: C_7  and  C_10
REMARK    4  A    between atoms: C_10  and  C_11
REMARK    5  A    between atoms: C_10  and  C_13
REMARK    6  A    between atoms: C_17  and  N_18
REMARK    7  A    between atoms: C_23  and  C_24
REMARK    8  A    between atoms: C_24  and  N_25
REMARK    9  A    between atoms: C_27  and  C_28
REMARK   10  A    between atoms: C_32  and  C_33
REMARK                            x       y       z     vdW  Elec       q    Type
REMARK                         _______ _______ _______ _____ _____    ______ ____
ROOT
ATOM      1  N   UNL     1       1.844   7.333  19.844  0.00  0.00    +0.000 N 
ATOM      2  C   UNL     1       1.153   7.889  20.979  0.00  0.00    +0.000 C 
ATOM      3  C   UNL     1       0.890   9.297  20.628  0.00  0.00    +0.000 A 
ATOM      4  C   UNL     1       1.365   9.578  19.353  0.00  0.00    +0.000 A 
ATOM      5  C   UNL     1       1.174  10.850  18.816  0.00  0.00    +0.000 A 
ATOM      6  C   UNL     1       0.503  11.841  19.595  0.00  0.00    +0.000 A 
ATOM      7  C   UNL     1       0.063  11.509  20.898  0.00  0.00    +0.000 A 
ATOM      8  C   UNL     1       0.241  10.231  21.431  0.00  0.00    +0.000 A 
ATOM      9  C   UNL     1       2.002   8.308  18.831  0.00  0.00    +0.000 C 
ATOM     10  O   UNL     1       2.538   8.216  17.740  0.00  0.00    +0.000 OA
ENDROOT
BRANCH   1  15
ATOM     11  C   UNL     1       3.389   4.057  18.771  0.00  0.00    +0.000 A 
ATOM     12  C   UNL     1       3.126   3.262  19.886  0.00  0.00    +0.000 A 
ATOM     13  C   UNL     1       2.496   3.817  21.019  0.00  0.00    +0.000 A 
ATOM     14  C   UNL     1       2.067   5.160  21.051  0.00  0.00    +0.000 A 
ATOM     15  C   UNL     1       2.319   5.986  19.965  0.00  0.00    +0.000 A 
ATOM     16  C   UNL     1       3.040   5.418  18.875  0.00  0.00    +0.000 A 
BRANCH  11  17
ATOM     17  C   UNL     1       3.801   3.511  17.377  0.00  0.00    +0.000 C 
ATOM     18  C   UNL     1       4.020   1.999  17.568  0.00  0.00    +0.000 C 
ATOM     19  F   UNL     1       2.732   3.610  16.499  0.00  0.00    +0.000 F 
BRANCH  17  20
ATOM     20  C   UNL     1       5.008   4.218  16.671  0.00  0.00    +0.000 C 
ATOM     21  F   UNL     1       4.549   5.205  15.846  0.00  0.00    +0.000 F 
ATOM     22  F   UNL     1       5.626   3.319  15.845  0.00  0.00    +0.000 F 
BRANCH  20  28
ATOM     23  C   UNL     1       5.930   7.302  17.061  0.00  0.00    +0.000 C 
ATOM     24  N   UNL     1       6.421   6.125  17.728  0.00  0.00    +0.000 N 
ATOM     25  C   UNL     1       7.411   6.151  18.670  0.00  0.00    +0.000 A 
ATOM     26  N   UNL     1       7.525   4.968  19.217  0.00  0.00    +0.000 NA
ATOM     27  N   UNL     1       6.619   4.145  18.605  0.00  0.00    +0.000 NA
ATOM     28  C   UNL     1       6.002   4.817  17.643  0.00  0.00    +0.000 A 
ENDBRANCH  20  28
ENDBRANCH  17  20
ENDBRANCH  11  17
ENDBRANCH   1  15
BRANCH   8  29
ATOM     29  C   UNL     1      -0.284   9.887  22.801  0.00  0.00    +0.000 C 
ATOM     30  F   UNL     1       0.693   9.610  23.712  0.00  0.00    +0.000 F 
ATOM     31  F   UNL     1      -1.016  10.894  23.348  0.00  0.00    +0.000 F 
ATOM     32  F   UNL     1      -1.086   8.790  22.786  0.00  0.00    +0.000 F 
ENDBRANCH   8  29
BRANCH   6  33
ATOM     33  C   UNL     1       0.109  13.197  19.002  0.00  0.00    +0.000 C 
BRANCH  33  34
ATOM     34  N   UNL     1       0.876  14.364  19.503  0.00  0.00    +0.000 NA
ATOM     35  C   UNL     1       2.152  14.561  18.793  0.00  0.00    +0.000 C 
ATOM     36  C   UNL     1       1.755  16.015  18.471  0.00  0.00    +0.000 C 
ATOM     37  C   UNL     1       0.341  15.620  18.934  0.00  0.00    +0.000 C 
BRANCH  36  38
ATOM     38  C   UNL     1       2.409  17.050  19.241  0.00  0.00    +0.000 C 
ATOM     39  N   UNL     1       2.966  17.888  19.832  0.00  0.00    +0.000 NA
ENDBRANCH  36  38
ENDBRANCH  33  34
ENDBRANCH   6  33
TORSDOF 8
ENDMDL
MODEL 8
REMARK VINA RESULT:      -9.2      3.322      9.357
REMARK  Name = 
REMARK  10 active torsions:
REMARK  status: ('A' for Active; 'I' for Inactive)
REMARK    1  A    between atoms: C_1  and  N_2
REMARK    2  A    between atoms: C_6  and  C_7
REMARK    3  A    between atoms: C_7  and  C_10
REMARK    4  A    between atoms: C_10  and  C_11
REMARK    5  A    between atoms: C_10  and  C_13
REMARK    6  A    between atoms: C_17  and  N_18
REMARK    7  A    between atoms: C_23  and  C_24
REMARK    8  A    between atoms: C_24  and  N_25
REMARK    9  A    between atoms: C_27  and  C_28
REMARK   10  A    between atoms: C_32  and  C_33
REMARK                            x       y       z     vdW  Elec       q    Type
REMARK                         _______ _______ _______ _____ _____    ______ ____
ROOT
ATOM      1  N   UNL     1       1.665   7.919  20.015  0.00  0.00    +0.000 N 
ATOM      2  C   UNL     1       1.622   6.602  20.597  0.00  0.00    +0.000 C 
ATOM      3  C   UNL     1       2.315   5.725  19.637  0.00  0.00    +0.000 A 
ATOM      4  C   UNL     1       2.776   6.458  18.551  0.00  0.00    +0.000 A 
ATOM      5  C   UNL     1       3.500   5.816  17.547  0.00  0.00    +0.000 A 
ATOM      6  C   UNL     1       3.741   4.413  17.654  0.00  0.00    +0.000 A 
ATOM      7  C   UNL     1       3.227   3.708  18.768  0.00  0.00    +0.000 A 
ATOM      8  C   UNL     1       2.515   4.354  19.780  0.00  0.00    +0.000 A 
ATOM      9  C   UNL     1       2.349   7.893  18.777  0.00  0.00    +0.000 C 
ATOM     10  O   UNL     1       2.576   8.800  17.995  0.00  0.00    +0.000 OA
ENDROOT
BRANCH   1  15
ATOM     11  C   UNL     1       0.490  11.422  20.800  0.00  0.00    +0.000 A 
ATOM     12  C   UNL     1      -0.153  11.219  22.021  0.00  0.00    +0.000 A 
ATOM     13  C   UNL     1      -0.256   9.920  22.560  0.00  0.00    +0.000 A 
ATOM     14  C   UNL     1       0.320   8.801  21.923  0.00  0.00    +0.000 A 
ATOM     15  C   UNL     1       0.959   8.961  20.702  0.00  0.00    +0.000 A 
ATOM     16  C   UNL     1       0.964  10.271  20.142  0.00  0.00    +0.000 A 
BRANCH  11  17
ATOM     17  C   UNL     1       0.922  12.809  20.252  0.00  0.00    +0.000 C 
ATOM     18  C   UNL     1       0.907  13.760  21.464  0.00  0.00    +0.000 C 
ATOM     19  F   UNL     1       2.249  12.763  19.849  0.00  0.00    +0.000 F 
BRANCH  17  20
ATOM     20  C   UNL     1       0.117  13.366  19.029  0.00  0.00    +0.000 C 
ATOM     21  F   UNL     1       0.849  13.218  17.886  0.00  0.00    +0.000 F 
ATOM     22  F   UNL     1      -0.040  14.717  19.181  0.00  0.00    +0.000 F 
BRANCH  20  28
ATOM     23  C   UNL     1      -2.640  13.736  20.696  0.00  0.00    +0.000 C 
ATOM     24  N   UNL     1      -2.355  12.825  19.618  0.00  0.00    +0.000 N 
ATOM     25  C   UNL     1      -3.265  11.932  19.127  0.00  0.00    +0.000 A 
ATOM     26  N   UNL     1      -2.784  11.365  18.050  0.00  0.00    +0.000 NA
ATOM     27  N   UNL     1      -1.528  11.870  17.848  0.00  0.00    +0.000 NA
ATOM     28  C   UNL     1      -1.227  12.694  18.841  0.00  0.00    +0.000 A 
ENDBRANCH  20  28
ENDBRANCH  17  20
ENDBRANCH  11  17
ENDBRANCH   1  15
BRANCH   8  29
ATOM     29  C   UNL     1       2.023   3.591  20.984  0.00  0.00    +0.000 C 
ATOM     30  F   UNL     1       2.414   2.285  21.005  0.00  0.00    +0.000 F 
ATOM     31  F   UNL     1       2.464   4.122  22.155  0.00  0.00    +0.000 F 
ATOM     32  F   UNL     1       0.667   3.563  21.058  0.00  0.00    +0.000 F 
ENDBRANCH   8  29
BRANCH   6  33
ATOM     33  C   UNL     1       4.672   3.684  16.681  0.00  0.00    +0.000 C 
BRANCH  33  34
ATOM     34  N   UNL     1       5.486   4.553  15.796  0.00  0.00    +0.000 NA
ATOM     35  C   UNL     1       6.922   4.224  15.828  0.00  0.00    +0.000 C 
ATOM     36  C   UNL     1       6.928   4.074  14.294  0.00  0.00    +0.000 C 
ATOM     37  C   UNL     1       5.392   4.100  14.392  0.00  0.00    +0.000 C 
BRANCH  36  38
ATOM     38  C   UNL     1       7.533   5.150  13.541  0.00  0.00    +0.000 C 
ATOM     39  N   UNL     1       8.057   5.995  12.929  0.00  0.00    +0.000 NA
ENDBRANCH  36  38
ENDBRANCH  33  34
ENDBRANCH   6  33
TORSDOF 8
ENDMDL
MODEL 9
REMARK VINA RESULT:      -9.2      2.032      3.478
REMARK  Name = 
REMARK  10 active torsions:
REMARK  status: ('A' for Active; 'I' for Inactive)
REMARK    1  A    between atoms: C_1  and  N_2
REMARK    2  A    between atoms: C_6  and  C_7
REMARK    3  A    between atoms: C_7  and  C_10
REMARK    4  A    between atoms: C_10  and  C_11
REMARK    5  A    between atoms: C_10  and  C_13
REMARK    6  A    between atoms: C_17  and  N_18
REMARK    7  A    between atoms: C_23  and  C_24
REMARK    8  A    between atoms: C_24  and  N_25
REMARK    9  A    between atoms: C_27  and  C_28
REMARK   10  A    between atoms: C_32  and  C_33
REMARK                            x       y       z     vdW  Elec       q    Type
REMARK                         _______ _______ _______ _____ _____    ______ ____
ROOT
ATOM      1  N   UNL     1       2.250   7.446  19.459  0.00  0.00    +0.000 N 
ATOM      2  C   UNL     1       1.560   7.838  20.660  0.00  0.00    +0.000 C 
ATOM      3  C   UNL     1       1.024   9.184  20.385  0.00  0.00    +0.000 A 
ATOM      4  C   UNL     1       1.343   9.580  19.092  0.00  0.00    +0.000 A 
ATOM      5  C   UNL     1       0.888  10.811  18.620  0.00  0.00    +0.000 A 
ATOM      6  C   UNL     1       0.112  11.642  19.484  0.00  0.00    +0.000 A 
ATOM      7  C   UNL     1      -0.161  11.202  20.801  0.00  0.00    +0.000 A 
ATOM      8  C   UNL     1       0.282   9.964  21.268  0.00  0.00    +0.000 A 
ATOM      9  C   UNL     1       2.155   8.461  18.477  0.00  0.00    +0.000 C 
ATOM     10  O   UNL     1       2.614   8.496  17.348  0.00  0.00    +0.000 OA
ENDROOT
BRANCH   1  15
ATOM     11  C   UNL     1       5.161   5.073  19.054  0.00  0.00    +0.000 A 
ATOM     12  C   UNL     1       4.532   3.845  19.256  0.00  0.00    +0.000 A 
ATOM     13  C   UNL     1       3.162   3.796  19.586  0.00  0.00    +0.000 A 
ATOM     14  C   UNL     1       2.375   4.963  19.675  0.00  0.00    +0.000 A 
ATOM     15  C   UNL     1       2.967   6.205  19.492  0.00  0.00    +0.000 A 
ATOM     16  C   UNL     1       4.371   6.222  19.251  0.00  0.00    +0.000 A 
BRANCH  11  17
ATOM     17  C   UNL     1       6.563   5.250  18.410  0.00  0.00    +0.000 C 
ATOM     18  C   UNL     1       7.497   5.684  19.555  0.00  0.00    +0.000 C 
ATOM     19  F   UNL     1       7.050   4.018  17.998  0.00  0.00    +0.000 F 
BRANCH  17  20
ATOM     20  C   UNL     1       6.650   6.191  17.160  0.00  0.00    +0.000 C 
ATOM     21  F   UNL     1       7.782   6.952  17.232  0.00  0.00    +0.000 F 
ATOM     22  F   UNL     1       5.615   7.085  17.206  0.00  0.00    +0.000 F 
BRANCH  20  28
ATOM     23  C   UNL     1       4.360   4.304  15.853  0.00  0.00    +0.000 C 
ATOM     24  N   UNL     1       5.681   4.590  15.358  0.00  0.00    +0.000 N 
ATOM     25  C   UNL     1       6.181   4.065  14.201  0.00  0.00    +0.000 A 
ATOM     26  N   UNL     1       7.327   4.631  13.922  0.00  0.00    +0.000 NA
ATOM     27  N   UNL     1       7.599   5.520  14.926  0.00  0.00    +0.000 NA
ATOM     28  C   UNL     1       6.647   5.442  15.845  0.00  0.00    +0.000 A 
ENDBRANCH  20  28
ENDBRANCH  17  20
ENDBRANCH  11  17
ENDBRANCH   1  15
BRANCH   8  29
ATOM     29  C   UNL     1      -0.067   9.494  22.657  0.00  0.00    +0.000 C 
ATOM     30  F   UNL     1      -0.804   8.346  22.682  0.00  0.00    +0.000 F 
ATOM     31  F   UNL     1       1.032   9.237  23.414  0.00  0.00    +0.000 F 
ATOM     32  F   UNL     1      -0.803  10.409  23.341  0.00  0.00    +0.000 F 
ENDBRANCH   8  29
BRANCH   6  33
ATOM     33  C   UNL     1      -0.561  12.920  18.974  0.00  0.00    +0.000 C 
BRANCH  33  34
ATOM     34  N   UNL     1      -1.920  12.746  18.405  0.00  0.00    +0.000 NA
ATOM     35  C   UNL     1      -2.036  11.555  17.544  0.00  0.00    +0.000 C 
ATOM     36  C   UNL     1      -3.230  11.058  18.382  0.00  0.00    +0.000 C 
ATOM     37  C   UNL     1      -2.828  12.139  19.402  0.00  0.00    +0.000 C 
BRANCH  36  38
ATOM     38  C   UNL     1      -4.540  11.201  17.789  0.00  0.00    +0.000 C 
ATOM     39  N   UNL     1      -5.581  11.314  17.272  0.00  0.00    +0.000 NA
ENDBRANCH  36  38
ENDBRANCH  33  34
ENDBRANCH   6  33
TORSDOF 8
ENDMDL
