MODEL 1
REMARK VINA RESULT:      -9.5      0.000      0.000
REMARK  Name = 
REMARK  8 active torsions:
REMARK  status: ('A' for Active; 'I' for Inactive)
REMARK    1  A    between atoms: C_1  and  N_2
REMARK    2  A    between atoms: C_6  and  C_7
REMARK    3  A    between atoms: C_7  and  C_8
REMARK    4  A    between atoms: C_8  and  C_9
REMARK    5  A    between atoms: C_13  and  N_14
REMARK    6  A    between atoms: C_19  and  C_20
REMARK    7  A    between atoms: C_20  and  N_21
REMARK    8  A    between atoms: C_27  and  C_28
REMARK                            x       y       z     vdW  Elec       q    Type
REMARK                         _______ _______ _______ _____ _____    ______ ____
ROOT
ATOM      1  N   UNL     1       1.646   7.979  20.023  0.00  0.00    +0.000 N 
ATOM      2  C   UNL     1       1.695   6.672  20.639  0.00  0.00    +0.000 C 
ATOM      3  C   UNL     1       2.329   5.809  19.625  0.00  0.00    +0.000 A 
ATOM      4  C   UNL     1       2.806   6.586  18.572  0.00  0.00    +0.000 A 
ATOM      5  C   UNL     1       3.541   6.005  17.556  0.00  0.00    +0.000 A 
ATOM      6  C   UNL     1       3.759   4.602  17.599  0.00  0.00    +0.000 A 
ATOM      7  C   UNL     1       3.184   3.834  18.641  0.00  0.00    +0.000 A 
ATOM      8  C   UNL     1       2.470   4.432  19.682  0.00  0.00    +0.000 A 
ATOM      9  C   UNL     1       2.331   7.996  18.796  0.00  0.00    +0.000 C 
ATOM     10  O   UNL     1       2.520   8.900  18.015  0.00  0.00    +0.000 OA
ENDROOT
BRANCH   1  15
ATOM     11  C   UNL     1      -0.597  10.976  20.247  0.00  0.00    +0.000 A 
ATOM     12  C   UNL     1      -0.646  11.142  21.636  0.00  0.00    +0.000 A 
ATOM     13  C   UNL     1       0.009  10.251  22.507  0.00  0.00    +0.000 A 
ATOM     14  C   UNL     1       0.762   9.173  22.017  0.00  0.00    +0.000 A 
ATOM     15  C   UNL     1       0.844   8.968  20.649  0.00  0.00    +0.000 A 
ATOM     16  C   UNL     1       0.126   9.858  19.815  0.00  0.00    +0.000 A 
BRANCH  11  17
ATOM     17  C   UNL     1      -1.315  11.938  19.160  0.00  0.00    +0.000 C 
ATOM     18  C   UNL     1      -2.870  11.914  19.214  0.00  0.00    +0.000 C 
ATOM     19  O   UNL     1      -2.984  11.393  17.879  0.00  0.00    +0.000 OA
ATOM     20  C   UNL     1      -1.550  11.361  17.725  0.00  0.00    +0.000 C 
BRANCH  17  21
ATOM     21  C   UNL     1      -0.703  13.372  19.149  0.00  0.00    +0.000 C 
BRANCH  21  27
ATOM     22  C   UNL     1       1.226  14.372  21.536  0.00  0.00    +0.000 C 
ATOM     23  N   UNL     1       1.593  13.871  20.239  0.00  0.00    +0.000 N 
ATOM     24  C   UNL     1       2.883  13.771  19.804  0.00  0.00    +0.000 A 
ATOM     25  N   UNL     1       2.901  13.346  18.567  0.00  0.00    +0.000 NA
ATOM     26  N   UNL     1       1.600  13.157  18.178  0.00  0.00    +0.000 NA
ATOM     27  C   UNL     1       0.796  13.439  19.187  0.00  0.00    +0.000 A 
ENDBRANCH  21  27
ENDBRANCH  17  21
ENDBRANCH  11  17
ENDBRANCH   1  15
BRANCH   8  28
ATOM     28  C   UNL     1       1.894   3.598  20.800  0.00  0.00    +0.000 C 
ATOM     29  F   UNL     1       2.333   3.955  22.039  0.00  0.00    +0.000 F 
ATOM     30  F   UNL     1       0.535   3.665  20.847  0.00  0.00    +0.000 F 
ATOM     31  F   UNL     1       2.207   2.281  20.675  0.00  0.00    +0.000 F 
ENDBRANCH   8  28
BRANCH   6  32
ATOM     32  C   UNL     1       4.725   3.945  16.622  0.00  0.00    +0.000 C 
BRANCH  32  33
ATOM     33  N   UNL     1       5.455   4.866  15.731  0.00  0.00    +0.000 NA
ATOM     34  C   UNL     1       6.919   4.736  15.849  0.00  0.00    +0.000 C 
ATOM     35  C   UNL     1       7.024   4.507  14.331  0.00  0.00    +0.000 C 
ATOM     36  F   UNL     1       7.474   5.548  13.588  0.00  0.00    +0.000 F 
ATOM     37  C   UNL     1       5.499   4.307  14.363  0.00  0.00    +0.000 C 
ENDBRANCH  32  33
ENDBRANCH   6  32
TORSDOF 7
ENDMDL
MODEL 2
REMARK VINA RESULT:      -9.5      0.720      1.072
REMARK  Name = 
REMARK  8 active torsions:
REMARK  status: ('A' for Active; 'I' for Inactive)
REMARK    1  A    between atoms: C_1  and  N_2
REMARK    2  A    between atoms: C_6  and  C_7
REMARK    3  A    between atoms: C_7  and  C_8
REMARK    4  A    between atoms: C_8  and  C_9
REMARK    5  A    between atoms: C_13  and  N_14
REMARK    6  A    between atoms: C_19  and  C_20
REMARK    7  A    between atoms: C_20  and  N_21
REMARK    8  A    between atoms: C_27  and  C_28
REMARK                            x       y       z     vdW  Elec       q    Type
REMARK                         _______ _______ _______ _____ _____    ______ ____
ROOT
ATOM      1  N   UNL     1       1.669   8.056  19.870  0.00  0.00    +0.000 N 
ATOM      2  C   UNL     1       1.711   6.764  20.516  0.00  0.00    +0.000 C 
ATOM      3  C   UNL     1       2.373   5.882  19.538  0.00  0.00    +0.000 A 
ATOM      4  C   UNL     1       2.871   6.637  18.479  0.00  0.00    +0.000 A 
ATOM      5  C   UNL     1       3.633   6.037  17.495  0.00  0.00    +0.000 A 
ATOM      6  C   UNL     1       3.857   4.637  17.575  0.00  0.00    +0.000 A 
ATOM      7  C   UNL     1       3.262   3.890  18.621  0.00  0.00    +0.000 A 
ATOM      8  C   UNL     1       2.520   4.508  19.631  0.00  0.00    +0.000 A 
ATOM      9  C   UNL     1       2.382   8.049  18.659  0.00  0.00    +0.000 C 
ATOM     10  O   UNL     1       2.584   8.936  17.861  0.00  0.00    +0.000 OA
ENDROOT
BRANCH   1  15
ATOM     11  C   UNL     1      -0.786  10.890  19.967  0.00  0.00    +0.000 A 
ATOM     12  C   UNL     1      -0.723  11.221  21.326  0.00  0.00    +0.000 A 
ATOM     13  C   UNL     1       0.079  10.493  22.225  0.00  0.00    +0.000 A 
ATOM     14  C   UNL     1       0.872   9.420  21.790  0.00  0.00    +0.000 A 
ATOM     15  C   UNL     1       0.847   9.055  20.453  0.00  0.00    +0.000 A 
ATOM     16  C   UNL     1      -0.015   9.781  19.598  0.00  0.00    +0.000 A 
BRANCH  11  17
ATOM     17  C   UNL     1      -1.676  11.657  18.853  0.00  0.00    +0.000 C 
ATOM     18  C   UNL     1      -3.010  12.247  19.397  0.00  0.00    +0.000 C 
ATOM     19  O   UNL     1      -3.814  11.417  18.541  0.00  0.00    +0.000 OA
ATOM     20  C   UNL     1      -2.643  10.792  17.977  0.00  0.00    +0.000 C 
BRANCH  17  21
ATOM     21  C   UNL     1      -0.831  12.664  18.016  0.00  0.00    +0.000 C 
BRANCH  21  27
ATOM     22  C   UNL     1       2.376  12.466  18.322  0.00  0.00    +0.000 C 
ATOM     23  N   UNL     1       1.479  13.428  18.904  0.00  0.00    +0.000 N 
ATOM     24  C   UNL     1       1.883  14.430  19.738  0.00  0.00    +0.000 A 
ATOM     25  N   UNL     1       0.842  15.102  20.159  0.00  0.00    +0.000 NA
ATOM     26  N   UNL     1      -0.270  14.536  19.590  0.00  0.00    +0.000 NA
ATOM     27  C   UNL     1       0.100  13.542  18.802  0.00  0.00    +0.000 A 
ENDBRANCH  21  27
ENDBRANCH  17  21
ENDBRANCH  11  17
ENDBRANCH   1  15
BRANCH   8  28
ATOM     28  C   UNL     1       1.923   3.696  20.754  0.00  0.00    +0.000 C 
ATOM     29  F   UNL     1       2.365   4.055  21.991  0.00  0.00    +0.000 F 
ATOM     30  F   UNL     1       0.566   3.793  20.796  0.00  0.00    +0.000 F 
ATOM     31  F   UNL     1       2.208   2.371  20.642  0.00  0.00    +0.000 F 
ENDBRANCH   8  28
BRANCH   6  32
ATOM     32  C   UNL     1       4.849   3.963  16.636  0.00  0.00    +0.000 C 
BRANCH  32  33
ATOM     33  N   UNL     1       5.552   4.861  15.701  0.00  0.00    +0.000 NA
ATOM     34  C   UNL     1       7.018   4.707  15.753  0.00  0.00    +0.000 C 
ATOM     35  C   UNL     1       7.048   4.459  14.234  0.00  0.00    +0.000 C 
ATOM     36  F   UNL     1       7.480   5.483  13.459  0.00  0.00    +0.000 F 
ATOM     37  C   UNL     1       5.524   4.285  14.340  0.00  0.00    +0.000 C 
ENDBRANCH  32  33
ENDBRANCH   6  32
TORSDOF 7
ENDMDL
MODEL 3
REMARK VINA RESULT:      -9.5      2.082      2.974
REMARK  Name = 
REMARK  8 active torsions:
REMARK  status: ('A' for Active; 'I' for Inactive)
REMARK    1  A    between atoms: C_1  and  N_2
REMARK    2  A    between atoms: C_6  and  C_7
REMARK    3  A    between atoms: C_7  and  C_8
REMARK    4  A    between atoms: C_8  and  C_9
REMARK    5  A    between atoms: C_13  and  N_14
REMARK    6  A    between atoms: C_19  and  C_20
REMARK    7  A    between atoms: C_20  and  N_21
REMARK    8  A    between atoms: C_27  and  C_28
REMARK                            x       y       z     vdW  Elec       q    Type
REMARK                         _______ _______ _______ _____ _____    ______ ____
ROOT
ATOM      1  N   UNL     1       1.904   7.638  19.969  0.00  0.00    +0.000 N 
ATOM      2  C   UNL     1       1.891   6.288  20.487  0.00  0.00    +0.000 C 
ATOM      3  C   UNL     1       2.521   5.479  19.429  0.00  0.00    +0.000 A 
ATOM      4  C   UNL     1       3.054   6.312  18.448  0.00  0.00    +0.000 A 
ATOM      5  C   UNL     1       3.795   5.779  17.410  0.00  0.00    +0.000 A 
ATOM      6  C   UNL     1       3.962   4.370  17.355  0.00  0.00    +0.000 A 
ATOM      7  C   UNL     1       3.333   3.550  18.323  0.00  0.00    +0.000 A 
ATOM      8  C   UNL     1       2.612   4.097  19.387  0.00  0.00    +0.000 A 
ATOM      9  C   UNL     1       2.622   7.719  18.763  0.00  0.00    +0.000 C 
ATOM     10  O   UNL     1       2.863   8.669  18.055  0.00  0.00    +0.000 OA
ENDROOT
BRANCH   1  15
ATOM     11  C   UNL     1      -0.572  10.429  20.348  0.00  0.00    +0.000 A 
ATOM     12  C   UNL     1      -0.399  10.726  21.705  0.00  0.00    +0.000 A 
ATOM     13  C   UNL     1       0.486   9.988  22.513  0.00  0.00    +0.000 A 
ATOM     14  C   UNL     1       1.254   8.939  21.985  0.00  0.00    +0.000 A 
ATOM     15  C   UNL     1       1.121   8.608  20.646  0.00  0.00    +0.000 A 
ATOM     16  C   UNL     1       0.181   9.342  19.886  0.00  0.00    +0.000 A 
BRANCH  11  17
ATOM     17  C   UNL     1      -1.564  11.210  19.333  0.00  0.00    +0.000 C 
ATOM     18  C   UNL     1      -0.838  12.158  18.335  0.00  0.00    +0.000 C 
ATOM     19  O   UNL     1      -1.490  13.329  18.855  0.00  0.00    +0.000 OA
ATOM     20  C   UNL     1      -2.206  12.547  19.834  0.00  0.00    +0.000 C 
BRANCH  17  21
ATOM     21  C   UNL     1      -2.594  10.251  18.664  0.00  0.00    +0.000 C 
BRANCH  21  27
ATOM     22  C   UNL     1      -4.911  11.918  17.157  0.00  0.00    +0.000 C 
ATOM     23  N   UNL     1      -3.817  11.184  16.581  0.00  0.00    +0.000 N 
ATOM     24  C   UNL     1      -3.614  11.061  15.236  0.00  0.00    +0.000 A 
ATOM     25  N   UNL     1      -2.584  10.286  15.013  0.00  0.00    +0.000 NA
ATOM     26  N   UNL     1      -2.094   9.892  16.232  0.00  0.00    +0.000 NA
ATOM     27  C   UNL     1      -2.808  10.452  17.192  0.00  0.00    +0.000 A 
ENDBRANCH  21  27
ENDBRANCH  17  21
ENDBRANCH  11  17
ENDBRANCH   1  15
BRANCH   8  28
ATOM     28  C   UNL     1       1.978   3.206  20.427  0.00  0.00    +0.000 C 
ATOM     29  F   UNL     1       2.504   3.349  21.674  0.00  0.00    +0.000 F 
ATOM     30  F   UNL     1       0.641   3.431  20.554  0.00  0.00    +0.000 F 
ATOM     31  F   UNL     1       2.116   1.886  20.129  0.00  0.00    +0.000 F 
ENDBRANCH   8  28
BRANCH   6  32
ATOM     32  C   UNL     1       4.930   3.750  16.355  0.00  0.00    +0.000 C 
BRANCH  32  33
ATOM     33  N   UNL     1       5.556   4.691  15.408  0.00  0.00    +0.000 NA
ATOM     34  C   UNL     1       7.026   4.721  15.519  0.00  0.00    +0.000 C 
ATOM     35  C   UNL     1       7.149   4.419  14.015  0.00  0.00    +0.000 C 
ATOM     36  F   UNL     1       7.484   5.458  13.211  0.00  0.00    +0.000 F 
ATOM     37  C   UNL     1       5.654   4.063  14.073  0.00  0.00    +0.000 C 
ENDBRANCH  32  33
ENDBRANCH   6  32
TORSDOF 7
ENDMDL
MODEL 4
REMARK VINA RESULT:      -9.4      2.130      3.206
REMARK  Name = 
REMARK  8 active torsions:
REMARK  status: ('A' for Active; 'I' for Inactive)
REMARK    1  A    between atoms: C_1  and  N_2
REMARK    2  A    between atoms: C_6  and  C_7
REMARK    3  A    between atoms: C_7  and  C_8
REMARK    4  A    between atoms: C_8  and  C_9
REMARK    5  A    between atoms: C_13  and  N_14
REMARK    6  A    between atoms: C_19  and  C_20
REMARK    7  A    between atoms: C_20  and  N_21
REMARK    8  A    between atoms: C_27  and  C_28
REMARK                            x       y       z     vdW  Elec       q    Type
REMARK                         _______ _______ _______ _____ _____    ______ ____
ROOT
ATOM      1  N   UNL     1       1.463   8.164  20.168  0.00  0.00    +0.000 N 
ATOM      2  C   UNL     1       1.579   6.822  20.692  0.00  0.00    +0.000 C 
ATOM      3  C   UNL     1       2.207   6.052  19.603  0.00  0.00    +0.000 A 
ATOM      4  C   UNL     1       2.620   6.913  18.590  0.00  0.00    +0.000 A 
ATOM      5  C   UNL     1       3.339   6.428  17.514  0.00  0.00    +0.000 A 
ATOM      6  C   UNL     1       3.607   5.034  17.456  0.00  0.00    +0.000 A 
ATOM      7  C   UNL     1       3.096   4.179  18.462  0.00  0.00    +0.000 A 
ATOM      8  C   UNL     1       2.398   4.681  19.564  0.00  0.00    +0.000 A 
ATOM      9  C   UNL     1       2.103   8.287  18.923  0.00  0.00    +0.000 C 
ATOM     10  O   UNL     1       2.233   9.246  18.197  0.00  0.00    +0.000 OA
ENDROOT
BRANCH   1  15
ATOM     11  C   UNL     1      -0.784  11.122  20.679  0.00  0.00    +0.000 A 
ATOM     12  C   UNL     1      -0.860  11.134  22.077  0.00  0.00    +0.000 A 
ATOM     13  C   UNL     1      -0.221  10.150  22.856  0.00  0.00    +0.000 A 
ATOM     14  C   UNL     1       0.541   9.132  22.264  0.00  0.00    +0.000 A 
ATOM     15  C   UNL     1       0.648   9.080  20.883  0.00  0.00    +0.000 A 
ATOM     16  C   UNL     1      -0.054  10.057  20.140  0.00  0.00    +0.000 A 
BRANCH  11  17
ATOM     17  C   UNL     1      -1.482  12.200  19.692  0.00  0.00    +0.000 C 
ATOM     18  C   UNL     1      -0.558  12.712  18.550  0.00  0.00    +0.000 C 
ATOM     19  O   UNL     1      -0.602  14.071  19.018  0.00  0.00    +0.000 OA
ATOM     20  C   UNL     1      -1.453  13.704  20.125  0.00  0.00    +0.000 C 
BRANCH  17  21
ATOM     21  C   UNL     1      -2.888  11.731  19.209  0.00  0.00    +0.000 C 
BRANCH  21  27
ATOM     22  C   UNL     1      -5.246  12.126  17.041  0.00  0.00    +0.000 C 
ATOM     23  N   UNL     1      -3.991  11.439  16.885  0.00  0.00    +0.000 N 
ATOM     24  C   UNL     1      -3.618  10.799  15.739  0.00  0.00    +0.000 A 
ATOM     25  N   UNL     1      -2.460  10.214  15.916  0.00  0.00    +0.000 NA
ATOM     26  N   UNL     1      -2.060  10.476  17.201  0.00  0.00    +0.000 NA
ATOM     27  C   UNL     1      -2.959  11.243  17.791  0.00  0.00    +0.000 A 
ENDBRANCH  21  27
ENDBRANCH  17  21
ENDBRANCH  11  17
ENDBRANCH   1  15
BRANCH   8  28
ATOM     28  C   UNL     1       1.891   3.754  20.642  0.00  0.00    +0.000 C 
ATOM     29  F   UNL     1       2.229   2.449  20.453  0.00  0.00    +0.000 F 
ATOM     30  F   UNL     1       2.362   4.091  21.874  0.00  0.00    +0.000 F 
ATOM     31  F   UNL     1       0.535   3.764  20.735  0.00  0.00    +0.000 F 
ENDBRANCH   8  28
BRANCH   6  32
ATOM     32  C   UNL     1       4.560   4.479  16.406  0.00  0.00    +0.000 C 
BRANCH  32  33
ATOM     33  N   UNL     1       5.825   3.925  16.923  0.00  0.00    +0.000 NA
ATOM     34  C   UNL     1       7.011   4.464  16.232  0.00  0.00    +0.000 C 
ATOM     35  C   UNL     1       7.608   4.893  17.585  0.00  0.00    +0.000 C 
ATOM     36  F   UNL     1       8.611   4.126  18.078  0.00  0.00    +0.000 F 
ATOM     37  C   UNL     1       6.208   4.631  18.165  0.00  0.00    +0.000 C 
ENDBRANCH  32  33
ENDBRANCH   6  32
TORSDOF 7
ENDMDL
MODEL 5
REMARK VINA RESULT:      -9.4      1.984      3.109
REMARK  Name = 
REMARK  8 active torsions:
REMARK  status: ('A' for Active; 'I' for Inactive)
REMARK    1  A    between atoms: C_1  and  N_2
REMARK    2  A    between atoms: C_6  and  C_7
REMARK    3  A    between atoms: C_7  and  C_8
REMARK    4  A    between atoms: C_8  and  C_9
REMARK    5  A    between atoms: C_13  and  N_14
REMARK    6  A    between atoms: C_19  and  C_20
REMARK    7  A    between atoms: C_20  and  N_21
REMARK    8  A    between atoms: C_27  and  C_28
REMARK                            x       y       z     vdW  Elec       q    Type
REMARK                         _______ _______ _______ _____ _____    ______ ____
ROOT
ATOM      1  N   UNL     1       1.728   7.895  19.958  0.00  0.00    +0.000 N 
ATOM      2  C   UNL     1       1.744   6.578  20.553  0.00  0.00    +0.000 C 
ATOM      3  C   UNL     1       2.383   5.721  19.539  0.00  0.00    +0.000 A 
ATOM      4  C   UNL     1       2.894   6.506  18.508  0.00  0.00    +0.000 A 
ATOM      5  C   UNL     1       3.640   5.929  17.498  0.00  0.00    +0.000 A 
ATOM      6  C   UNL     1       3.834   4.522  17.523  0.00  0.00    +0.000 A 
ATOM      7  C   UNL     1       3.226   3.748  18.540  0.00  0.00    +0.000 A 
ATOM      8  C   UNL     1       2.500   4.342  19.577  0.00  0.00    +0.000 A 
ATOM      9  C   UNL     1       2.438   7.921  18.745  0.00  0.00    +0.000 C 
ATOM     10  O   UNL     1       2.657   8.833  17.982  0.00  0.00    +0.000 OA
ENDROOT
BRANCH   1  15
ATOM     11  C   UNL     1      -0.213  11.091  20.250  0.00  0.00    +0.000 A 
ATOM     12  C   UNL     1      -0.488  11.085  21.623  0.00  0.00    +0.000 A 
ATOM     13  C   UNL     1      -0.087  10.019  22.449  0.00  0.00    +0.000 A 
ATOM     14  C   UNL     1       0.631   8.928  21.936  0.00  0.00    +0.000 A 
ATOM     15  C   UNL     1       0.930   8.889  20.583  0.00  0.00    +0.000 A 
ATOM     16  C   UNL     1       0.460   9.956  19.783  0.00  0.00    +0.000 A 
BRANCH  11  17
ATOM     17  C   UNL     1      -0.632  12.262  19.212  0.00  0.00    +0.000 C 
ATOM     18  C   UNL     1       0.495  13.296  18.928  0.00  0.00    +0.000 C 
ATOM     19  O   UNL     1      -0.265  14.389  19.473  0.00  0.00    +0.000 OA
ATOM     20  C   UNL     1      -1.368  13.515  19.793  0.00  0.00    +0.000 C 
BRANCH  17  21
ATOM     21  C   UNL     1      -1.311  11.695  17.929  0.00  0.00    +0.000 C 
BRANCH  21  27
ATOM     22  C   UNL     1      -3.378  10.964  15.560  0.00  0.00    +0.000 C 
ATOM     23  N   UNL     1      -3.664  11.255  16.939  0.00  0.00    +0.000 N 
ATOM     24  C   UNL     1      -4.926  11.293  17.458  0.00  0.00    +0.000 A 
ATOM     25  N   UNL     1      -4.876  11.646  18.717  0.00  0.00    +0.000 NA
ATOM     26  N   UNL     1      -3.557  11.842  19.037  0.00  0.00    +0.000 NA
ATOM     27  C   UNL     1      -2.807  11.579  17.982  0.00  0.00    +0.000 A 
ENDBRANCH  21  27
ENDBRANCH  17  21
ENDBRANCH  11  17
ENDBRANCH   1  15
BRANCH   8  28
ATOM     28  C   UNL     1       1.889   3.500  20.670  0.00  0.00    +0.000 C 
ATOM     29  F   UNL     1       0.543   3.658  20.803  0.00  0.00    +0.000 F 
ATOM     30  F   UNL     1       2.095   2.169  20.472  0.00  0.00    +0.000 F 
ATOM     31  F   UNL     1       2.406   3.789  21.894  0.00  0.00    +0.000 F 
ENDBRANCH   8  28
BRANCH   6  32
ATOM     32  C   UNL     1       4.808   3.864  16.554  0.00  0.00    +0.000 C 
BRANCH  32  33
ATOM     33  N   UNL     1       5.484   4.776  15.613  0.00  0.00    +0.000 NA
ATOM     34  C   UNL     1       6.953   4.732  15.730  0.00  0.00    +0.000 C 
ATOM     35  C   UNL     1       7.066   4.430  14.225  0.00  0.00    +0.000 C 
ATOM     36  F   UNL     1       7.457   5.454  13.426  0.00  0.00    +0.000 F 
ATOM     37  C   UNL     1       5.555   4.149  14.276  0.00  0.00    +0.000 C 
ENDBRANCH  32  33
ENDBRANCH   6  32
TORSDOF 7
ENDMDL
MODEL 6
REMARK VINA RESULT:      -9.3      1.643      2.667
REMARK  Name = 
REMARK  8 active torsions:
REMARK  status: ('A' for Active; 'I' for Inactive)
REMARK    1  A    between atoms: C_1  and  N_2
REMARK    2  A    between atoms: C_6  and  C_7
REMARK    3  A    between atoms: C_7  and  C_8
REMARK    4  A    between atoms: C_8  and  C_9
REMARK    5  A    between atoms: C_13  and  N_14
REMARK    6  A    between atoms: C_19  and  C_20
REMARK    7  A    between atoms: C_20  and  N_21
REMARK    8  A    between atoms: C_27  and  C_28
REMARK                            x       y       z     vdW  Elec       q    Type
REMARK                         _______ _______ _______ _____ _____    ______ ____
ROOT
ATOM      1  N   UNL     1       1.694   7.865  20.111  0.00  0.00    +0.000 N 
ATOM      2  C   UNL     1       1.737   6.546  20.701  0.00  0.00    +0.000 C 
ATOM      3  C   UNL     1       2.337   5.694  19.659  0.00  0.00    +0.000 A 
ATOM      4  C   UNL     1       2.802   6.483  18.610  0.00  0.00    +0.000 A 
ATOM      5  C   UNL     1       3.507   5.910  17.568  0.00  0.00    +0.000 A 
ATOM      6  C   UNL     1       3.705   4.504  17.581  0.00  0.00    +0.000 A 
ATOM      7  C   UNL     1       3.141   3.725  18.620  0.00  0.00    +0.000 A 
ATOM      8  C   UNL     1       2.458   4.314  19.687  0.00  0.00    +0.000 A 
ATOM      9  C   UNL     1       2.352   7.896  18.870  0.00  0.00    +0.000 C 
ATOM     10  O   UNL     1       2.538   8.811  18.101  0.00  0.00    +0.000 OA
ENDROOT
BRANCH   1  15
ATOM     11  C   UNL     1       0.442  11.308  20.914  0.00  0.00    +0.000 A 
ATOM     12  C   UNL     1      -0.345  11.026  22.038  0.00  0.00    +0.000 A 
ATOM     13  C   UNL     1      -0.511   9.710  22.508  0.00  0.00    +0.000 A 
ATOM     14  C   UNL     1       0.129   8.626  21.886  0.00  0.00    +0.000 A 
ATOM     15  C   UNL     1       0.920   8.855  20.772  0.00  0.00    +0.000 A 
ATOM     16  C   UNL     1       1.014  10.186  20.303  0.00  0.00    +0.000 A 
BRANCH  11  17
ATOM     17  C   UNL     1       0.694  12.780  20.289  0.00  0.00    +0.000 C 
ATOM     18  C   UNL     1       1.761  12.819  19.157  0.00  0.00    +0.000 C 
ATOM     19  O   UNL     1       2.632  13.687  19.903  0.00  0.00    +0.000 OA
ATOM     20  C   UNL     1       1.719  13.711  21.020  0.00  0.00    +0.000 C 
BRANCH  17  21
ATOM     21  C   UNL     1      -0.639  13.503  19.930  0.00  0.00    +0.000 C 
BRANCH  21  27
ATOM     22  C   UNL     1      -3.651  12.638  20.706  0.00  0.00    +0.000 C 
ATOM     23  N   UNL     1      -2.917  12.348  19.503  0.00  0.00    +0.000 N 
ATOM     24  C   UNL     1      -3.414  11.597  18.477  0.00  0.00    +0.000 A 
ATOM     25  N   UNL     1      -2.500  11.451  17.553  0.00  0.00    +0.000 NA
ATOM     26  N   UNL     1      -1.379  12.119  17.974  0.00  0.00    +0.000 NA
ATOM     27  C   UNL     1      -1.624  12.695  19.137  0.00  0.00    +0.000 A 
ENDBRANCH  21  27
ENDBRANCH  17  21
ENDBRANCH  11  17
ENDBRANCH   1  15
BRANCH   8  28
ATOM     28  C   UNL     1       1.894   3.468  20.802  0.00  0.00    +0.000 C 
ATOM     29  F   UNL     1       2.138   2.136  20.663  0.00  0.00    +0.000 F 
ATOM     30  F   UNL     1       2.395   3.818  22.019  0.00  0.00    +0.000 F 
ATOM     31  F   UNL     1       0.542   3.577  20.900  0.00  0.00    +0.000 F 
ENDBRANCH   8  28
BRANCH   6  32
ATOM     32  C   UNL     1       4.639   3.851  16.570  0.00  0.00    +0.000 C 
BRANCH  32  33
ATOM     33  N   UNL     1       5.414   4.780  15.727  0.00  0.00    +0.000 NA
ATOM     34  C   UNL     1       6.871   4.602  15.869  0.00  0.00    +0.000 C 
ATOM     35  C   UNL     1       7.000   4.422  14.346  0.00  0.00    +0.000 C 
ATOM     36  F   UNL     1       7.496   5.473  13.649  0.00  0.00    +0.000 F 
ATOM     37  C   UNL     1       5.470   4.266  14.341  0.00  0.00    +0.000 C 
ENDBRANCH  32  33
ENDBRANCH   6  32
TORSDOF 7
ENDMDL
MODEL 7
REMARK VINA RESULT:      -9.3      0.989      1.246
REMARK  Name = 
REMARK  8 active torsions:
REMARK  status: ('A' for Active; 'I' for Inactive)
REMARK    1  A    between atoms: C_1  and  N_2
REMARK    2  A    between atoms: C_6  and  C_7
REMARK    3  A    between atoms: C_7  and  C_8
REMARK    4  A    between atoms: C_8  and  C_9
REMARK    5  A    between atoms: C_13  and  N_14
REMARK    6  A    between atoms: C_19  and  C_20
REMARK    7  A    between atoms: C_20  and  N_21
REMARK    8  A    between atoms: C_27  and  C_28
REMARK                            x       y       z     vdW  Elec       q    Type
REMARK                         _______ _______ _______ _____ _____    ______ ____
ROOT
ATOM      1  N   UNL     1       1.740   7.694  20.175  0.00  0.00    +0.000 N 
ATOM      2  C   UNL     1       1.778   6.358  20.725  0.00  0.00    +0.000 C 
ATOM      3  C   UNL     1       2.391   5.538  19.664  0.00  0.00    +0.000 A 
ATOM      4  C   UNL     1       2.868   6.360  18.646  0.00  0.00    +0.000 A 
ATOM      5  C   UNL     1       3.586   5.820  17.595  0.00  0.00    +0.000 A 
ATOM      6  C   UNL     1       3.786   4.414  17.568  0.00  0.00    +0.000 A 
ATOM      7  C   UNL     1       3.211   3.603  18.576  0.00  0.00    +0.000 A 
ATOM      8  C   UNL     1       2.514   4.159  19.652  0.00  0.00    +0.000 A 
ATOM      9  C   UNL     1       2.413   7.763  18.943  0.00  0.00    +0.000 C 
ATOM     10  O   UNL     1       2.607   8.701  18.205  0.00  0.00    +0.000 OA
ENDROOT
BRANCH   1  15
ATOM     11  C   UNL     1      -0.249  10.843  20.616  0.00  0.00    +0.000 A 
ATOM     12  C   UNL     1      -0.448  10.815  22.001  0.00  0.00    +0.000 A 
ATOM     13  C   UNL     1       0.020   9.747  22.790  0.00  0.00    +0.000 A 
ATOM     14  C   UNL     1       0.732   8.678  22.223  0.00  0.00    +0.000 A 
ATOM     15  C   UNL     1       0.957   8.662  20.856  0.00  0.00    +0.000 A 
ATOM     16  C   UNL     1       0.421   9.729  20.097  0.00  0.00    +0.000 A 
BRANCH  11  17
ATOM     17  C   UNL     1      -0.748  12.017  19.618  0.00  0.00    +0.000 C 
ATOM     18  C   UNL     1      -2.046  12.740  20.082  0.00  0.00    +0.000 C 
ATOM     19  O   UNL     1      -2.785  12.320  18.922  0.00  0.00    +0.000 OA
ATOM     20  C   UNL     1      -1.645  11.604  18.404  0.00  0.00    +0.000 C 
BRANCH  17  21
ATOM     21  C   UNL     1       0.409  12.983  19.222  0.00  0.00    +0.000 C 
BRANCH  21  27
ATOM     22  C   UNL     1      -0.115  16.153  19.528  0.00  0.00    +0.000 C 
ATOM     23  N   UNL     1       0.621  15.279  20.401  0.00  0.00    +0.000 N 
ATOM     24  C   UNL     1       1.262  15.702  21.529  0.00  0.00    +0.000 A 
ATOM     25  N   UNL     1       1.897  14.700  22.080  0.00  0.00    +0.000 NA
ATOM     26  N   UNL     1       1.670  13.593  21.303  0.00  0.00    +0.000 NA
ATOM     27  C   UNL     1       0.874  13.918  20.300  0.00  0.00    +0.000 A 
ENDBRANCH  21  27
ENDBRANCH  17  21
ENDBRANCH  11  17
ENDBRANCH   1  15
BRANCH   8  28
ATOM     28  C   UNL     1       1.938   3.278  20.734  0.00  0.00    +0.000 C 
ATOM     29  F   UNL     1       2.503   3.465  21.959  0.00  0.00    +0.000 F 
ATOM     30  F   UNL     1       0.601   3.473  20.901  0.00  0.00    +0.000 F 
ATOM     31  F   UNL     1       2.100   1.955  20.463  0.00  0.00    +0.000 F 
ENDBRANCH   8  28
BRANCH   6  32
ATOM     32  C   UNL     1       4.734   3.793  16.549  0.00  0.00    +0.000 C 
BRANCH  32  33
ATOM     33  N   UNL     1       5.432   4.745  15.666  0.00  0.00    +0.000 NA
ATOM     34  C   UNL     1       6.900   4.630  15.748  0.00  0.00    +0.000 C 
ATOM     35  C   UNL     1       6.973   4.441  14.222  0.00  0.00    +0.000 C 
ATOM     36  F   UNL     1       7.394   5.506  13.497  0.00  0.00    +0.000 F 
ATOM     37  C   UNL     1       5.452   4.221  14.284  0.00  0.00    +0.000 C 
ENDBRANCH  32  33
ENDBRANCH   6  32
TORSDOF 7
ENDMDL
MODEL 8
REMARK VINA RESULT:      -9.1      0.845      1.175
REMARK  Name = 
REMARK  8 active torsions:
REMARK  status: ('A' for Active; 'I' for Inactive)
REMARK    1  A    between atoms: C_1  and  N_2
REMARK    2  A    between atoms: C_6  and  C_7
REMARK    3  A    between atoms: C_7  and  C_8
REMARK    4  A    between atoms: C_8  and  C_9
REMARK    5  A    between atoms: C_13  and  N_14
REMARK    6  A    between atoms: C_19  and  C_20
REMARK    7  A    between atoms: C_20  and  N_21
REMARK    8  A    between atoms: C_27  and  C_28
REMARK                            x       y       z     vdW  Elec       q    Type
REMARK                         _______ _______ _______ _____ _____    ______ ____
ROOT
ATOM      1  N   UNL     1       1.591   7.852  20.254  0.00  0.00    +0.000 N 
ATOM      2  C   UNL     1       1.676   6.527  20.824  0.00  0.00    +0.000 C 
ATOM      3  C   UNL     1       2.263   5.700  19.754  0.00  0.00    +0.000 A 
ATOM      4  C   UNL     1       2.685   6.512  18.704  0.00  0.00    +0.000 A 
ATOM      5  C   UNL     1       3.371   5.968  17.636  0.00  0.00    +0.000 A 
ATOM      6  C   UNL     1       3.597   4.565  17.623  0.00  0.00    +0.000 A 
ATOM      7  C   UNL     1       3.077   3.762  18.667  0.00  0.00    +0.000 A 
ATOM      8  C   UNL     1       2.412   4.323  19.760  0.00  0.00    +0.000 A 
ATOM      9  C   UNL     1       2.215   7.912  18.996  0.00  0.00    +0.000 C 
ATOM     10  O   UNL     1       2.361   8.841  18.235  0.00  0.00    +0.000 OA
ENDROOT
BRANCH   1  15
ATOM     11  C   UNL     1      -0.438  10.972  20.720  0.00  0.00    +0.000 A 
ATOM     12  C   UNL     1      -0.584  10.963  22.112  0.00  0.00    +0.000 A 
ATOM     13  C   UNL     1      -0.066   9.917  22.900  0.00  0.00    +0.000 A 
ATOM     14  C   UNL     1       0.643   8.852  22.323  0.00  0.00    +0.000 A 
ATOM     15  C   UNL     1       0.816   8.817  20.949  0.00  0.00    +0.000 A 
ATOM     16  C   UNL     1       0.233   9.861  20.194  0.00  0.00    +0.000 A 
BRANCH  11  17
ATOM     17  C   UNL     1      -0.996  12.120  19.724  0.00  0.00    +0.000 C 
ATOM     18  C   UNL     1      -2.455  11.887  19.234  0.00  0.00    +0.000 C 
ATOM     19  O   UNL     1      -2.057  11.785  17.856  0.00  0.00    +0.000 OA
ATOM     20  C   UNL     1      -0.669  11.979  18.200  0.00  0.00    +0.000 C 
BRANCH  17  21
ATOM     21  C   UNL     1      -0.733  13.555  20.275  0.00  0.00    +0.000 C 
BRANCH  21  27
ATOM     22  C   UNL     1      -0.171  16.181  18.484  0.00  0.00    +0.000 C 
ATOM     23  N   UNL     1       0.781  15.308  19.117  0.00  0.00    +0.000 N 
ATOM     24  C   UNL     1       2.133  15.464  19.016  0.00  0.00    +0.000 A 
ATOM     25  N   UNL     1       2.739  14.486  19.640  0.00  0.00    +0.000 NA
ATOM     26  N   UNL     1       1.770  13.671  20.165  0.00  0.00    +0.000 NA
ATOM     27  C   UNL     1       0.580  14.170  19.886  0.00  0.00    +0.000 A 
ENDBRANCH  21  27
ENDBRANCH  17  21
ENDBRANCH  11  17
ENDBRANCH   1  15
BRANCH   8  28
ATOM     28  C   UNL     1       1.896   3.451  20.878  0.00  0.00    +0.000 C 
ATOM     29  F   UNL     1       2.229   2.137  20.754  0.00  0.00    +0.000 F 
ATOM     30  F   UNL     1       2.360   3.844  22.096  0.00  0.00    +0.000 F 
ATOM     31  F   UNL     1       0.539   3.470  20.963  0.00  0.00    +0.000 F 
ENDBRANCH   8  28
BRANCH   6  32
ATOM     32  C   UNL     1       4.516   3.945  16.579  0.00  0.00    +0.000 C 
BRANCH  32  33
ATOM     33  N   UNL     1       5.393   4.888  15.862  0.00  0.00    +0.000 NA
ATOM     34  C   UNL     1       6.826   4.643  16.114  0.00  0.00    +0.000 C 
ATOM     35  C   UNL     1       7.079   4.546  14.599  0.00  0.00    +0.000 C 
ATOM     36  F   UNL     1       7.670   5.615  14.011  0.00  0.00    +0.000 F 
ATOM     37  C   UNL     1       5.550   4.454  14.457  0.00  0.00    +0.000 C 
ENDBRANCH  32  33
ENDBRANCH   6  32
TORSDOF 7
ENDMDL
MODEL 9
REMARK VINA RESULT:      -9.1      2.513      3.559
REMARK  Name = 
REMARK  8 active torsions:
REMARK  status: ('A' for Active; 'I' for Inactive)
REMARK    1  A    between atoms: C_1  and  N_2
REMARK    2  A    between atoms: C_6  and  C_7
REMARK    3  A    between atoms: C_7  and  C_8
REMARK    4  A    between atoms: C_8  and  C_9
REMARK    5  A    between atoms: C_13  and  N_14
REMARK    6  A    between atoms: C_19  and  C_20
REMARK    7  A    between atoms: C_20  and  N_21
REMARK    8  A    between atoms: C_27  and  C_28
REMARK                            x       y       z     vdW  Elec       q    Type
REMARK                         _______ _______ _______ _____ _____    ______ ____
ROOT
ATOM      1  N   UNL     1       1.598   8.521  19.465  0.00  0.00    +0.000 N 
ATOM      2  C   UNL     1       1.638   7.283  20.211  0.00  0.00    +0.000 C 
ATOM      3  C   UNL     1       2.339   6.339  19.322  0.00  0.00    +0.000 A 
ATOM      4  C   UNL     1       2.857   7.017  18.222  0.00  0.00    +0.000 A 
ATOM      5  C   UNL     1       3.654   6.355  17.307  0.00  0.00    +0.000 A 
ATOM      6  C   UNL     1       3.894   4.968  17.502  0.00  0.00    +0.000 A 
ATOM      7  C   UNL     1       3.279   4.295  18.585  0.00  0.00    +0.000 A 
ATOM      8  C   UNL     1       2.501   4.978  19.524  0.00  0.00    +0.000 A 
ATOM      9  C   UNL     1       2.345   8.432  18.279  0.00  0.00    +0.000 C 
ATOM     10  O   UNL     1       2.559   9.257  17.420  0.00  0.00    +0.000 OA
ENDROOT
BRANCH   1  15
ATOM     11  C   UNL     1      -1.280  10.925  19.431  0.00  0.00    +0.000 A 
ATOM     12  C   UNL     1      -0.982  11.679  20.573  0.00  0.00    +0.000 A 
ATOM     13  C   UNL     1       0.127  11.378  21.385  0.00  0.00    +0.000 A 
ATOM     14  C   UNL     1       0.998  10.323  21.069  0.00  0.00    +0.000 A 
ATOM     15  C   UNL     1       0.747   9.549  19.947  0.00  0.00    +0.000 A 
ATOM     16  C   UNL     1      -0.408   9.856  19.191  0.00  0.00    +0.000 A 
BRANCH  11  17
ATOM     17  C   UNL     1      -2.529  11.184  18.434  0.00  0.00    +0.000 C 
ATOM     18  C   UNL     1      -3.362   9.910  18.110  0.00  0.00    +0.000 C 
ATOM     19  O   UNL     1      -3.055   9.973  16.707  0.00  0.00    +0.000 OA
ATOM     20  C   UNL     1      -2.246  11.153  16.895  0.00  0.00    +0.000 C 
BRANCH  17  21
ATOM     21  C   UNL     1      -3.387  12.409  18.872  0.00  0.00    +0.000 C 
BRANCH  21  27
ATOM     22  C   UNL     1      -6.224  12.239  17.340  0.00  0.00    +0.000 C 
ATOM     23  N   UNL     1      -5.943  12.017  18.733  0.00  0.00    +0.000 N 
ATOM     24  C   UNL     1      -6.901  11.715  19.658  0.00  0.00    +0.000 A 
ATOM     25  N   UNL     1      -6.359  11.635  20.846  0.00  0.00    +0.000 NA
ATOM     26  N   UNL     1      -5.019  11.886  20.704  0.00  0.00    +0.000 NA
ATOM     27  C   UNL     1      -4.744  12.087  19.428  0.00  0.00    +0.000 A 
ENDBRANCH  21  27
ENDBRANCH  17  21
ENDBRANCH  11  17
ENDBRANCH   1  15
BRANCH   8  28
ATOM     28  C   UNL     1       1.883   4.246  20.690  0.00  0.00    +0.000 C 
ATOM     29  F   UNL     1       2.074   2.899  20.662  0.00  0.00    +0.000 F 
ATOM     30  F   UNL     1       2.375   4.672  21.886  0.00  0.00    +0.000 F 
ATOM     31  F   UNL     1       0.535   4.416  20.750  0.00  0.00    +0.000 F 
ENDBRANCH   8  28
BRANCH   6  32
ATOM     32  C   UNL     1       4.920   4.239  16.645  0.00  0.00    +0.000 C 
BRANCH  32  33
ATOM     33  N   UNL     1       5.576   5.054  15.606  0.00  0.00    +0.000 NA
ATOM     34  C   UNL     1       7.048   4.977  15.662  0.00  0.00    +0.000 C 
ATOM     35  C   UNL     1       7.085   4.554  14.182  0.00  0.00    +0.000 C 
ATOM     36  F   UNL     1       7.464   5.500  13.288  0.00  0.00    +0.000 F 
ATOM     37  C   UNL     1       5.571   4.322  14.321  0.00  0.00    +0.000 C 
ENDBRANCH  32  33
ENDBRANCH   6  32
TORSDOF 7
ENDMDL
