MODEL 1
REMARK VINA RESULT:      -9.0      0.000      0.000
REMARK  Name = 
REMARK  9 active torsions:
REMARK  status: ('A' for Active; 'I' for Inactive)
REMARK    1  A    between atoms: C_1  and  N_2
REMARK    2  A    between atoms: C_6  and  C_7
REMARK    3  A    between atoms: C_7  and  C_8
REMARK    4  A    between atoms: C_8  and  C_9
REMARK    5  A    between atoms: C_13  and  N_14
REMARK    6  A    between atoms: C_15  and  C_17
REMARK    7  A    between atoms: C_19  and  C_20
REMARK    8  A    between atoms: C_20  and  N_21
REMARK    9  A    between atoms: C_28  and  C_29
REMARK                            x       y       z     vdW  Elec       q    Type
REMARK                         _______ _______ _______ _____ _____    ______ ____
ROOT
ATOM      1  N   UNL     1       1.308   9.059  19.536  0.00  0.00    +0.000 N 
ATOM      2  C   UNL     1       2.017   8.398  18.551  0.00  0.00    +0.000 C 
ATOM      3  O   UNL     1       2.212   8.832  17.398  0.00  0.00    +0.000 OA
ATOM      4  H   UNL     1       1.329   8.634  20.459  0.00  0.00    +0.000 HD
ENDROOT
BRANCH   1   9
ATOM      5  C   UNL     1      -1.410  11.246  18.343  0.00  0.00    +0.000 A 
ATOM      6  C   UNL     1      -0.887  12.517  18.661  0.00  0.00    +0.000 A 
ATOM      7  C   UNL     1       0.326  12.646  19.323  0.00  0.00    +0.000 A 
ATOM      8  C   UNL     1       1.064  11.518  19.635  0.00  0.00    +0.000 A 
ATOM      9  C   UNL     1       0.579  10.235  19.333  0.00  0.00    +0.000 A 
ATOM     10  C   UNL     1      -0.662  10.121  18.736  0.00  0.00    +0.000 A 
BRANCH   5  11
ATOM     11  C   UNL     1      -2.750  11.020  17.536  0.00  0.00    +0.000 C 
ATOM     12  C   UNL     1      -3.308   9.568  17.589  0.00  0.00    +0.000 C 
ATOM     13  O   UNL     1      -3.146   9.379  16.167  0.00  0.00    +0.000 OA
ATOM     14  C   UNL     1      -2.624  10.718  16.013  0.00  0.00    +0.000 C 
BRANCH  11  15
ATOM     15  C   UNL     1      -3.775  12.128  17.881  0.00  0.00    +0.000 C 
BRANCH  15  21
ATOM     16  C   UNL     1      -6.870  10.908  18.428  0.00  0.00    +0.000 C 
ATOM     17  N   UNL     1      -5.907  11.516  19.307  0.00  0.00    +0.000 N 
ATOM     18  C   UNL     1      -6.205  11.729  20.627  0.00  0.00    +0.000 A 
ATOM     19  N   UNL     1      -5.207  12.331  21.219  0.00  0.00    +0.000 NA
ATOM     20  N   UNL     1      -4.225  12.508  20.284  0.00  0.00    +0.000 NA
ATOM     21  C   UNL     1      -4.617  11.995  19.134  0.00  0.00    +0.000 A 
ENDBRANCH  15  21
ENDBRANCH  11  15
ENDBRANCH   5  11
ENDBRANCH   1   9
BRANCH   2  22
ATOM     22  C   UNL     1       2.611   7.093  18.898  0.00  0.00    +0.000 A 
ATOM     23  C   UNL     1       3.801   6.747  18.285  0.00  0.00    +0.000 A 
ATOM     24  C   UNL     1       4.270   5.489  18.523  0.00  0.00    +0.000 A 
ATOM     25  N   UNL     1       3.651   4.676  19.407  0.00  0.00    +0.000 NA
ATOM     26  C   UNL     1       2.542   5.132  20.050  0.00  0.00    +0.000 A 
ATOM     27  N   UNL     1       1.956   6.315  19.773  0.00  0.00    +0.000 NA
BRANCH  26  28
ATOM     28  C   UNL     1       1.994   4.335  21.198  0.00  0.00    +0.000 C 
ATOM     29  C   UNL     1       1.111   3.137  20.940  0.00  0.00    +0.000 C 
ATOM     30  C   UNL     1       2.495   2.945  21.488  0.00  0.00    +0.000 C 
ENDBRANCH  26  28
BRANCH  24  31
ATOM     31  C   UNL     1       5.468   4.945  17.739  0.00  0.00    +0.000 C 
BRANCH  31  32
ATOM     32  N   UNL     1       5.349   5.018  16.272  0.00  0.00    +0.000 NA
ATOM     33  C   UNL     1       6.379   5.816  15.605  0.00  0.00    +0.000 C 
ATOM     34  C   UNL     1       7.078   4.942  14.574  0.00  0.00    +0.000 C 
ATOM     35  C   UNL     1       6.168   3.754  14.376  0.00  0.00    +0.000 C 
ATOM     36  F   UNL     1       5.389   3.967  13.283  0.00  0.00    +0.000 F 
ATOM     37  C   UNL     1       5.296   3.694  15.624  0.00  0.00    +0.000 C 
ENDBRANCH  31  32
ENDBRANCH  24  31
ENDBRANCH   2  22
TORSDOF 8
ENDMDL
MODEL 2
REMARK VINA RESULT:      -8.8      1.579      2.110
REMARK  Name = 
REMARK  9 active torsions:
REMARK  status: ('A' for Active; 'I' for Inactive)
REMARK    1  A    between atoms: C_1  and  N_2
REMARK    2  A    between atoms: C_6  and  C_7
REMARK    3  A    between atoms: C_7  and  C_8
REMARK    4  A    between atoms: C_8  and  C_9
REMARK    5  A    between atoms: C_13  and  N_14
REMARK    6  A    between atoms: C_15  and  C_17
REMARK    7  A    between atoms: C_19  and  C_20
REMARK    8  A    between atoms: C_20  and  N_21
REMARK    9  A    between atoms: C_28  and  C_29
REMARK                            x       y       z     vdW  Elec       q    Type
REMARK                         _______ _______ _______ _____ _____    ______ ____
ROOT
ATOM      1  N   UNL     1       1.255   9.053  19.444  0.00  0.00    +0.000 N 
ATOM      2  C   UNL     1       1.969   8.482  18.408  0.00  0.00    +0.000 C 
ATOM      3  O   UNL     1       2.170   9.017  17.299  0.00  0.00    +0.000 OA
ATOM      4  H   UNL     1       1.270   8.548  20.325  0.00  0.00    +0.000 HD
ENDROOT
BRANCH   1   9
ATOM      5  C   UNL     1      -1.483  11.328  18.481  0.00  0.00    +0.000 A 
ATOM      6  C   UNL     1      -0.945  12.572  18.870  0.00  0.00    +0.000 A 
ATOM      7  C   UNL     1       0.288  12.650  19.504  0.00  0.00    +0.000 A 
ATOM      8  C   UNL     1       1.028  11.501  19.717  0.00  0.00    +0.000 A 
ATOM      9  C   UNL     1       0.527  10.243  19.342  0.00  0.00    +0.000 A 
ATOM     10  C   UNL     1      -0.731  10.176  18.775  0.00  0.00    +0.000 A 
BRANCH   5  11
ATOM     11  C   UNL     1      -2.846  11.162  17.699  0.00  0.00    +0.000 C 
ATOM     12  C   UNL     1      -3.368   9.699  17.595  0.00  0.00    +0.000 C 
ATOM     13  O   UNL     1      -3.255   9.687  16.156  0.00  0.00    +0.000 OA
ATOM     14  C   UNL     1      -2.771  11.049  16.147  0.00  0.00    +0.000 C 
BRANCH  11  15
ATOM     15  C   UNL     1      -3.884  12.192  18.210  0.00  0.00    +0.000 C 
BRANCH  15  21
ATOM     16  C   UNL     1      -5.367  12.557  21.216  0.00  0.00    +0.000 C 
ATOM     17  N   UNL     1      -5.761  11.845  20.029  0.00  0.00    +0.000 N 
ATOM     18  C   UNL     1      -6.916  11.108  20.009  0.00  0.00    +0.000 A 
ATOM     19  N   UNL     1      -7.048  10.515  18.852  0.00  0.00    +0.000 NA
ATOM     20  N   UNL     1      -5.974  10.874  18.085  0.00  0.00    +0.000 NA
ATOM     21  C   UNL     1      -5.205  11.700  18.768  0.00  0.00    +0.000 A 
ENDBRANCH  15  21
ENDBRANCH  11  15
ENDBRANCH   5  11
ENDBRANCH   1   9
BRANCH   2  22
ATOM     22  C   UNL     1       2.560   7.151  18.640  0.00  0.00    +0.000 A 
ATOM     23  C   UNL     1       3.606   6.763  17.824  0.00  0.00    +0.000 A 
ATOM     24  C   UNL     1       4.059   5.485  17.971  0.00  0.00    +0.000 A 
ATOM     25  N   UNL     1       3.574   4.689  18.950  0.00  0.00    +0.000 NA
ATOM     26  C   UNL     1       2.616   5.183  19.781  0.00  0.00    +0.000 A 
ATOM     27  N   UNL     1       2.040   6.391  19.616  0.00  0.00    +0.000 NA
BRANCH  26  28
ATOM     28  C   UNL     1       2.248   4.397  21.006  0.00  0.00    +0.000 C 
ATOM     29  C   UNL     1       1.185   3.328  20.934  0.00  0.00    +0.000 C 
ATOM     30  C   UNL     1       2.622   2.945  21.139  0.00  0.00    +0.000 C 
ENDBRANCH  26  28
BRANCH  24  31
ATOM     31  C   UNL     1       5.075   4.901  16.985  0.00  0.00    +0.000 C 
BRANCH  31  32
ATOM     32  N   UNL     1       6.483   4.971  17.414  0.00  0.00    +0.000 NA
ATOM     33  C   UNL     1       7.200   6.176  16.994  0.00  0.00    +0.000 C 
ATOM     34  C   UNL     1       7.759   6.865  18.230  0.00  0.00    +0.000 C 
ATOM     35  C   UNL     1       7.699   5.827  19.325  0.00  0.00    +0.000 C 
ATOM     36  F   UNL     1       8.912   5.224  19.433  0.00  0.00    +0.000 F 
ATOM     37  C   UNL     1       6.659   4.811  18.870  0.00  0.00    +0.000 C 
ENDBRANCH  31  32
ENDBRANCH  24  31
ENDBRANCH   2  22
TORSDOF 8
ENDMDL
MODEL 3
REMARK VINA RESULT:      -8.8      2.799      4.824
REMARK  Name = 
REMARK  9 active torsions:
REMARK  status: ('A' for Active; 'I' for Inactive)
REMARK    1  A    between atoms: C_1  and  N_2
REMARK    2  A    between atoms: C_6  and  C_7
REMARK    3  A    between atoms: C_7  and  C_8
REMARK    4  A    between atoms: C_8  and  C_9
REMARK    5  A    between atoms: C_13  and  N_14
REMARK    6  A    between atoms: C_15  and  C_17
REMARK    7  A    between atoms: C_19  and  C_20
REMARK    8  A    between atoms: C_20  and  N_21
REMARK    9  A    between atoms: C_28  and  C_29
REMARK                            x       y       z     vdW  Elec       q    Type
REMARK                         _______ _______ _______ _____ _____    ______ ____
ROOT
ATOM      1  N   UNL     1       1.816   7.431  19.811  0.00  0.00    +0.000 N 
ATOM      2  C   UNL     1       2.510   7.623  18.632  0.00  0.00    +0.000 C 
ATOM      3  O   UNL     1       2.742   8.733  18.113  0.00  0.00    +0.000 OA
ATOM      4  H   UNL     1       1.803   6.480  20.169  0.00  0.00    +0.000 HD
ENDROOT
BRANCH   1   9
ATOM      5  C   UNL     1      -0.371  10.349  20.358  0.00  0.00    +0.000 A 
ATOM      6  C   UNL     1      -0.102  10.632  21.713  0.00  0.00    +0.000 A 
ATOM      7  C   UNL     1       0.748   9.825  22.457  0.00  0.00    +0.000 A 
ATOM      8  C   UNL     1       1.383   8.754  21.855  0.00  0.00    +0.000 A 
ATOM      9  C   UNL     1       1.143   8.440  20.507  0.00  0.00    +0.000 A 
ATOM     10  C   UNL     1       0.242   9.212  19.800  0.00  0.00    +0.000 A 
BRANCH   5  11
ATOM     11  C   UNL     1      -1.273  11.255  19.429  0.00  0.00    +0.000 C 
ATOM     12  C   UNL     1      -0.490  12.122  18.401  0.00  0.00    +0.000 C 
ATOM     13  O   UNL     1      -0.940  13.358  18.994  0.00  0.00    +0.000 OA
ATOM     14  C   UNL     1      -1.708  12.643  19.988  0.00  0.00    +0.000 C 
BRANCH  11  15
ATOM     15  C   UNL     1      -2.433  10.419  18.832  0.00  0.00    +0.000 C 
BRANCH  15  21
ATOM     16  C   UNL     1      -5.009  11.831  17.177  0.00  0.00    +0.000 C 
ATOM     17  N   UNL     1      -3.852  11.109  16.720  0.00  0.00    +0.000 N 
ATOM     18  C   UNL     1      -3.675  10.849  15.386  0.00  0.00    +0.000 A 
ATOM     19  N   UNL     1      -2.588  10.145  15.208  0.00  0.00    +0.000 NA
ATOM     20  N   UNL     1      -2.024   9.947  16.439  0.00  0.00    +0.000 NA
ATOM     21  C   UNL     1      -2.756  10.547  17.357  0.00  0.00    +0.000 A 
ENDBRANCH  15  21
ENDBRANCH  11  15
ENDBRANCH   5  11
ENDBRANCH   1   9
BRANCH   2  22
ATOM     22  C   UNL     1       3.038   6.427  17.949  0.00  0.00    +0.000 A 
ATOM     23  C   UNL     1       2.314   5.255  18.057  0.00  0.00    +0.000 A 
ATOM     24  C   UNL     1       2.878   4.133  17.524  0.00  0.00    +0.000 A 
ATOM     25  N   UNL     1       4.034   4.206  16.828  0.00  0.00    +0.000 NA
ATOM     26  C   UNL     1       4.632   5.419  16.677  0.00  0.00    +0.000 A 
ATOM     27  N   UNL     1       4.194   6.544  17.278  0.00  0.00    +0.000 NA
BRANCH  26  28
ATOM     28  C   UNL     1       5.777   5.544  15.713  0.00  0.00    +0.000 C 
ATOM     29  C   UNL     1       7.121   4.942  16.045  0.00  0.00    +0.000 C 
ATOM     30  C   UNL     1       6.284   4.349  14.950  0.00  0.00    +0.000 C 
ENDBRANCH  26  28
BRANCH  24  31
ATOM     31  C   UNL     1       2.250   2.758  17.765  0.00  0.00    +0.000 C 
BRANCH  31  32
ATOM     32  N   UNL     1       2.129   2.358  19.178  0.00  0.00    +0.000 NA
ATOM     33  C   UNL     1       3.280   2.693  20.018  0.00  0.00    +0.000 C 
ATOM     34  C   UNL     1       2.799   3.544  21.184  0.00  0.00    +0.000 C 
ATOM     35  C   UNL     1       1.302   3.355  21.223  0.00  0.00    +0.000 C 
ATOM     36  F   UNL     1       0.997   2.396  22.138  0.00  0.00    +0.000 F 
ATOM     37  C   UNL     1       0.912   2.877  19.830  0.00  0.00    +0.000 C 
ENDBRANCH  31  32
ENDBRANCH  24  31
ENDBRANCH   2  22
TORSDOF 8
ENDMDL
MODEL 4
REMARK VINA RESULT:      -8.7      3.274      5.457
REMARK  Name = 
REMARK  9 active torsions:
REMARK  status: ('A' for Active; 'I' for Inactive)
REMARK    1  A    between atoms: C_1  and  N_2
REMARK    2  A    between atoms: C_6  and  C_7
REMARK    3  A    between atoms: C_7  and  C_8
REMARK    4  A    between atoms: C_8  and  C_9
REMARK    5  A    between atoms: C_13  and  N_14
REMARK    6  A    between atoms: C_15  and  C_17
REMARK    7  A    between atoms: C_19  and  C_20
REMARK    8  A    between atoms: C_20  and  N_21
REMARK    9  A    between atoms: C_28  and  C_29
REMARK                            x       y       z     vdW  Elec       q    Type
REMARK                         _______ _______ _______ _____ _____    ______ ____
ROOT
ATOM      1  N   UNL     1       1.924   7.413  19.872  0.00  0.00    +0.000 N 
ATOM      2  C   UNL     1       2.506   7.578  18.629  0.00  0.00    +0.000 C 
ATOM      3  O   UNL     1       2.621   8.667  18.033  0.00  0.00    +0.000 OA
ATOM      4  H   UNL     1       2.004   6.486  20.280  0.00  0.00    +0.000 HD
ENDROOT
BRANCH   1   9
ATOM      5  C   UNL     1       0.143  10.593  20.432  0.00  0.00    +0.000 A 
ATOM      6  C   UNL     1       0.059  10.606  21.839  0.00  0.00    +0.000 A 
ATOM      7  C   UNL     1       0.531   9.540  22.594  0.00  0.00    +0.000 A 
ATOM      8  C   UNL     1       1.139   8.468  21.966  0.00  0.00    +0.000 A 
ATOM      9  C   UNL     1       1.245   8.419  20.567  0.00  0.00    +0.000 A 
ATOM     10  C   UNL     1       0.708   9.455  19.827  0.00  0.00    +0.000 A 
BRANCH   5  11
ATOM     11  C   UNL     1      -0.311  11.793  19.509  0.00  0.00    +0.000 C 
ATOM     12  C   UNL     1      -1.629  12.494  19.949  0.00  0.00    +0.000 C 
ATOM     13  O   UNL     1      -2.318  12.115  18.738  0.00  0.00    +0.000 OA
ATOM     14  C   UNL     1      -1.140  11.443  18.237  0.00  0.00    +0.000 C 
BRANCH  11  15
ATOM     15  C   UNL     1       0.881  12.746  19.247  0.00  0.00    +0.000 C 
BRANCH  15  21
ATOM     16  C   UNL     1       0.110  15.952  19.953  0.00  0.00    +0.000 C 
ATOM     17  N   UNL     1       1.012  15.020  20.576  0.00  0.00    +0.000 N 
ATOM     18  C   UNL     1       1.786  15.404  21.639  0.00  0.00    +0.000 A 
ATOM     19  N   UNL     1       2.557  14.416  22.011  0.00  0.00    +0.000 NA
ATOM     20  N   UNL     1       2.281  13.354  21.194  0.00  0.00    +0.000 NA
ATOM     21  C   UNL     1       1.330  13.691  20.344  0.00  0.00    +0.000 A 
ENDBRANCH  15  21
ENDBRANCH  11  15
ENDBRANCH   5  11
ENDBRANCH   1   9
BRANCH   2  22
ATOM     22  C   UNL     1       3.056   6.379  17.970  0.00  0.00    +0.000 A 
ATOM     23  C   UNL     1       2.318   5.212  18.042  0.00  0.00    +0.000 A 
ATOM     24  C   UNL     1       2.897   4.087  17.535  0.00  0.00    +0.000 A 
ATOM     25  N   UNL     1       4.085   4.150  16.893  0.00  0.00    +0.000 NA
ATOM     26  C   UNL     1       4.699   5.359  16.772  0.00  0.00    +0.000 A 
ATOM     27  N   UNL     1       4.243   6.486  17.354  0.00  0.00    +0.000 NA
BRANCH  26  28
ATOM     28  C   UNL     1       5.888   5.475  15.862  0.00  0.00    +0.000 C 
ATOM     29  C   UNL     1       7.192   4.806  16.224  0.00  0.00    +0.000 C 
ATOM     30  C   UNL     1       6.380   4.293  15.071  0.00  0.00    +0.000 C 
ENDBRANCH  26  28
BRANCH  24  31
ATOM     31  C   UNL     1       2.248   2.716  17.744  0.00  0.00    +0.000 C 
BRANCH  31  32
ATOM     32  N   UNL     1       2.115   2.288  19.147  0.00  0.00    +0.000 NA
ATOM     33  C   UNL     1       3.279   2.562  19.992  0.00  0.00    +0.000 C 
ATOM     34  C   UNL     1       2.830   3.402  21.179  0.00  0.00    +0.000 C 
ATOM     35  C   UNL     1       1.327   3.267  21.218  0.00  0.00    +0.000 C 
ATOM     36  F   UNL     1       0.990   2.299  22.110  0.00  0.00    +0.000 F 
ATOM     37  C   UNL     1       0.919   2.835  19.815  0.00  0.00    +0.000 C 
ENDBRANCH  31  32
ENDBRANCH  24  31
ENDBRANCH   2  22
TORSDOF 8
ENDMDL
MODEL 5
REMARK VINA RESULT:      -8.6      0.994      1.124
REMARK  Name = 
REMARK  9 active torsions:
REMARK  status: ('A' for Active; 'I' for Inactive)
REMARK    1  A    between atoms: C_1  and  N_2
REMARK    2  A    between atoms: C_6  and  C_7
REMARK    3  A    between atoms: C_7  and  C_8
REMARK    4  A    between atoms: C_8  and  C_9
REMARK    5  A    between atoms: C_13  and  N_14
REMARK    6  A    between atoms: C_15  and  C_17
REMARK    7  A    between atoms: C_19  and  C_20
REMARK    8  A    between atoms: C_20  and  N_21
REMARK    9  A    between atoms: C_28  and  C_29
REMARK                            x       y       z     vdW  Elec       q    Type
REMARK                         _______ _______ _______ _____ _____    ______ ____
ROOT
ATOM      1  N   UNL     1       1.139   9.014  19.328  0.00  0.00    +0.000 N 
ATOM      2  C   UNL     1       2.011   8.361  18.478  0.00  0.00    +0.000 C 
ATOM      3  O   UNL     1       2.355   8.773  17.352  0.00  0.00    +0.000 OA
ATOM      4  H   UNL     1       1.041   8.615  20.257  0.00  0.00    +0.000 HD
ENDROOT
BRANCH   1   9
ATOM      5  C   UNL     1      -1.581  11.019  17.851  0.00  0.00    +0.000 A 
ATOM      6  C   UNL     1      -1.080  12.324  18.038  0.00  0.00    +0.000 A 
ATOM      7  C   UNL     1       0.118  12.542  18.705  0.00  0.00    +0.000 A 
ATOM      8  C   UNL     1       0.863  11.465  19.152  0.00  0.00    +0.000 A 
ATOM      9  C   UNL     1       0.400  10.150  18.983  0.00  0.00    +0.000 A 
ATOM     10  C   UNL     1      -0.827   9.955  18.379  0.00  0.00    +0.000 A 
BRANCH   5  11
ATOM     11  C   UNL     1      -2.901  10.687  17.048  0.00  0.00    +0.000 C 
ATOM     12  C   UNL     1      -2.743   9.590  15.955  0.00  0.00    +0.000 C 
ATOM     13  O   UNL     1      -3.064  10.508  14.888  0.00  0.00    +0.000 OA
ATOM     14  C   UNL     1      -3.242  11.592  15.827  0.00  0.00    +0.000 C 
BRANCH  11  15
ATOM     15  C   UNL     1      -4.081  10.469  18.027  0.00  0.00    +0.000 C 
BRANCH  15  21
ATOM     16  C   UNL     1      -6.734  12.393  17.234  0.00  0.00    +0.000 C 
ATOM     17  N   UNL     1      -5.791  12.456  18.319  0.00  0.00    +0.000 N 
ATOM     18  C   UNL     1      -5.857  13.465  19.244  0.00  0.00    +0.000 A 
ATOM     19  N   UNL     1      -4.881  13.348  20.104  0.00  0.00    +0.000 NA
ATOM     20  N   UNL     1      -4.162  12.236  19.757  0.00  0.00    +0.000 NA
ATOM     21  C   UNL     1      -4.715  11.670  18.702  0.00  0.00    +0.000 A 
ENDBRANCH  15  21
ENDBRANCH  11  15
ENDBRANCH   5  11
ENDBRANCH   1   9
BRANCH   2  22
ATOM     22  C   UNL     1       2.600   7.093  18.948  0.00  0.00    +0.000 A 
ATOM     23  C   UNL     1       3.919   6.839  18.623  0.00  0.00    +0.000 A 
ATOM     24  C   UNL     1       4.410   5.613  18.959  0.00  0.00    +0.000 A 
ATOM     25  N   UNL     1       3.664   4.744  19.678  0.00  0.00    +0.000 NA
ATOM     26  C   UNL     1       2.408   5.112  20.051  0.00  0.00    +0.000 A 
ATOM     27  N   UNL     1       1.819   6.257  19.650  0.00  0.00    +0.000 NA
BRANCH  26  28
ATOM     28  C   UNL     1       1.671   4.259  21.042  0.00  0.00    +0.000 C 
ATOM     29  C   UNL     1       1.103   2.925  20.624  0.00  0.00    +0.000 C 
ATOM     30  C   UNL     1       2.270   2.981  21.565  0.00  0.00    +0.000 C 
ENDBRANCH  26  28
BRANCH  24  31
ATOM     31  C   UNL     1       5.790   5.166  18.469  0.00  0.00    +0.000 C 
BRANCH  31  32
ATOM     32  N   UNL     1       5.805   4.480  17.165  0.00  0.00    +0.000 NA
ATOM     33  C   UNL     1       4.793   4.939  16.211  0.00  0.00    +0.000 C 
ATOM     34  C   UNL     1       5.495   5.387  14.937  0.00  0.00    +0.000 C 
ATOM     35  C   UNL     1       6.884   4.801  15.021  0.00  0.00    +0.000 C 
ATOM     36  F   UNL     1       6.919   3.637  14.321  0.00  0.00    +0.000 F 
ATOM     37  C   UNL     1       7.120   4.518  16.499  0.00  0.00    +0.000 C 
ENDBRANCH  31  32
ENDBRANCH  24  31
ENDBRANCH   2  22
TORSDOF 8
ENDMDL
MODEL 6
REMARK VINA RESULT:      -8.6      2.076      3.827
REMARK  Name = 
REMARK  9 active torsions:
REMARK  status: ('A' for Active; 'I' for Inactive)
REMARK    1  A    between atoms: C_1  and  N_2
REMARK    2  A    between atoms: C_6  and  C_7
REMARK    3  A    between atoms: C_7  and  C_8
REMARK    4  A    between atoms: C_8  and  C_9
REMARK    5  A    between atoms: C_13  and  N_14
REMARK    6  A    between atoms: C_15  and  C_17
REMARK    7  A    between atoms: C_19  and  C_20
REMARK    8  A    between atoms: C_20  and  N_21
REMARK    9  A    between atoms: C_28  and  C_29
REMARK                            x       y       z     vdW  Elec       q    Type
REMARK                         _______ _______ _______ _____ _____    ______ ____
ROOT
ATOM      1  N   UNL     1       1.409   8.704  19.392  0.00  0.00    +0.000 N 
ATOM      2  C   UNL     1       2.111   8.479  18.224  0.00  0.00    +0.000 C 
ATOM      3  O   UNL     1       2.220   9.296  17.288  0.00  0.00    +0.000 OA
ATOM      4  H   UNL     1       1.502   7.992  20.111  0.00  0.00    +0.000 HD
ENDROOT
BRANCH   1   9
ATOM      5  C   UNL     1      -1.417  11.035  18.971  0.00  0.00    +0.000 A 
ATOM      6  C   UNL     1      -1.021  12.089  19.820  0.00  0.00    +0.000 A 
ATOM      7  C   UNL     1       0.140  12.000  20.576  0.00  0.00    +0.000 A 
ATOM      8  C   UNL     1       0.953  10.887  20.462  0.00  0.00    +0.000 A 
ATOM      9  C   UNL     1       0.595   9.818  19.625  0.00  0.00    +0.000 A 
ATOM     10  C   UNL     1      -0.598   9.891  18.933  0.00  0.00    +0.000 A 
BRANCH   5  11
ATOM     11  C   UNL     1      -2.687  11.088  18.032  0.00  0.00    +0.000 C 
ATOM     12  C   UNL     1      -3.414   9.725  17.837  0.00  0.00    +0.000 C 
ATOM     13  O   UNL     1      -3.136   9.700  16.421  0.00  0.00    +0.000 OA
ATOM     14  C   UNL     1      -2.448  10.969  16.497  0.00  0.00    +0.000 C 
BRANCH  11  15
ATOM     15  C   UNL     1      -3.606  12.266  18.442  0.00  0.00    +0.000 C 
BRANCH  15  21
ATOM     16  C   UNL     1      -6.788  11.170  18.246  0.00  0.00    +0.000 C 
ATOM     17  N   UNL     1      -5.992  11.620  19.358  0.00  0.00    +0.000 N 
ATOM     18  C   UNL     1      -6.532  11.699  20.614  0.00  0.00    +0.000 A 
ATOM     19  N   UNL     1      -5.647  12.173  21.452  0.00  0.00    +0.000 NA
ATOM     20  N   UNL     1      -4.497  12.398  20.746  0.00  0.00    +0.000 NA
ATOM     21  C   UNL     1      -4.678  12.041  19.489  0.00  0.00    +0.000 A 
ENDBRANCH  15  21
ENDBRANCH  11  15
ENDBRANCH   5  11
ENDBRANCH   1   9
BRANCH   2  22
ATOM     22  C   UNL     1       2.805   7.185  18.084  0.00  0.00    +0.000 A 
ATOM     23  C   UNL     1       2.033   6.068  17.822  0.00  0.00    +0.000 A 
ATOM     24  C   UNL     1       2.675   4.866  17.817  0.00  0.00    +0.000 A 
ATOM     25  N   UNL     1       4.018   4.799  17.949  0.00  0.00    +0.000 NA
ATOM     26  C   UNL     1       4.719   5.956  18.098  0.00  0.00    +0.000 A 
ATOM     27  N   UNL     1       4.138   7.165  18.232  0.00  0.00    +0.000 NA
BRANCH  26  28
ATOM     28  C   UNL     1       6.217   5.909  18.006  0.00  0.00    +0.000 C 
ATOM     29  C   UNL     1       6.892   5.748  16.665  0.00  0.00    +0.000 C 
ATOM     30  C   UNL     1       6.995   7.049  17.405  0.00  0.00    +0.000 C 
ENDBRANCH  26  28
BRANCH  24  31
ATOM     31  C   UNL     1       1.879   3.560  17.734  0.00  0.00    +0.000 C 
BRANCH  31  32
ATOM     32  N   UNL     1       1.624   2.893  19.023  0.00  0.00    +0.000 NA
ATOM     33  C   UNL     1       2.761   2.152  19.573  0.00  0.00    +0.000 C 
ATOM     34  C   UNL     1       3.058   2.685  20.967  0.00  0.00    +0.000 C 
ATOM     35  C   UNL     1       1.826   3.461  21.368  0.00  0.00    +0.000 C 
ATOM     36  F   UNL     1       1.027   2.665  22.127  0.00  0.00    +0.000 F 
ATOM     37  C   UNL     1       1.118   3.806  20.064  0.00  0.00    +0.000 C 
ENDBRANCH  31  32
ENDBRANCH  24  31
ENDBRANCH   2  22
TORSDOF 8
ENDMDL
MODEL 7
REMARK VINA RESULT:      -8.6      2.664      3.598
REMARK  Name = 
REMARK  9 active torsions:
REMARK  status: ('A' for Active; 'I' for Inactive)
REMARK    1  A    between atoms: C_1  and  N_2
REMARK    2  A    between atoms: C_6  and  C_7
REMARK    3  A    between atoms: C_7  and  C_8
REMARK    4  A    between atoms: C_8  and  C_9
REMARK    5  A    between atoms: C_13  and  N_14
REMARK    6  A    between atoms: C_15  and  C_17
REMARK    7  A    between atoms: C_19  and  C_20
REMARK    8  A    between atoms: C_20  and  N_21
REMARK    9  A    between atoms: C_28  and  C_29
REMARK                            x       y       z     vdW  Elec       q    Type
REMARK                         _______ _______ _______ _____ _____    ______ ____
ROOT
ATOM      1  N   UNL     1       0.639   8.975  19.214  0.00  0.00    +0.000 N 
ATOM      2  C   UNL     1       1.739   8.689  18.428  0.00  0.00    +0.000 C 
ATOM      3  O   UNL     1       2.226   9.458  17.575  0.00  0.00    +0.000 OA
ATOM      4  H   UNL     1       0.427   8.299  19.943  0.00  0.00    +0.000 HD
ENDROOT
BRANCH   1   9
ATOM      5  C   UNL     1      -1.312  11.957  20.161  0.00  0.00    +0.000 A 
ATOM      6  C   UNL     1      -1.959  12.249  18.943  0.00  0.00    +0.000 A 
ATOM      7  C   UNL     1      -1.703  11.503  17.801  0.00  0.00    +0.000 A 
ATOM      8  C   UNL     1      -0.839  10.425  17.861  0.00  0.00    +0.000 A 
ATOM      9  C   UNL     1      -0.176  10.100  19.056  0.00  0.00    +0.000 A 
ATOM     10  C   UNL     1      -0.389  10.894  20.166  0.00  0.00    +0.000 A 
BRANCH   5  11
ATOM     11  C   UNL     1      -1.598  12.716  21.518  0.00  0.00    +0.000 C 
ATOM     12  C   UNL     1      -0.373  13.462  22.122  0.00  0.00    +0.000 C 
ATOM     13  O   UNL     1      -0.366  12.635  23.305  0.00  0.00    +0.000 OA
ATOM     14  C   UNL     1      -1.510  11.887  22.834  0.00  0.00    +0.000 C 
BRANCH  11  15
ATOM     15  C   UNL     1      -2.885  13.569  21.390  0.00  0.00    +0.000 C 
BRANCH  15  21
ATOM     16  C   UNL     1      -3.625  14.571  24.523  0.00  0.00    +0.000 C 
ATOM     17  N   UNL     1      -4.304  13.692  23.609  0.00  0.00    +0.000 N 
ATOM     18  C   UNL     1      -5.457  13.052  23.983  0.00  0.00    +0.000 A 
ATOM     19  N   UNL     1      -5.871  12.274  23.017  0.00  0.00    +0.000 NA
ATOM     20  N   UNL     1      -4.990  12.410  21.979  0.00  0.00    +0.000 NA
ATOM     21  C   UNL     1      -4.058  13.284  22.307  0.00  0.00    +0.000 A 
ENDBRANCH  15  21
ENDBRANCH  11  15
ENDBRANCH   5  11
ENDBRANCH   1   9
BRANCH   2  22
ATOM     22  C   UNL     1       2.404   7.389  18.632  0.00  0.00    +0.000 A 
ATOM     23  C   UNL     1       3.447   7.062  17.786  0.00  0.00    +0.000 A 
ATOM     24  C   UNL     1       3.969   5.808  17.910  0.00  0.00    +0.000 A 
ATOM     25  N   UNL     1       3.551   4.981  18.892  0.00  0.00    +0.000 NA
ATOM     26  C   UNL     1       2.591   5.417  19.752  0.00  0.00    +0.000 A 
ATOM     27  N   UNL     1       1.949   6.595  19.614  0.00  0.00    +0.000 NA
BRANCH  26  28
ATOM     28  C   UNL     1       2.296   4.603  20.979  0.00  0.00    +0.000 C 
ATOM     29  C   UNL     1       1.270   3.497  20.930  0.00  0.00    +0.000 C 
ATOM     30  C   UNL     1       2.725   3.163  21.078  0.00  0.00    +0.000 C 
ENDBRANCH  26  28
BRANCH  24  31
ATOM     31  C   UNL     1       4.987   5.286  16.893  0.00  0.00    +0.000 C 
BRANCH  31  32
ATOM     32  N   UNL     1       6.377   5.203  17.376  0.00  0.00    +0.000 NA
ATOM     33  C   UNL     1       7.239   6.317  16.981  0.00  0.00    +0.000 C 
ATOM     34  C   UNL     1       7.823   6.949  18.237  0.00  0.00    +0.000 C 
ATOM     35  C   UNL     1       7.606   5.933  19.331  0.00  0.00    +0.000 C 
ATOM     36  F   UNL     1       8.739   5.199  19.489  0.00  0.00    +0.000 F 
ATOM     37  C   UNL     1       6.478   5.035  18.838  0.00  0.00    +0.000 C 
ENDBRANCH  31  32
ENDBRANCH  24  31
ENDBRANCH   2  22
TORSDOF 8
ENDMDL
MODEL 8
REMARK VINA RESULT:      -8.6      2.753      4.461
REMARK  Name = 
REMARK  9 active torsions:
REMARK  status: ('A' for Active; 'I' for Inactive)
REMARK    1  A    between atoms: C_1  and  N_2
REMARK    2  A    between atoms: C_6  and  C_7
REMARK    3  A    between atoms: C_7  and  C_8
REMARK    4  A    between atoms: C_8  and  C_9
REMARK    5  A    between atoms: C_13  and  N_14
REMARK    6  A    between atoms: C_15  and  C_17
REMARK    7  A    between atoms: C_19  and  C_20
REMARK    8  A    between atoms: C_20  and  N_21
REMARK    9  A    between atoms: C_28  and  C_29
REMARK                            x       y       z     vdW  Elec       q    Type
REMARK                         _______ _______ _______ _____ _____    ______ ____
ROOT
ATOM      1  N   UNL     1       0.624   9.019  18.976  0.00  0.00    +0.000 N 
ATOM      2  C   UNL     1       1.768   8.957  18.205  0.00  0.00    +0.000 C 
ATOM      3  O   UNL     1       2.163   9.860  17.440  0.00  0.00    +0.000 OA
ATOM      4  H   UNL     1       0.490   8.257  19.635  0.00  0.00    +0.000 HD
ENDROOT
BRANCH   1   9
ATOM      5  C   UNL     1      -1.563  11.771  20.090  0.00  0.00    +0.000 A 
ATOM      6  C   UNL     1      -2.365  11.954  18.944  0.00  0.00    +0.000 A 
ATOM      7  C   UNL     1      -2.141  11.215  17.790  0.00  0.00    +0.000 A 
ATOM      8  C   UNL     1      -1.152  10.249  17.771  0.00  0.00    +0.000 A 
ATOM      9  C   UNL     1      -0.334  10.035  18.893  0.00  0.00    +0.000 A 
ATOM     10  C   UNL     1      -0.524  10.826  20.009  0.00  0.00    +0.000 A 
BRANCH   5  11
ATOM     11  C   UNL     1      -1.796  12.525  21.459  0.00  0.00    +0.000 C 
ATOM     12  C   UNL     1      -0.527  13.197  22.060  0.00  0.00    +0.000 C 
ATOM     13  O   UNL     1      -0.551  12.354  23.232  0.00  0.00    +0.000 OA
ATOM     14  C   UNL     1      -1.737  11.674  22.763  0.00  0.00    +0.000 C 
BRANCH  11  15
ATOM     15  C   UNL     1      -3.038  13.445  21.358  0.00  0.00    +0.000 C 
BRANCH  15  21
ATOM     16  C   UNL     1      -3.662  14.367  24.540  0.00  0.00    +0.000 C 
ATOM     17  N   UNL     1      -4.415  13.577  23.603  0.00  0.00    +0.000 N 
ATOM     18  C   UNL     1      -5.604  13.005  23.970  0.00  0.00    +0.000 A 
ATOM     19  N   UNL     1      -6.086  12.299  22.981  0.00  0.00    +0.000 NA
ATOM     20  N   UNL     1      -5.212  12.415  21.935  0.00  0.00    +0.000 NA
ATOM     21  C   UNL     1      -4.215  13.206  22.282  0.00  0.00    +0.000 A 
ENDBRANCH  15  21
ENDBRANCH  11  15
ENDBRANCH   5  11
ENDBRANCH   1   9
BRANCH   2  22
ATOM     22  C   UNL     1       2.599   7.744  18.314  0.00  0.00    +0.000 A 
ATOM     23  C   UNL     1       2.194   6.767  19.205  0.00  0.00    +0.000 A 
ATOM     24  C   UNL     1       3.037   5.710  19.382  0.00  0.00    +0.000 A 
ATOM     25  N   UNL     1       4.152   5.583  18.630  0.00  0.00    +0.000 NA
ATOM     26  C   UNL     1       4.426   6.535  17.698  0.00  0.00    +0.000 A 
ATOM     27  N   UNL     1       3.703   7.664  17.555  0.00  0.00    +0.000 NA
BRANCH  26  28
ATOM     28  C   UNL     1       5.523   6.280  16.705  0.00  0.00    +0.000 C 
ATOM     29  C   UNL     1       5.436   5.104  15.762  0.00  0.00    +0.000 C 
ATOM     30  C   UNL     1       5.305   6.502  15.232  0.00  0.00    +0.000 C 
ENDBRANCH  26  28
BRANCH  24  31
ATOM     31  C   UNL     1       2.774   4.683  20.487  0.00  0.00    +0.000 C 
BRANCH  31  32
ATOM     32  N   UNL     1       2.679   3.283  20.038  0.00  0.00    +0.000 NA
ATOM     33  C   UNL     1       1.663   3.028  19.015  0.00  0.00    +0.000 C 
ATOM     34  C   UNL     1       2.339   2.394  17.807  0.00  0.00    +0.000 C 
ATOM     35  C   UNL     1       3.682   1.919  18.307  0.00  0.00    +0.000 C 
ATOM     36  F   UNL     1       3.598   0.600  18.624  0.00  0.00    +0.000 F 
ATOM     37  C   UNL     1       3.962   2.732  19.565  0.00  0.00    +0.000 C 
ENDBRANCH  31  32
ENDBRANCH  24  31
ENDBRANCH   2  22
TORSDOF 8
ENDMDL
MODEL 9
REMARK VINA RESULT:      -8.5      1.708      3.265
REMARK  Name = 
REMARK  9 active torsions:
REMARK  status: ('A' for Active; 'I' for Inactive)
REMARK    1  A    between atoms: C_1  and  N_2
REMARK    2  A    between atoms: C_6  and  C_7
REMARK    3  A    between atoms: C_7  and  C_8
REMARK    4  A    between atoms: C_8  and  C_9
REMARK    5  A    between atoms: C_13  and  N_14
REMARK    6  A    between atoms: C_15  and  C_17
REMARK    7  A    between atoms: C_19  and  C_20
REMARK    8  A    between atoms: C_20  and  N_21
REMARK    9  A    between atoms: C_28  and  C_29
REMARK                            x       y       z     vdW  Elec       q    Type
REMARK                         _______ _______ _______ _____ _____    ______ ____
ROOT
ATOM      1  N   UNL     1       1.253   9.256  19.475  0.00  0.00    +0.000 N 
ATOM      2  C   UNL     1       1.998   8.889  18.371  0.00  0.00    +0.000 C 
ATOM      3  O   UNL     1       2.109   9.564  17.327  0.00  0.00    +0.000 OA
ATOM      4  H   UNL     1       1.349   8.660  20.293  0.00  0.00    +0.000 HD
ENDROOT
BRANCH   1   9
ATOM      5  C   UNL     1      -1.675  11.357  18.696  0.00  0.00    +0.000 A 
ATOM      6  C   UNL     1      -1.315  12.561  19.336  0.00  0.00    +0.000 A 
ATOM      7  C   UNL     1      -0.143  12.657  20.074  0.00  0.00    +0.000 A 
ATOM      8  C   UNL     1       0.716  11.575  20.146  0.00  0.00    +0.000 A 
ATOM      9  C   UNL     1       0.395  10.359  19.520  0.00  0.00    +0.000 A 
ATOM     10  C   UNL     1      -0.808  10.259  18.848  0.00  0.00    +0.000 A 
BRANCH   5  11
ATOM     11  C   UNL     1      -2.956  11.189  17.787  0.00  0.00    +0.000 C 
ATOM     12  C   UNL     1      -3.492   9.732  17.674  0.00  0.00    +0.000 C 
ATOM     13  O   UNL     1      -3.238   9.675  16.254  0.00  0.00    +0.000 OA
ATOM     14  C   UNL     1      -2.730  11.028  16.254  0.00  0.00    +0.000 C 
BRANCH  11  15
ATOM     15  C   UNL     1      -4.020  12.250  18.163  0.00  0.00    +0.000 C 
BRANCH  15  21
ATOM     16  C   UNL     1      -6.977  10.670  18.517  0.00  0.00    +0.000 C 
ATOM     17  N   UNL     1      -6.148  11.381  19.454  0.00  0.00    +0.000 N 
ATOM     18  C   UNL     1      -6.550  11.547  20.753  0.00  0.00    +0.000 A 
ATOM     19  N   UNL     1      -5.669  12.259  21.406  0.00  0.00    +0.000 NA
ATOM     20  N   UNL     1      -4.658  12.557  20.533  0.00  0.00    +0.000 NA
ATOM     21  C   UNL     1      -4.917  12.010  19.361  0.00  0.00    +0.000 A 
ENDBRANCH  15  21
ENDBRANCH  11  15
ENDBRANCH   5  11
ENDBRANCH   1   9
BRANCH   2  22
ATOM     22  C   UNL     1       2.740   7.616  18.441  0.00  0.00    +0.000 A 
ATOM     23  C   UNL     1       2.281   6.654  19.322  0.00  0.00    +0.000 A 
ATOM     24  C   UNL     1       3.048   5.535  19.463  0.00  0.00    +0.000 A 
ATOM     25  N   UNL     1       4.137   5.342  18.688  0.00  0.00    +0.000 NA
ATOM     26  C   UNL     1       4.463   6.291  17.768  0.00  0.00    +0.000 A 
ATOM     27  N   UNL     1       3.822   7.472  17.660  0.00  0.00    +0.000 NA
BRANCH  26  28
ATOM     28  C   UNL     1       5.521   5.976  16.750  0.00  0.00    +0.000 C 
ATOM     29  C   UNL     1       5.376   4.773  15.851  0.00  0.00    +0.000 C 
ATOM     30  C   UNL     1       5.259   6.155  15.278  0.00  0.00    +0.000 C 
ENDBRANCH  26  28
BRANCH  24  31
ATOM     31  C   UNL     1       2.730   4.508  20.553  0.00  0.00    +0.000 C 
BRANCH  31  32
ATOM     32  N   UNL     1       2.701   3.104  20.109  0.00  0.00    +0.000 NA
ATOM     33  C   UNL     1       1.662   2.786  19.128  0.00  0.00    +0.000 C 
ATOM     34  C   UNL     1       2.325   2.190  17.894  0.00  0.00    +0.000 C 
ATOM     35  C   UNL     1       3.713   1.798  18.338  0.00  0.00    +0.000 C 
ATOM     36  F   UNL     1       3.721   0.477  18.659  0.00  0.00    +0.000 F 
ATOM     37  C   UNL     1       3.995   2.630  19.583  0.00  0.00    +0.000 C 
ENDBRANCH  31  32
ENDBRANCH  24  31
ENDBRANCH   2  22
TORSDOF 8
ENDMDL
