MODEL 1
REMARK VINA RESULT:      -8.2      0.000      0.000
REMARK  Name = 
REMARK  5 active torsions:
REMARK  status: ('A' for Active; 'I' for Inactive)
REMARK    1  A    between atoms: C_1  and  C_2
REMARK    2  A    between atoms: C_2  and  S_3
REMARK    3  A    between atoms: C_2  and  C_10
REMARK    4  A    between atoms: S_3  and  C_4
REMARK    5  A    between atoms: N_8  and  C_9
REMARK                            x       y       z     vdW  Elec       q    Type
REMARK                         _______ _______ _______ _____ _____    ______ ____
ROOT
ATOM      1  C   UNL     1       2.409   7.486  18.849  0.00  0.00    +0.000 A 
ATOM      2  C   UNL     1       2.033   8.418  17.877  0.00  0.00    +0.000 A 
ATOM      3  C   UNL     1       1.215   9.473  18.234  0.00  0.00    +0.000 A 
ATOM      4  N   UNL     1       0.742   9.666  19.479  0.00  0.00    +0.000 NA
ATOM      5  C   UNL     1       1.123   8.795  20.427  0.00  0.00    +0.000 A 
ATOM      6  N   UNL     1       0.703   8.994  21.749  0.00  0.00    +0.000 N 
ATOM      7  C   UNL     1       0.015  10.054  22.267  0.00  0.00    +0.000 C 
ATOM      8  O   UNL     1      -0.117  10.111  23.490  0.00  0.00    +0.000 OA
ATOM      9  N   UNL     1      -0.489  10.959  21.382  0.00  0.00    +0.000 N 
ATOM     10  C   UNL     1      -1.221  12.085  21.746  0.00  0.00    +0.000 A 
ATOM     11  C   UNL     1      -0.805  12.899  22.793  0.00  0.00    +0.000 A 
ATOM     12  C   UNL     1      -1.594  13.990  23.143  0.00  0.00    +0.000 A 
ATOM     13  C   UNL     1      -2.781  14.212  22.460  0.00  0.00    +0.000 A 
ATOM     14  C   UNL     1      -3.098  13.367  21.409  0.00  0.00    +0.000 A 
ATOM     15  N   UNL     1      -2.322  12.336  21.009  0.00  0.00    +0.000 NA
ATOM     16  C   UNL     1       1.938   7.700  20.159  0.00  0.00    +0.000 A 
ATOM     17  H   UNL     1       1.004   8.338  22.455  0.00  0.00    +0.000 HD
ATOM     18  H   UNL     1      -0.685  10.592  20.457  0.00  0.00    +0.000 HD
ENDROOT
BRANCH   1  20
ATOM     19  C   UNL     1       4.356   6.562  17.454  0.00  0.00    +0.000 C 
ATOM     20  C   UNL     1       3.301   6.281  18.537  0.00  0.00    +0.000 C 
BRANCH  20  21
ATOM     21  S   UNL     1       2.242   4.866  18.021  0.00  0.00    +0.000 S 
BRANCH  21  22
ATOM     22  C   UNL     1       2.049   3.996  19.498  0.00  0.00    +0.000 A 
ATOM     23  N   UNL     1       1.017   4.016  20.309  0.00  0.00    +0.000 NA
ATOM     24  N   UNL     1       1.340   3.243  21.406  0.00  0.00    +0.000 NA
ATOM     25  C   UNL     1       2.547   2.764  21.216  0.00  0.00    +0.000 A 
ATOM     26  N   UNL     1       3.025   3.196  20.015  0.00  0.00    +0.000 N 
ATOM     27  C   UNL     1       4.307   2.880  19.448  0.00  0.00    +0.000 C 
ENDBRANCH  21  22
ENDBRANCH  20  21
ENDBRANCH   1  20
TORSDOF 3
ENDMDL
MODEL 2
REMARK VINA RESULT:      -8.0      1.782      2.483
REMARK  Name = 
REMARK  5 active torsions:
REMARK  status: ('A' for Active; 'I' for Inactive)
REMARK    1  A    between atoms: C_1  and  C_2
REMARK    2  A    between atoms: C_2  and  S_3
REMARK    3  A    between atoms: C_2  and  C_10
REMARK    4  A    between atoms: S_3  and  C_4
REMARK    5  A    between atoms: N_8  and  C_9
REMARK                            x       y       z     vdW  Elec       q    Type
REMARK                         _______ _______ _______ _____ _____    ______ ____
ROOT
ATOM      1  C   UNL     1       4.019   5.634  18.696  0.00  0.00    +0.000 A 
ATOM      2  C   UNL     1       3.971   6.472  17.578  0.00  0.00    +0.000 A 
ATOM      3  C   UNL     1       3.135   7.572  17.592  0.00  0.00    +0.000 A 
ATOM      4  N   UNL     1       2.342   7.896  18.631  0.00  0.00    +0.000 NA
ATOM      5  C   UNL     1       2.403   7.117  19.722  0.00  0.00    +0.000 A 
ATOM      6  N   UNL     1       1.640   7.454  20.847  0.00  0.00    +0.000 N 
ATOM      7  C   UNL     1       0.884   8.573  21.052  0.00  0.00    +0.000 C 
ATOM      8  O   UNL     1       0.418   8.754  22.178  0.00  0.00    +0.000 OA
ATOM      9  N   UNL     1       0.689   9.394  19.983  0.00  0.00    +0.000 N 
ATOM     10  C   UNL     1      -0.063  10.563  20.022  0.00  0.00    +0.000 A 
ATOM     11  C   UNL     1       0.079  11.470  21.065  0.00  0.00    +0.000 A 
ATOM     12  C   UNL     1      -0.725  12.605  21.079  0.00  0.00    +0.000 A 
ATOM     13  C   UNL     1      -1.663  12.779  20.071  0.00  0.00    +0.000 A 
ATOM     14  C   UNL     1      -1.711  11.840  19.054  0.00  0.00    +0.000 A 
ATOM     15  N   UNL     1      -0.902  10.760  18.984  0.00  0.00    +0.000 NA
ATOM     16  C   UNL     1       3.211   5.986  19.795  0.00  0.00    +0.000 A 
ATOM     17  H   UNL     1       1.702   6.866  21.666  0.00  0.00    +0.000 HD
ATOM     18  H   UNL     1       0.743   8.941  19.078  0.00  0.00    +0.000 HD
ENDROOT
BRANCH   1  20
ATOM     19  C   UNL     1       6.055   4.401  17.737  0.00  0.00    +0.000 C 
ATOM     20  C   UNL     1       4.907   4.389  18.760  0.00  0.00    +0.000 C 
BRANCH  20  21
ATOM     21  S   UNL     1       3.863   2.893  18.504  0.00  0.00    +0.000 S 
BRANCH  21  22
ATOM     22  C   UNL     1       3.044   2.755  20.016  0.00  0.00    +0.000 A 
ATOM     23  N   UNL     1       3.578   2.595  21.204  0.00  0.00    +0.000 NA
ATOM     24  N   UNL     1       2.544   2.442  22.105  0.00  0.00    +0.000 NA
ATOM     25  C   UNL     1       1.417   2.536  21.438  0.00  0.00    +0.000 A 
ATOM     26  N   UNL     1       1.684   2.753  20.119  0.00  0.00    +0.000 N 
ATOM     27  C   UNL     1       0.714   2.917  19.072  0.00  0.00    +0.000 C 
ENDBRANCH  21  22
ENDBRANCH  20  21
ENDBRANCH   1  20
TORSDOF 3
ENDMDL
MODEL 3
REMARK VINA RESULT:      -8.0      0.722      1.307
REMARK  Name = 
REMARK  5 active torsions:
REMARK  status: ('A' for Active; 'I' for Inactive)
REMARK    1  A    between atoms: C_1  and  C_2
REMARK    2  A    between atoms: C_2  and  S_3
REMARK    3  A    between atoms: C_2  and  C_10
REMARK    4  A    between atoms: S_3  and  C_4
REMARK    5  A    between atoms: N_8  and  C_9
REMARK                            x       y       z     vdW  Elec       q    Type
REMARK                         _______ _______ _______ _____ _____    ______ ____
ROOT
ATOM      1  C   UNL     1       2.390   7.681  18.789  0.00  0.00    +0.000 A 
ATOM      2  C   UNL     1       1.927   8.603  17.845  0.00  0.00    +0.000 A 
ATOM      3  C   UNL     1       1.064   9.605  18.245  0.00  0.00    +0.000 A 
ATOM      4  N   UNL     1       0.625   9.755  19.508  0.00  0.00    +0.000 NA
ATOM      5  C   UNL     1       1.087   8.894  20.430  0.00  0.00    +0.000 A 
ATOM      6  N   UNL     1       0.703   9.053  21.767  0.00  0.00    +0.000 N 
ATOM      7  C   UNL     1      -0.025  10.065  22.325  0.00  0.00    +0.000 C 
ATOM      8  O   UNL     1      -0.117  10.099  23.552  0.00  0.00    +0.000 OA
ATOM      9  N   UNL     1      -0.610  10.950  21.470  0.00  0.00    +0.000 N 
ATOM     10  C   UNL     1      -1.391  12.028  21.876  0.00  0.00    +0.000 A 
ATOM     11  C   UNL     1      -0.986  12.851  22.920  0.00  0.00    +0.000 A 
ATOM     12  C   UNL     1      -1.822  13.891  23.313  0.00  0.00    +0.000 A 
ATOM     13  C   UNL     1      -3.043  14.054  22.674  0.00  0.00    +0.000 A 
ATOM     14  C   UNL     1      -3.348  13.206  21.622  0.00  0.00    +0.000 A 
ATOM     15  N   UNL     1      -2.529  12.226  21.180  0.00  0.00    +0.000 NA
ATOM     16  C   UNL     1       1.954   7.851  20.117  0.00  0.00    +0.000 A 
ATOM     17  H   UNL     1       1.066   8.405  22.453  0.00  0.00    +0.000 HD
ATOM     18  H   UNL     1      -0.816  10.585  20.548  0.00  0.00    +0.000 HD
ENDROOT
BRANCH   1  20
ATOM     19  C   UNL     1       4.180   6.803  17.172  0.00  0.00    +0.000 C 
ATOM     20  C   UNL     1       3.337   6.533  18.429  0.00  0.00    +0.000 C 
BRANCH  20  21
ATOM     21  S   UNL     1       2.355   4.992  18.200  0.00  0.00    +0.000 S 
BRANCH  21  22
ATOM     22  C   UNL     1       3.215   3.861  19.179  0.00  0.00    +0.000 A 
ATOM     23  N   UNL     1       4.472   3.502  19.068  0.00  0.00    +0.000 NA
ATOM     24  N   UNL     1       4.701   2.509  19.999  0.00  0.00    +0.000 NA
ATOM     25  C   UNL     1       3.582   2.314  20.658  0.00  0.00    +0.000 A 
ATOM     26  N   UNL     1       2.623   3.160  20.187  0.00  0.00    +0.000 N 
ATOM     27  C   UNL     1       1.268   3.253  20.658  0.00  0.00    +0.000 C 
ENDBRANCH  21  22
ENDBRANCH  20  21
ENDBRANCH   1  20
TORSDOF 3
ENDMDL
MODEL 4
REMARK VINA RESULT:      -7.9      1.791      2.182
REMARK  Name = 
REMARK  5 active torsions:
REMARK  status: ('A' for Active; 'I' for Inactive)
REMARK    1  A    between atoms: C_1  and  C_2
REMARK    2  A    between atoms: C_2  and  S_3
REMARK    3  A    between atoms: C_2  and  C_10
REMARK    4  A    between atoms: S_3  and  C_4
REMARK    5  A    between atoms: N_8  and  C_9
REMARK                            x       y       z     vdW  Elec       q    Type
REMARK                         _______ _______ _______ _____ _____    ______ ____
ROOT
ATOM      1  C   UNL     1       3.850   6.171  18.464  0.00  0.00    +0.000 A 
ATOM      2  C   UNL     1       3.731   7.144  17.466  0.00  0.00    +0.000 A 
ATOM      3  C   UNL     1       2.859   8.200  17.653  0.00  0.00    +0.000 A 
ATOM      4  N   UNL     1       2.097   8.357  18.751  0.00  0.00    +0.000 NA
ATOM      5  C   UNL     1       2.226   7.445  19.729  0.00  0.00    +0.000 A 
ATOM      6  N   UNL     1       1.497   7.606  20.914  0.00  0.00    +0.000 N 
ATOM      7  C   UNL     1       0.712   8.659  21.289  0.00  0.00    +0.000 C 
ATOM      8  O   UNL     1       0.285   8.674  22.444  0.00  0.00    +0.000 OA
ATOM      9  N   UNL     1       0.448   9.602  20.343  0.00  0.00    +0.000 N 
ATOM     10  C   UNL     1      -0.341  10.727  20.560  0.00  0.00    +0.000 A 
ATOM     11  C   UNL     1      -0.188  11.497  21.707  0.00  0.00    +0.000 A 
ATOM     12  C   UNL     1      -1.030  12.589  21.896  0.00  0.00    +0.000 A 
ATOM     13  C   UNL     1      -2.011  12.855  20.952  0.00  0.00    +0.000 A 
ATOM     14  C   UNL     1      -2.067  12.054  19.824  0.00  0.00    +0.000 A 
ATOM     15  N   UNL     1      -1.226  11.024  19.586  0.00  0.00    +0.000 NA
ATOM     16  C   UNL     1       3.074   6.347  19.626  0.00  0.00    +0.000 A 
ATOM     17  H   UNL     1       1.611   6.919  21.646  0.00  0.00    +0.000 HD
ATOM     18  H   UNL     1       0.482   9.273  19.385  0.00  0.00    +0.000 HD
ENDROOT
BRANCH   1  20
ATOM     19  C   UNL     1       6.253   5.344  18.102  0.00  0.00    +0.000 C 
ATOM     20  C   UNL     1       4.781   4.963  18.334  0.00  0.00    +0.000 C 
BRANCH  20  21
ATOM     21  S   UNL     1       4.191   3.894  16.954  0.00  0.00    +0.000 S 
BRANCH  21  22
ATOM     22  C   UNL     1       2.719   3.257  17.589  0.00  0.00    +0.000 A 
ATOM     23  N   UNL     1       1.514   3.763  17.476  0.00  0.00    +0.000 NA
ATOM     24  N   UNL     1       0.662   2.970  18.217  0.00  0.00    +0.000 NA
ATOM     25  C   UNL     1       1.374   1.997  18.738  0.00  0.00    +0.000 A 
ATOM     26  N   UNL     1       2.674   2.127  18.351  0.00  0.00    +0.000 N 
ATOM     27  C   UNL     1       3.757   1.254  18.710  0.00  0.00    +0.000 C 
ENDBRANCH  21  22
ENDBRANCH  20  21
ENDBRANCH   1  20
TORSDOF 3
ENDMDL
MODEL 5
REMARK VINA RESULT:      -7.6      2.934      3.938
REMARK  Name = 
REMARK  5 active torsions:
REMARK  status: ('A' for Active; 'I' for Inactive)
REMARK    1  A    between atoms: C_1  and  C_2
REMARK    2  A    between atoms: C_2  and  S_3
REMARK    3  A    between atoms: C_2  and  C_10
REMARK    4  A    between atoms: S_3  and  C_4
REMARK    5  A    between atoms: N_8  and  C_9
REMARK                            x       y       z     vdW  Elec       q    Type
REMARK                         _______ _______ _______ _____ _____    ______ ____
ROOT
ATOM      1  C   UNL     1       2.633   7.253  18.423  0.00  0.00    +0.000 A 
ATOM      2  C   UNL     1       2.367   6.896  19.749  0.00  0.00    +0.000 A 
ATOM      3  C   UNL     1       1.655   7.766  20.552  0.00  0.00    +0.000 A 
ATOM      4  N   UNL     1       1.195   8.962  20.138  0.00  0.00    +0.000 NA
ATOM      5  C   UNL     1       1.418   9.300  18.858  0.00  0.00    +0.000 A 
ATOM      6  N   UNL     1       0.903  10.508  18.371  0.00  0.00    +0.000 N 
ATOM      7  C   UNL     1       0.075  11.392  19.003  0.00  0.00    +0.000 C 
ATOM      8  O   UNL     1      -0.392  12.317  18.338  0.00  0.00    +0.000 OA
ATOM      9  N   UNL     1      -0.153  11.187  20.330  0.00  0.00    +0.000 N 
ATOM     10  C   UNL     1      -0.960  12.000  21.119  0.00  0.00    +0.000 A 
ATOM     11  C   UNL     1      -2.205  12.423  20.669  0.00  0.00    +0.000 A 
ATOM     12  C   UNL     1      -2.956  13.268  21.480  0.00  0.00    +0.000 A 
ATOM     13  C   UNL     1      -2.427  13.686  22.693  0.00  0.00    +0.000 A 
ATOM     14  C   UNL     1      -1.192  13.186  23.074  0.00  0.00    +0.000 A 
ATOM     15  N   UNL     1      -0.468  12.319  22.334  0.00  0.00    +0.000 NA
ATOM     16  C   UNL     1       2.130   8.491  17.979  0.00  0.00    +0.000 A 
ATOM     17  H   UNL     1       1.068  10.747  17.403  0.00  0.00    +0.000 HD
ATOM     18  H   UNL     1       0.585  10.697  20.822  0.00  0.00    +0.000 HD
ENDROOT
BRANCH   1  20
ATOM     19  C   UNL     1       3.301   4.856  17.790  0.00  0.00    +0.000 C 
ATOM     20  C   UNL     1       3.425   6.355  17.469  0.00  0.00    +0.000 C 
BRANCH  20  21
ATOM     21  S   UNL     1       5.198   6.853  17.507  0.00  0.00    +0.000 S 
BRANCH  21  22
ATOM     22  C   UNL     1       5.878   5.882  16.253  0.00  0.00    +0.000 A 
ATOM     23  N   UNL     1       5.542   5.865  14.984  0.00  0.00    +0.000 NA
ATOM     24  N   UNL     1       6.283   4.873  14.375  0.00  0.00    +0.000 NA
ATOM     25  C   UNL     1       7.058   4.336  15.289  0.00  0.00    +0.000 A 
ATOM     26  N   UNL     1       6.850   4.955  16.484  0.00  0.00    +0.000 N 
ATOM     27  C   UNL     1       7.514   4.655  17.723  0.00  0.00    +0.000 C 
ENDBRANCH  21  22
ENDBRANCH  20  21
ENDBRANCH   1  20
TORSDOF 3
ENDMDL
MODEL 6
REMARK VINA RESULT:      -7.5      3.014      4.621
REMARK  Name = 
REMARK  5 active torsions:
REMARK  status: ('A' for Active; 'I' for Inactive)
REMARK    1  A    between atoms: C_1  and  C_2
REMARK    2  A    between atoms: C_2  and  S_3
REMARK    3  A    between atoms: C_2  and  C_10
REMARK    4  A    between atoms: S_3  and  C_4
REMARK    5  A    between atoms: N_8  and  C_9
REMARK                            x       y       z     vdW  Elec       q    Type
REMARK                         _______ _______ _______ _____ _____    ______ ____
ROOT
ATOM      1  C   UNL     1       3.399   4.800  19.257  0.00  0.00    +0.000 A 
ATOM      2  C   UNL     1       2.556   4.700  20.367  0.00  0.00    +0.000 A 
ATOM      3  C   UNL     1       1.772   5.782  20.720  0.00  0.00    +0.000 A 
ATOM      4  N   UNL     1       1.769   6.953  20.055  0.00  0.00    +0.000 NA
ATOM      5  C   UNL     1       2.553   7.049  18.969  0.00  0.00    +0.000 A 
ATOM      6  N   UNL     1       2.533   8.229  18.214  0.00  0.00    +0.000 N 
ATOM      7  C   UNL     1       1.718   9.315  18.361  0.00  0.00    +0.000 C 
ATOM      8  O   UNL     1       1.754  10.184  17.490  0.00  0.00    +0.000 OA
ATOM      9  N   UNL     1       0.939   9.357  19.478  0.00  0.00    +0.000 N 
ATOM     10  C   UNL     1       0.064  10.396  19.782  0.00  0.00    +0.000 A 
ATOM     11  C   UNL     1      -0.781  10.924  18.814  0.00  0.00    +0.000 A 
ATOM     12  C   UNL     1      -1.608  11.989  19.158  0.00  0.00    +0.000 A 
ATOM     13  C   UNL     1      -1.539  12.508  20.443  0.00  0.00    +0.000 A 
ATOM     14  C   UNL     1      -0.691  11.895  21.351  0.00  0.00    +0.000 A 
ATOM     15  N   UNL     1       0.079  10.824  21.061  0.00  0.00    +0.000 NA
ATOM     16  C   UNL     1       3.379   6.014  18.543  0.00  0.00    +0.000 A 
ATOM     17  H   UNL     1       3.118   8.285  17.393  0.00  0.00    +0.000 HD
ATOM     18  H   UNL     1       1.300   8.845  20.274  0.00  0.00    +0.000 HD
ENDROOT
BRANCH   1  20
ATOM     19  C   UNL     1       4.293   2.445  19.753  0.00  0.00    +0.000 C 
ATOM     20  C   UNL     1       4.310   3.655  18.804  0.00  0.00    +0.000 C 
BRANCH  20  21
ATOM     21  S   UNL     1       6.031   4.287  18.633  0.00  0.00    +0.000 S 
BRANCH  21  22
ATOM     22  C   UNL     1       6.206   4.413  16.921  0.00  0.00    +0.000 A 
ATOM     23  N   UNL     1       5.872   3.524  16.015  0.00  0.00    +0.000 NA
ATOM     24  N   UNL     1       6.279   4.011  14.790  0.00  0.00    +0.000 NA
ATOM     25  C   UNL     1       6.827   5.188  14.990  0.00  0.00    +0.000 A 
ATOM     26  N   UNL     1       6.784   5.490  16.317  0.00  0.00    +0.000 N 
ATOM     27  C   UNL     1       7.278   6.693  16.930  0.00  0.00    +0.000 C 
ENDBRANCH  21  22
ENDBRANCH  20  21
ENDBRANCH   1  20
TORSDOF 3
ENDMDL
MODEL 7
REMARK VINA RESULT:      -7.4      1.160      1.617
REMARK  Name = 
REMARK  5 active torsions:
REMARK  status: ('A' for Active; 'I' for Inactive)
REMARK    1  A    between atoms: C_1  and  C_2
REMARK    2  A    between atoms: C_2  and  S_3
REMARK    3  A    between atoms: C_2  and  C_10
REMARK    4  A    between atoms: S_3  and  C_4
REMARK    5  A    between atoms: N_8  and  C_9
REMARK                            x       y       z     vdW  Elec       q    Type
REMARK                         _______ _______ _______ _____ _____    ______ ____
ROOT
ATOM      1  C   UNL     1       2.252   7.413  19.404  0.00  0.00    +0.000 A 
ATOM      2  C   UNL     1       2.134   8.337  18.362  0.00  0.00    +0.000 A 
ATOM      3  C   UNL     1       1.391   9.485  18.558  0.00  0.00    +0.000 A 
ATOM      4  N   UNL     1       0.756   9.779  19.709  0.00  0.00    +0.000 NA
ATOM      5  C   UNL     1       0.889   8.913  20.727  0.00  0.00    +0.000 A 
ATOM      6  N   UNL     1       0.295   9.211  21.960  0.00  0.00    +0.000 N 
ATOM      7  C   UNL     1      -0.344  10.358  22.336  0.00  0.00    +0.000 C 
ATOM      8  O   UNL     1      -0.655  10.479  23.521  0.00  0.00    +0.000 OA
ATOM      9  N   UNL     1      -0.604  11.271  21.360  0.00  0.00    +0.000 N 
ATOM     10  C   UNL     1      -1.256  12.481  21.576  0.00  0.00    +0.000 A 
ATOM     11  C   UNL     1      -0.920  13.291  22.654  0.00  0.00    +0.000 A 
ATOM     12  C   UNL     1      -1.629  14.473  22.848  0.00  0.00    +0.000 A 
ATOM     13  C   UNL     1      -2.666  14.787  21.981  0.00  0.00    +0.000 A 
ATOM     14  C   UNL     1      -2.907  13.937  20.915  0.00  0.00    +0.000 A 
ATOM     15  N   UNL     1      -2.197  12.814  20.668  0.00  0.00    +0.000 NA
ATOM     16  C   UNL     1       1.612   7.729  20.618  0.00  0.00    +0.000 A 
ATOM     17  H   UNL     1       0.411   8.557  22.721  0.00  0.00    +0.000 HD
ATOM     18  H   UNL     1      -0.694  10.888  20.426  0.00  0.00    +0.000 HD
ENDROOT
BRANCH   1  20
ATOM     19  C   UNL     1       3.083   5.561  17.831  0.00  0.00    +0.000 C 
ATOM     20  C   UNL     1       3.045   6.110  19.267  0.00  0.00    +0.000 C 
BRANCH  20  21
ATOM     21  S   UNL     1       2.323   4.846  20.396  0.00  0.00    +0.000 S 
BRANCH  21  22
ATOM     22  C   UNL     1       3.008   3.382  19.792  0.00  0.00    +0.000 A 
ATOM     23  N   UNL     1       4.255   2.983  19.888  0.00  0.00    +0.000 NA
ATOM     24  N   UNL     1       4.365   1.802  19.182  0.00  0.00    +0.000 NA
ATOM     25  C   UNL     1       3.178   1.513  18.700  0.00  0.00    +0.000 A 
ATOM     26  N   UNL     1       2.287   2.472  19.077  0.00  0.00    +0.000 N 
ATOM     27  C   UNL     1       0.888   2.506  18.752  0.00  0.00    +0.000 C 
ENDBRANCH  21  22
ENDBRANCH  20  21
ENDBRANCH   1  20
TORSDOF 3
ENDMDL
MODEL 8
REMARK VINA RESULT:      -7.4      2.203      2.925
REMARK  Name = 
REMARK  5 active torsions:
REMARK  status: ('A' for Active; 'I' for Inactive)
REMARK    1  A    between atoms: C_1  and  C_2
REMARK    2  A    between atoms: C_2  and  S_3
REMARK    3  A    between atoms: C_2  and  C_10
REMARK    4  A    between atoms: S_3  and  C_4
REMARK    5  A    between atoms: N_8  and  C_9
REMARK                            x       y       z     vdW  Elec       q    Type
REMARK                         _______ _______ _______ _____ _____    ______ ____
ROOT
ATOM      1  C   UNL     1       2.416   7.524  18.649  0.00  0.00    +0.000 A 
ATOM      2  C   UNL     1       1.973   8.469  17.719  0.00  0.00    +0.000 A 
ATOM      3  C   UNL     1       1.145   9.493  18.138  0.00  0.00    +0.000 A 
ATOM      4  N   UNL     1       0.723   9.643  19.407  0.00  0.00    +0.000 NA
ATOM      5  C   UNL     1       1.167   8.759  20.315  0.00  0.00    +0.000 A 
ATOM      6  N   UNL     1       0.801   8.916  21.658  0.00  0.00    +0.000 N 
ATOM      7  C   UNL     1       0.110   9.944  22.233  0.00  0.00    +0.000 C 
ATOM      8  O   UNL     1       0.031   9.968  23.461  0.00  0.00    +0.000 OA
ATOM      9  N   UNL     1      -0.456  10.855  21.393  0.00  0.00    +0.000 N 
ATOM     10  C   UNL     1      -1.199  11.952  21.817  0.00  0.00    +0.000 A 
ATOM     11  C   UNL     1      -0.760  12.752  22.865  0.00  0.00    +0.000 A 
ATOM     12  C   UNL     1      -1.560  13.813  23.277  0.00  0.00    +0.000 A 
ATOM     13  C   UNL     1      -2.781  14.019  22.652  0.00  0.00    +0.000 A 
ATOM     14  C   UNL     1      -3.122  13.192  21.595  0.00  0.00    +0.000 A 
ATOM     15  N   UNL     1      -2.338  12.192  21.135  0.00  0.00    +0.000 NA
ATOM     16  C   UNL     1       1.998   7.693  19.984  0.00  0.00    +0.000 A 
ATOM     17  H   UNL     1       1.151   8.251  22.333  0.00  0.00    +0.000 HD
ATOM     18  H   UNL     1      -0.683  10.506  20.469  0.00  0.00    +0.000 HD
ENDROOT
BRANCH   1  20
ATOM     19  C   UNL     1       3.928   5.624  19.482  0.00  0.00    +0.000 C 
ATOM     20  C   UNL     1       3.324   6.351  18.269  0.00  0.00    +0.000 C 
BRANCH  20  21
ATOM     21  S   UNL     1       4.675   6.966  17.178  0.00  0.00    +0.000 S 
BRANCH  21  22
ATOM     22  C   UNL     1       5.997   5.954  17.627  0.00  0.00    +0.000 A 
ATOM     23  N   UNL     1       6.880   6.165  18.576  0.00  0.00    +0.000 NA
ATOM     24  N   UNL     1       7.805   5.143  18.514  0.00  0.00    +0.000 NA
ATOM     25  C   UNL     1       7.441   4.334  17.546  0.00  0.00    +0.000 A 
ATOM     26  N   UNL     1       6.295   4.796  16.972  0.00  0.00    +0.000 N 
ATOM     27  C   UNL     1       5.583   4.183  15.885  0.00  0.00    +0.000 C 
ENDBRANCH  21  22
ENDBRANCH  20  21
ENDBRANCH   1  20
TORSDOF 3
ENDMDL
MODEL 9
REMARK VINA RESULT:      -7.4      3.050      9.011
REMARK  Name = 
REMARK  5 active torsions:
REMARK  status: ('A' for Active; 'I' for Inactive)
REMARK    1  A    between atoms: C_1  and  C_2
REMARK    2  A    between atoms: C_2  and  S_3
REMARK    3  A    between atoms: C_2  and  C_10
REMARK    4  A    between atoms: S_3  and  C_4
REMARK    5  A    between atoms: N_8  and  C_9
REMARK                            x       y       z     vdW  Elec       q    Type
REMARK                         _______ _______ _______ _____ _____    ______ ____
ROOT
ATOM      1  C   UNL     1       0.063  10.764  20.999  0.00  0.00    +0.000 A 
ATOM      2  C   UNL     1       0.351  11.129  19.680  0.00  0.00    +0.000 A 
ATOM      3  C   UNL     1       1.047  10.251  18.872  0.00  0.00    +0.000 A 
ATOM      4  N   UNL     1       1.481   9.043  19.279  0.00  0.00    +0.000 NA
ATOM      5  C   UNL     1       1.183   8.669  20.533  0.00  0.00    +0.000 A 
ATOM      6  N   UNL     1       1.563   7.395  20.976  0.00  0.00    +0.000 N 
ATOM      7  C   UNL     1       2.128   6.382  20.254  0.00  0.00    +0.000 C 
ATOM      8  O   UNL     1       2.237   5.282  20.796  0.00  0.00    +0.000 OA
ATOM      9  N   UNL     1       2.544   6.679  18.991  0.00  0.00    +0.000 N 
ATOM     10  C   UNL     1       3.148   5.765  18.133  0.00  0.00    +0.000 A 
ATOM     11  C   UNL     1       2.635   4.482  17.980  0.00  0.00    +0.000 A 
ATOM     12  C   UNL     1       3.299   3.594  17.140  0.00  0.00    +0.000 A 
ATOM     13  C   UNL     1       4.465   4.004  16.509  0.00  0.00    +0.000 A 
ATOM     14  C   UNL     1       4.882   5.312  16.695  0.00  0.00    +0.000 A 
ATOM     15  N   UNL     1       4.225   6.214  17.457  0.00  0.00    +0.000 NA
ATOM     16  C   UNL     1       0.492   9.490  21.419  0.00  0.00    +0.000 A 
ATOM     17  H   UNL     1       1.324   7.121  21.918  0.00  0.00    +0.000 HD
ATOM     18  H   UNL     1       2.789   7.650  18.836  0.00  0.00    +0.000 HD
ENDROOT
BRANCH   1  20
ATOM     19  C   UNL     1      -1.314  10.936  23.158  0.00  0.00    +0.000 C 
ATOM     20  C   UNL     1      -0.692  11.680  21.965  0.00  0.00    +0.000 C 
BRANCH  20  21
ATOM     21  S   UNL     1      -2.008  12.578  21.039  0.00  0.00    +0.000 S 
BRANCH  21  22
ATOM     22  C   UNL     1      -3.189  12.861  22.263  0.00  0.00    +0.000 A 
ATOM     23  N   UNL     1      -4.336  12.243  22.426  0.00  0.00    +0.000 NA
ATOM     24  N   UNL     1      -4.992  12.859  23.472  0.00  0.00    +0.000 NA
ATOM     25  C   UNL     1      -4.213  13.816  23.923  0.00  0.00    +0.000 A 
ATOM     26  N   UNL     1      -3.057  13.840  23.203  0.00  0.00    +0.000 N 
ATOM     27  C   UNL     1      -1.953  14.739  23.399  0.00  0.00    +0.000 C 
ENDBRANCH  21  22
ENDBRANCH  20  21
ENDBRANCH   1  20
TORSDOF 3
ENDMDL
