MODEL 1
REMARK VINA RESULT:      -8.0      0.000      0.000
REMARK  Name = 
REMARK  10 active torsions:
REMARK  status: ('A' for Active; 'I' for Inactive)
REMARK    1  A    between atoms: C_1  and  C_2
REMARK    2  A    between atoms: C_2  and  S_3
REMARK    3  A    between atoms: C_2  and  C_10
REMARK    4  A    between atoms: S_3  and  C_4
REMARK    5  A    between atoms: N_8  and  C_9
REMARK    6  A    between atoms: C_14  and  N_15
REMARK    7  A    between atoms: C_16  and  C_18
REMARK    8  A    between atoms: C_21  and  C_22
REMARK    9  A    between atoms: C_22  and  O_23
REMARK   10  A    between atoms: C_24  and  C_25
REMARK                            x       y       z     vdW  Elec       q    Type
REMARK                         _______ _______ _______ _____ _____    ______ ____
ROOT
ATOM      1  N   UNL     1       1.387   7.706  21.244  0.00  0.00    +0.000 N 
ATOM      2  C   UNL     1       1.920   7.386  20.003  0.00  0.00    +0.000 C 
ATOM      3  O   UNL     1       1.963   8.110  19.013  0.00  0.00    +0.000 OA
ATOM      4  H   UNL     1       1.521   7.000  21.963  0.00  0.00    +0.000 HD
ENDROOT
BRANCH   1   9
ATOM      5  C   UNL     1       0.157  11.228  20.980  0.00  0.00    +0.000 A 
ATOM      6  C   UNL     1      -0.528  11.341  22.200  0.00  0.00    +0.000 A 
ATOM      7  C   UNL     1      -0.545  10.293  23.114  0.00  0.00    +0.000 A 
ATOM      8  C   UNL     1       0.095   9.095  22.814  0.00  0.00    +0.000 A 
ATOM      9  C   UNL     1       0.760   8.921  21.600  0.00  0.00    +0.000 A 
ATOM     10  C   UNL     1       0.808  10.000  20.700  0.00  0.00    +0.000 A 
BRANCH   5  12
ATOM     11  C   UNL     1       0.984  13.619  20.500  0.00  0.00    +0.000 C 
ATOM     12  C   UNL     1       0.222  12.388  19.977  0.00  0.00    +0.000 C 
BRANCH  12  13
ATOM     13  S   UNL     1      -1.485  12.884  19.490  0.00  0.00    +0.000 S 
BRANCH  13  14
ATOM     14  C   UNL     1      -1.984  11.558  18.505  0.00  0.00    +0.000 A 
ATOM     15  N   UNL     1      -1.222  10.721  17.839  0.00  0.00    +0.000 NA
ATOM     16  N   UNL     1      -2.047   9.870  17.136  0.00  0.00    +0.000 NA
ATOM     17  C   UNL     1      -3.289  10.204  17.409  0.00  0.00    +0.000 A 
ATOM     18  N   UNL     1      -3.297  11.252  18.278  0.00  0.00    +0.000 N 
ATOM     19  C   UNL     1      -4.464  11.901  18.814  0.00  0.00    +0.000 C 
ENDBRANCH  13  14
ENDBRANCH  12  13
ENDBRANCH   5  12
ENDBRANCH   1   9
BRANCH   2  20
ATOM     20  C   UNL     1       2.518   6.016  19.907  0.00  0.00    +0.000 A 
ATOM     21  C   UNL     1       2.017   5.010  20.719  0.00  0.00    +0.000 A 
ATOM     22  C   UNL     1       2.572   3.745  20.606  0.00  0.00    +0.000 A 
ATOM     23  C   UNL     1       3.616   3.515  19.698  0.00  0.00    +0.000 A 
ATOM     24  C   UNL     1       4.053   4.584  18.886  0.00  0.00    +0.000 A 
ATOM     25  N   UNL     1       3.512   5.832  18.999  0.00  0.00    +0.000 NA
BRANCH  24  26
ATOM     26  C   UNL     1       5.088   4.380  17.796  0.00  0.00    +0.000 C 
ATOM     27  C   UNL     1       4.667   4.147  16.362  0.00  0.00    +0.000 C 
ATOM     28  C   UNL     1       5.314   5.443  16.745  0.00  0.00    +0.000 C 
ENDBRANCH  24  26
BRANCH  23  29
ATOM     29  C   UNL     1       4.168   2.122  19.531  0.00  0.00    +0.000 C 
BRANCH  29  30
ATOM     30  O   UNL     1       5.227   1.856  20.445  0.00  0.00    +0.000 OA
ATOM     31  H   UNL     1       5.819   2.628  20.428  0.00  0.00    +0.000 HD
ENDBRANCH  29  30
ENDBRANCH  23  29
ENDBRANCH   2  20
TORSDOF 8
ENDMDL
MODEL 2
REMARK VINA RESULT:      -7.9      3.752      9.182
REMARK  Name = 
REMARK  10 active torsions:
REMARK  status: ('A' for Active; 'I' for Inactive)
REMARK    1  A    between atoms: C_1  and  C_2
REMARK    2  A    between atoms: C_2  and  S_3
REMARK    3  A    between atoms: C_2  and  C_10
REMARK    4  A    between atoms: S_3  and  C_4
REMARK    5  A    between atoms: N_8  and  C_9
REMARK    6  A    between atoms: C_14  and  N_15
REMARK    7  A    between atoms: C_16  and  C_18
REMARK    8  A    between atoms: C_21  and  C_22
REMARK    9  A    between atoms: C_22  and  O_23
REMARK   10  A    between atoms: C_24  and  C_25
REMARK                            x       y       z     vdW  Elec       q    Type
REMARK                         _______ _______ _______ _____ _____    ______ ____
ROOT
ATOM      1  N   UNL     1       2.140   6.917  20.156  0.00  0.00    +0.000 N 
ATOM      2  C   UNL     1       1.831   8.140  19.577  0.00  0.00    +0.000 C 
ATOM      3  O   UNL     1       2.111   8.504  18.439  0.00  0.00    +0.000 OA
ATOM      4  H   UNL     1       1.748   6.770  21.083  0.00  0.00    +0.000 HD
ENDROOT
BRANCH   1   9
ATOM      5  C   UNL     1       4.530   5.150  17.885  0.00  0.00    +0.000 A 
ATOM      6  C   UNL     1       4.400   3.837  18.365  0.00  0.00    +0.000 A 
ATOM      7  C   UNL     1       3.507   3.531  19.386  0.00  0.00    +0.000 A 
ATOM      8  C   UNL     1       2.746   4.537  19.974  0.00  0.00    +0.000 A 
ATOM      9  C   UNL     1       2.865   5.863  19.556  0.00  0.00    +0.000 A 
ATOM     10  C   UNL     1       3.739   6.157  18.495  0.00  0.00    +0.000 A 
BRANCH   5  12
ATOM     11  C   UNL     1       4.972   6.645  15.836  0.00  0.00    +0.000 C 
ATOM     12  C   UNL     1       5.480   5.501  16.732  0.00  0.00    +0.000 C 
BRANCH  12  13
ATOM     13  S   UNL     1       5.786   4.005  15.702  0.00  0.00    +0.000 S 
BRANCH  13  14
ATOM     14  C   UNL     1       6.824   4.617  14.467  0.00  0.00    +0.000 A 
ATOM     15  N   UNL     1       7.808   5.477  14.599  0.00  0.00    +0.000 NA
ATOM     16  N   UNL     1       8.315   5.732  13.343  0.00  0.00    +0.000 NA
ATOM     17  C   UNL     1       7.634   5.005  12.484  0.00  0.00    +0.000 A 
ATOM     18  N   UNL     1       6.695   4.277  13.150  0.00  0.00    +0.000 N 
ATOM     19  C   UNL     1       5.757   3.360  12.558  0.00  0.00    +0.000 C 
ENDBRANCH  13  14
ENDBRANCH  12  13
ENDBRANCH   5  12
ENDBRANCH   1   9
BRANCH   2  20
ATOM     20  C   UNL     1       1.055   9.074  20.452  0.00  0.00    +0.000 A 
ATOM     21  C   UNL     1       0.964   8.800  21.808  0.00  0.00    +0.000 A 
ATOM     22  C   UNL     1       0.255   9.684  22.605  0.00  0.00    +0.000 A 
ATOM     23  C   UNL     1      -0.354  10.811  22.033  0.00  0.00    +0.000 A 
ATOM     24  C   UNL     1      -0.192  11.038  20.650  0.00  0.00    +0.000 A 
ATOM     25  N   UNL     1       0.500  10.166  19.861  0.00  0.00    +0.000 NA
BRANCH  24  26
ATOM     26  C   UNL     1      -0.714  12.298  19.987  0.00  0.00    +0.000 C 
ATOM     27  C   UNL     1      -0.985  12.335  18.499  0.00  0.00    +0.000 C 
ATOM     28  C   UNL     1      -2.132  12.358  19.463  0.00  0.00    +0.000 C 
ENDBRANCH  24  26
BRANCH  23  29
ATOM     29  C   UNL     1      -1.065  11.805  22.918  0.00  0.00    +0.000 C 
BRANCH  29  30
ATOM     30  O   UNL     1      -2.332  11.320  23.352  0.00  0.00    +0.000 OA
ATOM     31  H   UNL     1      -2.258  11.144  24.306  0.00  0.00    +0.000 HD
ENDBRANCH  29  30
ENDBRANCH  23  29
ENDBRANCH   2  20
TORSDOF 8
ENDMDL
MODEL 3
REMARK VINA RESULT:      -7.9      1.981      2.676
REMARK  Name = 
REMARK  10 active torsions:
REMARK  status: ('A' for Active; 'I' for Inactive)
REMARK    1  A    between atoms: C_1  and  C_2
REMARK    2  A    between atoms: C_2  and  S_3
REMARK    3  A    between atoms: C_2  and  C_10
REMARK    4  A    between atoms: S_3  and  C_4
REMARK    5  A    between atoms: N_8  and  C_9
REMARK    6  A    between atoms: C_14  and  N_15
REMARK    7  A    between atoms: C_16  and  C_18
REMARK    8  A    between atoms: C_21  and  C_22
REMARK    9  A    between atoms: C_22  and  O_23
REMARK   10  A    between atoms: C_24  and  C_25
REMARK                            x       y       z     vdW  Elec       q    Type
REMARK                         _______ _______ _______ _____ _____    ______ ____
ROOT
ATOM      1  N   UNL     1       2.397   7.546  19.068  0.00  0.00    +0.000 N 
ATOM      2  C   UNL     1       2.737   6.243  19.406  0.00  0.00    +0.000 C 
ATOM      3  O   UNL     1       2.353   5.616  20.388  0.00  0.00    +0.000 OA
ATOM      4  H   UNL     1       2.752   7.861  18.168  0.00  0.00    +0.000 HD
ENDROOT
BRANCH   1   9
ATOM      5  C   UNL     1       0.224  10.482  19.874  0.00  0.00    +0.000 A 
ATOM      6  C   UNL     1      -0.153  10.155  21.186  0.00  0.00    +0.000 A 
ATOM      7  C   UNL     1       0.337   9.014  21.811  0.00  0.00    +0.000 A 
ATOM      8  C   UNL     1       1.190   8.153  21.126  0.00  0.00    +0.000 A 
ATOM      9  C   UNL     1       1.566   8.416  19.808  0.00  0.00    +0.000 A 
ATOM     10  C   UNL     1       1.100   9.594  19.199  0.00  0.00    +0.000 A 
BRANCH   5  12
ATOM     11  C   UNL     1       0.513  13.022  19.573  0.00  0.00    +0.000 C 
ATOM     12  C   UNL     1      -0.273  11.757  19.182  0.00  0.00    +0.000 C 
BRANCH  12  13
ATOM     13  S   UNL     1      -2.061  12.008  19.550  0.00  0.00    +0.000 S 
BRANCH  13  14
ATOM     14  C   UNL     1      -2.806  11.570  18.056  0.00  0.00    +0.000 A 
ATOM     15  N   UNL     1      -2.217  11.196  16.944  0.00  0.00    +0.000 NA
ATOM     16  N   UNL     1      -3.195  11.014  15.990  0.00  0.00    +0.000 NA
ATOM     17  C   UNL     1      -4.354  11.266  16.556  0.00  0.00    +0.000 A 
ATOM     18  N   UNL     1      -4.158  11.606  17.860  0.00  0.00    +0.000 N 
ATOM     19  C   UNL     1      -5.183  11.950  18.810  0.00  0.00    +0.000 C 
ENDBRANCH  13  14
ENDBRANCH  12  13
ENDBRANCH   5  12
ENDBRANCH   1   9
BRANCH   2  20
ATOM     20  C   UNL     1       3.646   5.556  18.435  0.00  0.00    +0.000 A 
ATOM     21  C   UNL     1       3.121   4.578  17.604  0.00  0.00    +0.000 A 
ATOM     22  C   UNL     1       3.974   3.964  16.701  0.00  0.00    +0.000 A 
ATOM     23  C   UNL     1       5.327   4.330  16.653  0.00  0.00    +0.000 A 
ATOM     24  C   UNL     1       5.781   5.355  17.511  0.00  0.00    +0.000 A 
ATOM     25  N   UNL     1       4.945   5.956  18.406  0.00  0.00    +0.000 NA
BRANCH  24  26
ATOM     26  C   UNL     1       7.198   5.888  17.428  0.00  0.00    +0.000 C 
ATOM     27  C   UNL     1       7.471   7.374  17.514  0.00  0.00    +0.000 C 
ATOM     28  C   UNL     1       7.868   6.479  18.649  0.00  0.00    +0.000 C 
ENDBRANCH  24  26
BRANCH  23  29
ATOM     29  C   UNL     1       6.234   3.706  15.621  0.00  0.00    +0.000 C 
BRANCH  29  30
ATOM     30  O   UNL     1       5.953   4.183  14.309  0.00  0.00    +0.000 OA
ATOM     31  H   UNL     1       6.783   4.130  13.803  0.00  0.00    +0.000 HD
ENDBRANCH  29  30
ENDBRANCH  23  29
ENDBRANCH   2  20
TORSDOF 8
ENDMDL
MODEL 4
REMARK VINA RESULT:      -7.7      2.393      3.620
REMARK  Name = 
REMARK  10 active torsions:
REMARK  status: ('A' for Active; 'I' for Inactive)
REMARK    1  A    between atoms: C_1  and  C_2
REMARK    2  A    between atoms: C_2  and  S_3
REMARK    3  A    between atoms: C_2  and  C_10
REMARK    4  A    between atoms: S_3  and  C_4
REMARK    5  A    between atoms: N_8  and  C_9
REMARK    6  A    between atoms: C_14  and  N_15
REMARK    7  A    between atoms: C_16  and  C_18
REMARK    8  A    between atoms: C_21  and  C_22
REMARK    9  A    between atoms: C_22  and  O_23
REMARK   10  A    between atoms: C_24  and  C_25
REMARK                            x       y       z     vdW  Elec       q    Type
REMARK                         _______ _______ _______ _____ _____    ______ ____
ROOT
ATOM      1  N   UNL     1       1.190   7.704  21.178  0.00  0.00    +0.000 N 
ATOM      2  C   UNL     1       1.879   7.451  20.000  0.00  0.00    +0.000 C 
ATOM      3  O   UNL     1       2.089   8.244  19.088  0.00  0.00    +0.000 OA
ATOM      4  H   UNL     1       1.194   6.940  21.850  0.00  0.00    +0.000 HD
ENDROOT
BRANCH   1   9
ATOM      5  C   UNL     1      -0.108  11.201  20.904  0.00  0.00    +0.000 A 
ATOM      6  C   UNL     1      -0.717  11.337  22.162  0.00  0.00    +0.000 A 
ATOM      7  C   UNL     1      -0.660  10.313  23.101  0.00  0.00    +0.000 A 
ATOM      8  C   UNL     1      -0.021   9.116  22.792  0.00  0.00    +0.000 A 
ATOM      9  C   UNL     1       0.568   8.919  21.543  0.00  0.00    +0.000 A 
ATOM     10  C   UNL     1       0.543   9.975  20.615  0.00  0.00    +0.000 A 
BRANCH   5  12
ATOM     11  C   UNL     1      -1.176  12.146  18.760  0.00  0.00    +0.000 C 
ATOM     12  C   UNL     1      -0.125  12.334  19.870  0.00  0.00    +0.000 C 
BRANCH  12  13
ATOM     13  S   UNL     1       1.544  12.508  19.110  0.00  0.00    +0.000 S 
BRANCH  13  14
ATOM     14  C   UNL     1       2.377  13.473  20.272  0.00  0.00    +0.000 A 
ATOM     15  N   UNL     1       2.137  13.563  21.560  0.00  0.00    +0.000 NA
ATOM     16  N   UNL     1       2.999  14.504  22.083  0.00  0.00    +0.000 NA
ATOM     17  C   UNL     1       3.750  14.946  21.099  0.00  0.00    +0.000 A 
ATOM     18  N   UNL     1       3.403  14.314  19.943  0.00  0.00    +0.000 N 
ATOM     19  C   UNL     1       3.997  14.525  18.650  0.00  0.00    +0.000 C 
ENDBRANCH  13  14
ENDBRANCH  12  13
ENDBRANCH   5  12
ENDBRANCH   1   9
BRANCH   2  20
ATOM     20  C   UNL     1       2.429   6.064  19.877  0.00  0.00    +0.000 A 
ATOM     21  C   UNL     1       1.846   5.045  20.614  0.00  0.00    +0.000 A 
ATOM     22  C   UNL     1       2.359   3.765  20.475  0.00  0.00    +0.000 A 
ATOM     23  C   UNL     1       3.443   3.533  19.617  0.00  0.00    +0.000 A 
ATOM     24  C   UNL     1       3.965   4.617  18.879  0.00  0.00    +0.000 A 
ATOM     25  N   UNL     1       3.467   5.879  19.018  0.00  0.00    +0.000 NA
BRANCH  24  26
ATOM     26  C   UNL     1       5.053   4.417  17.840  0.00  0.00    +0.000 C 
ATOM     27  C   UNL     1       4.701   4.113  16.401  0.00  0.00    +0.000 C 
ATOM     28  C   UNL     1       5.277   5.450  16.758  0.00  0.00    +0.000 C 
ENDBRANCH  24  26
BRANCH  23  29
ATOM     29  C   UNL     1       3.951   2.126  19.419  0.00  0.00    +0.000 C 
BRANCH  29  30
ATOM     30  O   UNL     1       3.133   1.386  18.520  0.00  0.00    +0.000 OA
ATOM     31  H   UNL     1       2.612   2.032  18.010  0.00  0.00    +0.000 HD
ENDBRANCH  29  30
ENDBRANCH  23  29
ENDBRANCH   2  20
TORSDOF 8
ENDMDL
MODEL 5
REMARK VINA RESULT:      -7.7      2.707      4.148
REMARK  Name = 
REMARK  10 active torsions:
REMARK  status: ('A' for Active; 'I' for Inactive)
REMARK    1  A    between atoms: C_1  and  C_2
REMARK    2  A    between atoms: C_2  and  S_3
REMARK    3  A    between atoms: C_2  and  C_10
REMARK    4  A    between atoms: S_3  and  C_4
REMARK    5  A    between atoms: N_8  and  C_9
REMARK    6  A    between atoms: C_14  and  N_15
REMARK    7  A    between atoms: C_16  and  C_18
REMARK    8  A    between atoms: C_21  and  C_22
REMARK    9  A    between atoms: C_22  and  O_23
REMARK   10  A    between atoms: C_24  and  C_25
REMARK                            x       y       z     vdW  Elec       q    Type
REMARK                         _______ _______ _______ _____ _____    ______ ____
ROOT
ATOM      1  N   UNL     1       0.858   8.826  18.933  0.00  0.00    +0.000 N 
ATOM      2  C   UNL     1       1.970   8.791  18.103  0.00  0.00    +0.000 C 
ATOM      3  O   UNL     1       2.398   9.710  17.411  0.00  0.00    +0.000 OA
ATOM      4  H   UNL     1       0.713   7.988  19.490  0.00  0.00    +0.000 HD
ENDROOT
BRANCH   1   9
ATOM      5  C   UNL     1      -0.887  11.676  20.612  0.00  0.00    +0.000 A 
ATOM      6  C   UNL     1      -1.669  12.148  19.546  0.00  0.00    +0.000 A 
ATOM      7  C   UNL     1      -1.658  11.510  18.310  0.00  0.00    +0.000 A 
ATOM      8  C   UNL     1      -0.838  10.405  18.102  0.00  0.00    +0.000 A 
ATOM      9  C   UNL     1      -0.016   9.920  19.119  0.00  0.00    +0.000 A 
ATOM     10  C   UNL     1      -0.066  10.545  20.378  0.00  0.00    +0.000 A 
BRANCH   5  12
ATOM     11  C   UNL     1      -1.406  11.411  23.120  0.00  0.00    +0.000 C 
ATOM     12  C   UNL     1      -0.917  12.341  21.995  0.00  0.00    +0.000 C 
BRANCH  12  13
ATOM     13  S   UNL     1      -1.979  13.846  21.938  0.00  0.00    +0.000 S 
BRANCH  13  14
ATOM     14  C   UNL     1      -3.464  13.270  22.603  0.00  0.00    +0.000 A 
ATOM     15  N   UNL     1      -4.360  12.505  22.023  0.00  0.00    +0.000 NA
ATOM     16  N   UNL     1      -5.415  12.357  22.897  0.00  0.00    +0.000 NA
ATOM     17  C   UNL     1      -5.122  13.024  23.992  0.00  0.00    +0.000 A 
ATOM     18  N   UNL     1      -3.897  13.602  23.856  0.00  0.00    +0.000 N 
ATOM     19  C   UNL     1      -3.228  14.412  24.839  0.00  0.00    +0.000 C 
ENDBRANCH  13  14
ENDBRANCH  12  13
ENDBRANCH   5  12
ENDBRANCH   1   9
BRANCH   2  20
ATOM     20  C   UNL     1       2.712   7.491  18.096  0.00  0.00    +0.000 A 
ATOM     21  C   UNL     1       3.949   7.430  17.474  0.00  0.00    +0.000 A 
ATOM     22  C   UNL     1       4.628   6.222  17.492  0.00  0.00    +0.000 A 
ATOM     23  C   UNL     1       4.057   5.104  18.117  0.00  0.00    +0.000 A 
ATOM     24  C   UNL     1       2.806   5.253  18.754  0.00  0.00    +0.000 A 
ATOM     25  N   UNL     1       2.132   6.439  18.733  0.00  0.00    +0.000 NA
BRANCH  24  26
ATOM     26  C   UNL     1       2.186   4.124  19.556  0.00  0.00    +0.000 C 
ATOM     27  C   UNL     1       2.360   4.056  21.057  0.00  0.00    +0.000 C 
ATOM     28  C   UNL     1       1.018   4.391  20.479  0.00  0.00    +0.000 C 
ENDBRANCH  24  26
BRANCH  23  29
ATOM     29  C   UNL     1       4.832   3.813  18.192  0.00  0.00    +0.000 C 
BRANCH  29  30
ATOM     30  O   UNL     1       6.207   4.033  18.487  0.00  0.00    +0.000 OA
ATOM     31  H   UNL     1       6.314   4.986  18.654  0.00  0.00    +0.000 HD
ENDBRANCH  29  30
ENDBRANCH  23  29
ENDBRANCH   2  20
TORSDOF 8
ENDMDL
MODEL 6
REMARK VINA RESULT:      -7.7      1.725      2.632
REMARK  Name = 
REMARK  10 active torsions:
REMARK  status: ('A' for Active; 'I' for Inactive)
REMARK    1  A    between atoms: C_1  and  C_2
REMARK    2  A    between atoms: C_2  and  S_3
REMARK    3  A    between atoms: C_2  and  C_10
REMARK    4  A    between atoms: S_3  and  C_4
REMARK    5  A    between atoms: N_8  and  C_9
REMARK    6  A    between atoms: C_14  and  N_15
REMARK    7  A    between atoms: C_16  and  C_18
REMARK    8  A    between atoms: C_21  and  C_22
REMARK    9  A    between atoms: C_22  and  O_23
REMARK   10  A    between atoms: C_24  and  C_25
REMARK                            x       y       z     vdW  Elec       q    Type
REMARK                         _______ _______ _______ _____ _____    ______ ____
ROOT
ATOM      1  N   UNL     1       2.310   7.721  19.357  0.00  0.00    +0.000 N 
ATOM      2  C   UNL     1       2.702   7.894  18.037  0.00  0.00    +0.000 C 
ATOM      3  O   UNL     1       2.350   8.792  17.278  0.00  0.00    +0.000 OA
ATOM      4  H   UNL     1       2.777   6.962  19.847  0.00  0.00    +0.000 HD
ENDROOT
BRANCH   1   9
ATOM      5  C   UNL     1       0.030  10.576  20.159  0.00  0.00    +0.000 A 
ATOM      6  C   UNL     1      -0.462  10.155  21.405  0.00  0.00    +0.000 A 
ATOM      7  C   UNL     1      -0.016   8.976  21.992  0.00  0.00    +0.000 A 
ATOM      8  C   UNL     1       0.909   8.172  21.331  0.00  0.00    +0.000 A 
ATOM      9  C   UNL     1       1.401   8.530  20.075  0.00  0.00    +0.000 A 
ATOM     10  C   UNL     1       0.977   9.745  19.509  0.00  0.00    +0.000 A 
BRANCH   5  12
ATOM     11  C   UNL     1       0.209  13.144  20.156  0.00  0.00    +0.000 C 
ATOM     12  C   UNL     1      -0.419  11.893  19.515  0.00  0.00    +0.000 C 
BRANCH  12  13
ATOM     13  S   UNL     1      -2.256  12.025  19.585  0.00  0.00    +0.000 S 
BRANCH  13  14
ATOM     14  C   UNL     1      -2.722  11.487  18.013  0.00  0.00    +0.000 A 
ATOM     15  N   UNL     1      -1.947  11.011  17.065  0.00  0.00    +0.000 NA
ATOM     16  N   UNL     1      -2.734  10.776  15.958  0.00  0.00    +0.000 NA
ATOM     17  C   UNL     1      -3.969  11.100  16.271  0.00  0.00    +0.000 A 
ATOM     18  N   UNL     1      -4.010  11.539  17.560  0.00  0.00    +0.000 N 
ATOM     19  C   UNL     1      -5.182  11.982  18.268  0.00  0.00    +0.000 C 
ENDBRANCH  13  14
ENDBRANCH  12  13
ENDBRANCH   5  12
ENDBRANCH   1   9
BRANCH   2  20
ATOM     20  C   UNL     1       3.675   6.875  17.529  0.00  0.00    +0.000 A 
ATOM     21  C   UNL     1       4.875   7.309  16.987  0.00  0.00    +0.000 A 
ATOM     22  C   UNL     1       5.770   6.352  16.537  0.00  0.00    +0.000 A 
ATOM     23  C   UNL     1       5.446   4.990  16.628  0.00  0.00    +0.000 A 
ATOM     24  C   UNL     1       4.217   4.626  17.218  0.00  0.00    +0.000 A 
ATOM     25  N   UNL     1       3.331   5.566  17.656  0.00  0.00    +0.000 NA
BRANCH  24  26
ATOM     26  C   UNL     1       3.855   3.174  17.463  0.00  0.00    +0.000 C 
ATOM     27  C   UNL     1       3.610   2.664  18.866  0.00  0.00    +0.000 C 
ATOM     28  C   UNL     1       2.461   2.796  17.913  0.00  0.00    +0.000 C 
ENDBRANCH  24  26
BRANCH  23  29
ATOM     29  C   UNL     1       6.454   3.953  16.199  0.00  0.00    +0.000 C 
BRANCH  29  30
ATOM     30  O   UNL     1       7.700   4.112  16.869  0.00  0.00    +0.000 OA
ATOM     31  H   UNL     1       7.699   5.002  17.264  0.00  0.00    +0.000 HD
ENDBRANCH  29  30
ENDBRANCH  23  29
ENDBRANCH   2  20
TORSDOF 8
ENDMDL
MODEL 7
REMARK VINA RESULT:      -7.7      2.495      4.144
REMARK  Name = 
REMARK  10 active torsions:
REMARK  status: ('A' for Active; 'I' for Inactive)
REMARK    1  A    between atoms: C_1  and  C_2
REMARK    2  A    between atoms: C_2  and  S_3
REMARK    3  A    between atoms: C_2  and  C_10
REMARK    4  A    between atoms: S_3  and  C_4
REMARK    5  A    between atoms: N_8  and  C_9
REMARK    6  A    between atoms: C_14  and  N_15
REMARK    7  A    between atoms: C_16  and  C_18
REMARK    8  A    between atoms: C_21  and  C_22
REMARK    9  A    between atoms: C_22  and  O_23
REMARK   10  A    between atoms: C_24  and  C_25
REMARK                            x       y       z     vdW  Elec       q    Type
REMARK                         _______ _______ _______ _____ _____    ______ ____
ROOT
ATOM      1  N   UNL     1       0.898   8.837  19.050  0.00  0.00    +0.000 N 
ATOM      2  C   UNL     1       1.940   8.793  18.135  0.00  0.00    +0.000 C 
ATOM      3  O   UNL     1       2.316   9.707  17.407  0.00  0.00    +0.000 OA
ATOM      4  H   UNL     1       0.794   8.002  19.621  0.00  0.00    +0.000 HD
ENDROOT
BRANCH   1   9
ATOM      5  C   UNL     1      -0.682  11.718  20.837  0.00  0.00    +0.000 A 
ATOM      6  C   UNL     1      -1.561  12.173  19.841  0.00  0.00    +0.000 A 
ATOM      7  C   UNL     1      -1.665  11.515  18.620  0.00  0.00    +0.000 A 
ATOM      8  C   UNL     1      -0.869  10.405  18.354  0.00  0.00    +0.000 A 
ATOM      9  C   UNL     1       0.045   9.935  19.299  0.00  0.00    +0.000 A 
ATOM     10  C   UNL     1       0.113  10.581  20.546  0.00  0.00    +0.000 A 
BRANCH   5  12
ATOM     11  C   UNL     1      -1.836  12.230  23.081  0.00  0.00    +0.000 C 
ATOM     12  C   UNL     1      -0.582  12.406  22.204  0.00  0.00    +0.000 C 
BRANCH  12  13
ATOM     13  S   UNL     1      -0.244  14.202  21.973  0.00  0.00    +0.000 S 
BRANCH  13  14
ATOM     14  C   UNL     1       1.265  14.186  21.136  0.00  0.00    +0.000 A 
ATOM     15  N   UNL     1       2.429  13.780  21.587  0.00  0.00    +0.000 NA
ATOM     16  N   UNL     1       3.366  14.014  20.604  0.00  0.00    +0.000 NA
ATOM     17  C   UNL     1       2.740  14.540  19.574  0.00  0.00    +0.000 A 
ATOM     18  N   UNL     1       1.413  14.652  19.860  0.00  0.00    +0.000 N 
ATOM     19  C   UNL     1       0.400  15.181  18.985  0.00  0.00    +0.000 C 
ENDBRANCH  13  14
ENDBRANCH  12  13
ENDBRANCH   5  12
ENDBRANCH   1   9
BRANCH   2  20
ATOM     20  C   UNL     1       2.675   7.489  18.077  0.00  0.00    +0.000 A 
ATOM     21  C   UNL     1       3.896   7.438  17.423  0.00  0.00    +0.000 A 
ATOM     22  C   UNL     1       4.568   6.227  17.393  0.00  0.00    +0.000 A 
ATOM     23  C   UNL     1       4.006   5.097  18.004  0.00  0.00    +0.000 A 
ATOM     24  C   UNL     1       2.772   5.235  18.675  0.00  0.00    +0.000 A 
ATOM     25  N   UNL     1       2.105   6.424  18.701  0.00  0.00    +0.000 NA
BRANCH  24  26
ATOM     26  C   UNL     1       2.166   4.089  19.463  0.00  0.00    +0.000 C 
ATOM     27  C   UNL     1       2.420   3.953  20.948  0.00  0.00    +0.000 C 
ATOM     28  C   UNL     1       1.059   4.346  20.460  0.00  0.00    +0.000 C 
ENDBRANCH  24  26
BRANCH  23  29
ATOM     29  C   UNL     1       4.775   3.799  18.026  0.00  0.00    +0.000 C 
BRANCH  29  30
ATOM     30  O   UNL     1       5.656   3.722  19.142  0.00  0.00    +0.000 OA
ATOM     31  H   UNL     1       5.270   4.269  19.849  0.00  0.00    +0.000 HD
ENDBRANCH  29  30
ENDBRANCH  23  29
ENDBRANCH   2  20
TORSDOF 8
ENDMDL
MODEL 8
REMARK VINA RESULT:      -7.7      2.084      3.185
REMARK  Name = 
REMARK  10 active torsions:
REMARK  status: ('A' for Active; 'I' for Inactive)
REMARK    1  A    between atoms: C_1  and  C_2
REMARK    2  A    between atoms: C_2  and  S_3
REMARK    3  A    between atoms: C_2  and  C_10
REMARK    4  A    between atoms: S_3  and  C_4
REMARK    5  A    between atoms: N_8  and  C_9
REMARK    6  A    between atoms: C_14  and  N_15
REMARK    7  A    between atoms: C_16  and  C_18
REMARK    8  A    between atoms: C_21  and  C_22
REMARK    9  A    between atoms: C_22  and  O_23
REMARK   10  A    between atoms: C_24  and  C_25
REMARK                            x       y       z     vdW  Elec       q    Type
REMARK                         _______ _______ _______ _____ _____    ______ ____
ROOT
ATOM      1  N   UNL     1       1.128   7.800  21.127  0.00  0.00    +0.000 N 
ATOM      2  C   UNL     1       1.858   7.566  19.970  0.00  0.00    +0.000 C 
ATOM      3  O   UNL     1       2.077   8.366  19.066  0.00  0.00    +0.000 OA
ATOM      4  H   UNL     1       1.130   7.035  21.797  0.00  0.00    +0.000 HD
ENDROOT
BRANCH   1   9
ATOM      5  C   UNL     1      -0.407  11.191  20.765  0.00  0.00    +0.000 A 
ATOM      6  C   UNL     1      -0.906  11.375  22.064  0.00  0.00    +0.000 A 
ATOM      7  C   UNL     1      -0.699  10.421  23.055  0.00  0.00    +0.000 A 
ATOM      8  C   UNL     1      -0.017   9.244  22.760  0.00  0.00    +0.000 A 
ATOM      9  C   UNL     1       0.467   8.999  21.474  0.00  0.00    +0.000 A 
ATOM     10  C   UNL     1       0.290   9.988  20.490  0.00  0.00    +0.000 A 
BRANCH   5  12
ATOM     11  C   UNL     1      -1.643  11.874  18.611  0.00  0.00    +0.000 C 
ATOM     12  C   UNL     1      -0.590  12.250  19.670  0.00  0.00    +0.000 C 
BRANCH  12  13
ATOM     13  S   UNL     1       1.024  12.573  18.841  0.00  0.00    +0.000 S 
BRANCH  13  14
ATOM     14  C   UNL     1       1.067  14.297  18.783  0.00  0.00    +0.000 A 
ATOM     15  N   UNL     1       0.060  15.130  18.915  0.00  0.00    +0.000 NA
ATOM     16  N   UNL     1       0.543  16.407  18.727  0.00  0.00    +0.000 NA
ATOM     17  C   UNL     1       1.836  16.314  18.503  0.00  0.00    +0.000 A 
ATOM     18  N   UNL     1       2.211  15.005  18.543  0.00  0.00    +0.000 N 
ATOM     19  C   UNL     1       3.543  14.499  18.347  0.00  0.00    +0.000 C 
ENDBRANCH  13  14
ENDBRANCH  12  13
ENDBRANCH   5  12
ENDBRANCH   1   9
BRANCH   2  20
ATOM     20  C   UNL     1       2.445   6.192  19.862  0.00  0.00    +0.000 A 
ATOM     21  C   UNL     1       1.916   5.176  20.640  0.00  0.00    +0.000 A 
ATOM     22  C   UNL     1       2.461   3.908  20.516  0.00  0.00    +0.000 A 
ATOM     23  C   UNL     1       3.524   3.685  19.628  0.00  0.00    +0.000 A 
ATOM     24  C   UNL     1       3.990   4.765  18.848  0.00  0.00    +0.000 A 
ATOM     25  N   UNL     1       3.459   6.016  18.973  0.00  0.00    +0.000 NA
BRANCH  24  26
ATOM     26  C   UNL     1       5.049   4.572  17.779  0.00  0.00    +0.000 C 
ATOM     27  C   UNL     1       4.664   4.176  16.371  0.00  0.00    +0.000 C 
ATOM     28  C   UNL     1       5.177   5.558  16.640  0.00  0.00    +0.000 C 
ENDBRANCH  24  26
BRANCH  23  29
ATOM     29  C   UNL     1       4.066   2.289  19.447  0.00  0.00    +0.000 C 
BRANCH  29  30
ATOM     30  O   UNL     1       5.200   2.048  20.272  0.00  0.00    +0.000 OA
ATOM     31  H   UNL     1       4.893   2.076  21.195  0.00  0.00    +0.000 HD
ENDBRANCH  29  30
ENDBRANCH  23  29
ENDBRANCH   2  20
TORSDOF 8
ENDMDL
MODEL 9
REMARK VINA RESULT:      -7.6      2.448      4.095
REMARK  Name = 
REMARK  10 active torsions:
REMARK  status: ('A' for Active; 'I' for Inactive)
REMARK    1  A    between atoms: C_1  and  C_2
REMARK    2  A    between atoms: C_2  and  S_3
REMARK    3  A    between atoms: C_2  and  C_10
REMARK    4  A    between atoms: S_3  and  C_4
REMARK    5  A    between atoms: N_8  and  C_9
REMARK    6  A    between atoms: C_14  and  N_15
REMARK    7  A    between atoms: C_16  and  C_18
REMARK    8  A    between atoms: C_21  and  C_22
REMARK    9  A    between atoms: C_22  and  O_23
REMARK   10  A    between atoms: C_24  and  C_25
REMARK                            x       y       z     vdW  Elec       q    Type
REMARK                         _______ _______ _______ _____ _____    ______ ____
ROOT
ATOM      1  N   UNL     1       1.510   9.372  18.648  0.00  0.00    +0.000 N 
ATOM      2  C   UNL     1       1.674   8.392  19.616  0.00  0.00    +0.000 C 
ATOM      3  O   UNL     1       1.281   8.434  20.778  0.00  0.00    +0.000 OA
ATOM      4  H   UNL     1       1.833   9.116  17.718  0.00  0.00    +0.000 HD
ENDROOT
BRANCH   1   9
ATOM      5  C   UNL     1      -1.171  11.894  19.316  0.00  0.00    +0.000 A 
ATOM      6  C   UNL     1      -0.416  13.076  19.257  0.00  0.00    +0.000 A 
ATOM      7  C   UNL     1       0.942  13.048  18.956  0.00  0.00    +0.000 A 
ATOM      8  C   UNL     1       1.583  11.832  18.740  0.00  0.00    +0.000 A 
ATOM      9  C   UNL     1       0.884  10.627  18.822  0.00  0.00    +0.000 A 
ATOM     10  C   UNL     1      -0.496  10.669  19.084  0.00  0.00    +0.000 A 
BRANCH   5  12
ATOM     11  C   UNL     1      -3.553  11.727  18.352  0.00  0.00    +0.000 C 
ATOM     12  C   UNL     1      -2.677  11.909  19.606  0.00  0.00    +0.000 C 
BRANCH  12  13
ATOM     13  S   UNL     1      -3.133  13.482  20.449  0.00  0.00    +0.000 S 
BRANCH  13  14
ATOM     14  C   UNL     1      -3.679  12.927  21.989  0.00  0.00    +0.000 A 
ATOM     15  N   UNL     1      -4.891  12.546  22.322  0.00  0.00    +0.000 NA
ATOM     16  N   UNL     1      -4.885  12.254  23.669  0.00  0.00    +0.000 NA
ATOM     17  C   UNL     1      -3.663  12.449  24.113  0.00  0.00    +0.000 A 
ATOM     18  N   UNL     1      -2.867  12.859  23.086  0.00  0.00    +0.000 N 
ATOM     19  C   UNL     1      -1.465  13.173  23.173  0.00  0.00    +0.000 C 
ENDBRANCH  13  14
ENDBRANCH  12  13
ENDBRANCH   5  12
ENDBRANCH   1   9
BRANCH   2  20
ATOM     20  C   UNL     1       2.385   7.159  19.151  0.00  0.00    +0.000 A 
ATOM     21  C   UNL     1       3.184   7.234  18.021  0.00  0.00    +0.000 A 
ATOM     22  C   UNL     1       3.847   6.087  17.614  0.00  0.00    +0.000 A 
ATOM     23  C   UNL     1       3.691   4.894  18.334  0.00  0.00    +0.000 A 
ATOM     24  C   UNL     1       2.882   4.903  19.491  0.00  0.00    +0.000 A 
ATOM     25  N   UNL     1       2.223   6.029  19.890  0.00  0.00    +0.000 NA
BRANCH  24  26
ATOM     26  C   UNL     1       2.767   3.685  20.387  0.00  0.00    +0.000 C 
ATOM     27  C   UNL     1       1.517   3.440  21.203  0.00  0.00    +0.000 C 
ATOM     28  C   UNL     1       1.823   2.558  20.032  0.00  0.00    +0.000 C 
ENDBRANCH  24  26
BRANCH  23  29
ATOM     29  C   UNL     1       4.469   3.668  17.926  0.00  0.00    +0.000 C 
BRANCH  29  30
ATOM     30  O   UNL     1       5.729   3.593  18.586  0.00  0.00    +0.000 OA
ATOM     31  H   UNL     1       5.632   2.953  19.313  0.00  0.00    +0.000 HD
ENDBRANCH  29  30
ENDBRANCH  23  29
ENDBRANCH   2  20
TORSDOF 8
ENDMDL
