MODEL 1
REMARK VINA RESULT:      -8.7      0.000      0.000
REMARK  Name = 
REMARK  7 active torsions:
REMARK  status: ('A' for Active; 'I' for Inactive)
REMARK    1  A    between atoms: C_1  and  C_2
REMARK    2  A    between atoms: C_2  and  S_3
REMARK    3  A    between atoms: C_2  and  C_10
REMARK    4  A    between atoms: S_3  and  C_4
REMARK    5  A    between atoms: N_8  and  C_9
REMARK    6  A    between atoms: C_14  and  N_15
REMARK    7  A    between atoms: N_21  and  C_22
REMARK                            x       y       z     vdW  Elec       q    Type
REMARK                         _______ _______ _______ _____ _____    ______ ____
ROOT
ATOM      1  N   UNL     1       1.944   7.231  19.878  0.00  0.00    +0.000 N 
ATOM      2  C   UNL     1       1.660   8.462  19.339  0.00  0.00    +0.000 C 
ATOM      3  O   UNL     1       1.813   8.749  18.156  0.00  0.00    +0.000 OA
ATOM      4  N   UNL     1       1.125   9.380  20.221  0.00  0.00    +0.000 N 
ATOM      5  C   UNL     1       0.634  10.648  19.673  0.00  0.00    +0.000 C 
ATOM      6  C   UNL     1      -0.777  10.964  20.192  0.00  0.00    +0.000 C 
ATOM      7  N   UNL     1      -0.787  10.922  21.665  0.00  0.00    +0.000 N 
ATOM      8  C   UNL     1      -0.274   9.673  22.259  0.00  0.00    +0.000 C 
ATOM      9  C   UNL     1       1.121   9.336  21.694  0.00  0.00    +0.000 C 
ATOM     10  H   UNL     1       1.471   6.999  20.734  0.00  0.00    +0.000 HD
ENDROOT
BRANCH   1  15
ATOM     11  C   UNL     1       4.289   5.414  17.647  0.00  0.00    +0.000 A 
ATOM     12  C   UNL     1       3.847   4.091  17.824  0.00  0.00    +0.000 A 
ATOM     13  C   UNL     1       2.746   3.805  18.626  0.00  0.00    +0.000 A 
ATOM     14  C   UNL     1       2.085   4.831  19.295  0.00  0.00    +0.000 A 
ATOM     15  C   UNL     1       2.539   6.145  19.198  0.00  0.00    +0.000 A 
ATOM     16  C   UNL     1       3.632   6.428  18.368  0.00  0.00    +0.000 A 
BRANCH  11  18
ATOM     17  C   UNL     1       5.084   6.867  15.678  0.00  0.00    +0.000 C 
ATOM     18  C   UNL     1       5.399   5.705  16.632  0.00  0.00    +0.000 C 
BRANCH  18  19
ATOM     19  S   UNL     1       5.674   4.159  15.664  0.00  0.00    +0.000 S 
BRANCH  19  20
ATOM     20  C   UNL     1       6.767   4.653  14.433  0.00  0.00    +0.000 A 
ATOM     21  N   UNL     1       7.801   5.453  14.541  0.00  0.00    +0.000 NA
ATOM     22  N   UNL     1       8.347   5.595  13.282  0.00  0.00    +0.000 NA
ATOM     23  C   UNL     1       7.636   4.864  12.454  0.00  0.00    +0.000 A 
ATOM     24  N   UNL     1       6.635   4.245  13.139  0.00  0.00    +0.000 N 
ATOM     25  C   UNL     1       5.638   3.367  12.589  0.00  0.00    +0.000 C 
ENDBRANCH  19  20
ENDBRANCH  18  19
ENDBRANCH  11  18
ENDBRANCH   1  15
BRANCH   7  26
ATOM     26  C   UNL     1      -1.285  11.963  22.420  0.00  0.00    +0.000 A 
ATOM     27  C   UNL     1      -2.493  11.867  23.123  0.00  0.00    +0.000 A 
ATOM     28  C   UNL     1      -2.996  12.942  23.856  0.00  0.00    +0.000 A 
ATOM     29  C   UNL     1      -2.269  14.116  23.884  0.00  0.00    +0.000 A 
ATOM     30  N   UNL     1      -1.100  14.275  23.238  0.00  0.00    +0.000 NA
ATOM     31  C   UNL     1      -0.650  13.206  22.531  0.00  0.00    +0.000 A 
ENDBRANCH   7  26
TORSDOF 5
ENDMDL
MODEL 2
REMARK VINA RESULT:      -8.6      2.050      2.932
REMARK  Name = 
REMARK  7 active torsions:
REMARK  status: ('A' for Active; 'I' for Inactive)
REMARK    1  A    between atoms: C_1  and  C_2
REMARK    2  A    between atoms: C_2  and  S_3
REMARK    3  A    between atoms: C_2  and  C_10
REMARK    4  A    between atoms: S_3  and  C_4
REMARK    5  A    between atoms: N_8  and  C_9
REMARK    6  A    between atoms: C_14  and  N_15
REMARK    7  A    between atoms: N_21  and  C_22
REMARK                            x       y       z     vdW  Elec       q    Type
REMARK                         _______ _______ _______ _____ _____    ______ ____
ROOT
ATOM      1  N   UNL     1       1.993   6.802  18.802  0.00  0.00    +0.000 N 
ATOM      2  C   UNL     1       2.009   8.093  18.331  0.00  0.00    +0.000 C 
ATOM      3  O   UNL     1       2.425   8.418  17.224  0.00  0.00    +0.000 OA
ATOM      4  N   UNL     1       1.465   9.035  19.182  0.00  0.00    +0.000 N 
ATOM      5  C   UNL     1       1.289  10.397  18.669  0.00  0.00    +0.000 C 
ATOM      6  C   UNL     1      -0.129  10.915  18.956  0.00  0.00    +0.000 C 
ATOM      7  N   UNL     1      -0.423  10.790  20.395  0.00  0.00    +0.000 N 
ATOM      8  C   UNL     1      -0.230   9.440  20.958  0.00  0.00    +0.000 C 
ATOM      9  C   UNL     1       1.177   8.906  20.622  0.00  0.00    +0.000 C 
ATOM     10  H   UNL     1       1.337   6.604  19.536  0.00  0.00    +0.000 HD
ENDROOT
BRANCH   1  15
ATOM     11  C   UNL     1       4.354   4.780  16.773  0.00  0.00    +0.000 A 
ATOM     12  C   UNL     1       3.738   3.517  16.836  0.00  0.00    +0.000 A 
ATOM     13  C   UNL     1       2.523   3.345  17.492  0.00  0.00    +0.000 A 
ATOM     14  C   UNL     1       1.913   4.424  18.128  0.00  0.00    +0.000 A 
ATOM     15  C   UNL     1       2.531   5.673  18.144  0.00  0.00    +0.000 A 
ATOM     16  C   UNL     1       3.741   5.844  17.460  0.00  0.00    +0.000 A 
BRANCH  11  18
ATOM     17  C   UNL     1       5.674   4.013  14.703  0.00  0.00    +0.000 C 
ATOM     18  C   UNL     1       5.604   4.963  15.907  0.00  0.00    +0.000 C 
BRANCH  18  19
ATOM     19  S   UNL     1       7.068   4.698  16.998  0.00  0.00    +0.000 S 
BRANCH  19  20
ATOM     20  C   UNL     1       7.509   6.293  17.461  0.00  0.00    +0.000 A 
ATOM     21  N   UNL     1       7.488   7.383  16.732  0.00  0.00    +0.000 NA
ATOM     22  N   UNL     1       7.975   8.413  17.512  0.00  0.00    +0.000 NA
ATOM     23  C   UNL     1       8.261   7.916  18.694  0.00  0.00    +0.000 A 
ATOM     24  N   UNL     1       7.974   6.584  18.709  0.00  0.00    +0.000 N 
ATOM     25  C   UNL     1       8.154   5.684  19.815  0.00  0.00    +0.000 C 
ENDBRANCH  19  20
ENDBRANCH  18  19
ENDBRANCH  11  18
ENDBRANCH   1  15
BRANCH   7  26
ATOM     26  C   UNL     1      -0.888  11.854  21.139  0.00  0.00    +0.000 A 
ATOM     27  C   UNL     1      -1.569  12.932  20.559  0.00  0.00    +0.000 A 
ATOM     28  C   UNL     1      -2.004  14.015  21.324  0.00  0.00    +0.000 A 
ATOM     29  C   UNL     1      -1.755  14.002  22.682  0.00  0.00    +0.000 A 
ATOM     30  N   UNL     1      -1.113  12.998  23.305  0.00  0.00    +0.000 NA
ATOM     31  C   UNL     1      -0.701  11.966  22.522  0.00  0.00    +0.000 A 
ENDBRANCH   7  26
TORSDOF 5
ENDMDL
MODEL 3
REMARK VINA RESULT:      -8.4      1.101      1.358
REMARK  Name = 
REMARK  7 active torsions:
REMARK  status: ('A' for Active; 'I' for Inactive)
REMARK    1  A    between atoms: C_1  and  C_2
REMARK    2  A    between atoms: C_2  and  S_3
REMARK    3  A    between atoms: C_2  and  C_10
REMARK    4  A    between atoms: S_3  and  C_4
REMARK    5  A    between atoms: N_8  and  C_9
REMARK    6  A    between atoms: C_14  and  N_15
REMARK    7  A    between atoms: N_21  and  C_22
REMARK                            x       y       z     vdW  Elec       q    Type
REMARK                         _______ _______ _______ _____ _____    ______ ____
ROOT
ATOM      1  N   UNL     1       1.551   7.455  20.867  0.00  0.00    +0.000 N 
ATOM      2  C   UNL     1       1.338   8.680  20.283  0.00  0.00    +0.000 C 
ATOM      3  O   UNL     1       1.595   8.941  19.112  0.00  0.00    +0.000 OA
ATOM      4  N   UNL     1       0.751   9.626  21.100  0.00  0.00    +0.000 N 
ATOM      5  C   UNL     1       0.335  10.892  20.490  0.00  0.00    +0.000 C 
ATOM      6  C   UNL     1      -1.108  11.245  20.883  0.00  0.00    +0.000 C 
ATOM      7  N   UNL     1      -1.241  11.233  22.352  0.00  0.00    +0.000 N 
ATOM      8  C   UNL     1      -0.805   9.987  23.009  0.00  0.00    +0.000 C 
ATOM      9  C   UNL     1       0.624   9.611  22.569  0.00  0.00    +0.000 C 
ATOM     10  H   UNL     1       1.004   7.250  21.684  0.00  0.00    +0.000 HD
ENDROOT
BRANCH   1  15
ATOM     11  C   UNL     1       3.915   5.567  18.715  0.00  0.00    +0.000 A 
ATOM     12  C   UNL     1       3.543   4.244  19.016  0.00  0.00    +0.000 A 
ATOM     13  C   UNL     1       2.481   3.976  19.874  0.00  0.00    +0.000 A 
ATOM     14  C   UNL     1       1.790   5.024  20.479  0.00  0.00    +0.000 A 
ATOM     15  C   UNL     1       2.178   6.345  20.258  0.00  0.00    +0.000 A 
ATOM     16  C   UNL     1       3.231   6.607  19.372  0.00  0.00    +0.000 A 
BRANCH  11  18
ATOM     17  C   UNL     1       4.732   7.086  16.807  0.00  0.00    +0.000 C 
ATOM     18  C   UNL     1       4.980   5.823  17.644  0.00  0.00    +0.000 C 
BRANCH  18  19
ATOM     19  S   UNL     1       5.016   4.342  16.545  0.00  0.00    +0.000 S 
BRANCH  19  20
ATOM     20  C   UNL     1       6.229   4.735  15.392  0.00  0.00    +0.000 A 
ATOM     21  N   UNL     1       7.334   5.415  15.580  0.00  0.00    +0.000 NA
ATOM     22  N   UNL     1       7.969   5.519  14.359  0.00  0.00    +0.000 NA
ATOM     23  C   UNL     1       7.235   4.884  13.473  0.00  0.00    +0.000 A 
ATOM     24  N   UNL     1       6.132   4.367  14.083  0.00  0.00    +0.000 N 
ATOM     25  C   UNL     1       5.082   3.612  13.454  0.00  0.00    +0.000 C 
ENDBRANCH  19  20
ENDBRANCH  18  19
ENDBRANCH  11  18
ENDBRANCH   1  15
BRANCH   7  26
ATOM     26  C   UNL     1      -1.779  12.299  23.043  0.00  0.00    +0.000 A 
ATOM     27  C   UNL     1      -1.069  13.488  23.255  0.00  0.00    +0.000 A 
ATOM     28  C   UNL     1      -1.619  14.543  23.985  0.00  0.00    +0.000 A 
ATOM     29  C   UNL     1      -2.894  14.395  24.494  0.00  0.00    +0.000 A 
ATOM     30  N   UNL     1      -3.633  13.284  24.323  0.00  0.00    +0.000 NA
ATOM     31  C   UNL     1      -3.057  12.279  23.613  0.00  0.00    +0.000 A 
ENDBRANCH   7  26
TORSDOF 5
ENDMDL
MODEL 4
REMARK VINA RESULT:      -8.2      3.508      4.612
REMARK  Name = 
REMARK  7 active torsions:
REMARK  status: ('A' for Active; 'I' for Inactive)
REMARK    1  A    between atoms: C_1  and  C_2
REMARK    2  A    between atoms: C_2  and  S_3
REMARK    3  A    between atoms: C_2  and  C_10
REMARK    4  A    between atoms: S_3  and  C_4
REMARK    5  A    between atoms: N_8  and  C_9
REMARK    6  A    between atoms: C_14  and  N_15
REMARK    7  A    between atoms: N_21  and  C_22
REMARK                            x       y       z     vdW  Elec       q    Type
REMARK                         _______ _______ _______ _____ _____    ______ ____
ROOT
ATOM      1  N   UNL     1       1.741   9.599  19.323  0.00  0.00    +0.000 N 
ATOM      2  C   UNL     1       0.592  10.261  18.961  0.00  0.00    +0.000 C 
ATOM      3  O   UNL     1      -0.516   9.738  18.900  0.00  0.00    +0.000 OA
ATOM      4  N   UNL     1       0.747  11.610  18.708  0.00  0.00    +0.000 N 
ATOM      5  C   UNL     1      -0.464  12.408  18.493  0.00  0.00    +0.000 C 
ATOM      6  C   UNL     1      -0.445  13.681  19.352  0.00  0.00    +0.000 C 
ATOM      7  N   UNL     1       0.800  14.431  19.105  0.00  0.00    +0.000 N 
ATOM      8  C   UNL     1       2.042  13.656  19.283  0.00  0.00    +0.000 C 
ATOM      9  C   UNL     1       1.994  12.354  18.457  0.00  0.00    +0.000 C 
ATOM     10  H   UNL     1       2.491  10.168  19.672  0.00  0.00    +0.000 HD
ENDROOT
BRANCH   1  15
ATOM     11  C   UNL     1       2.652   6.041  18.787  0.00  0.00    +0.000 A 
ATOM     12  C   UNL     1       2.188   5.468  19.985  0.00  0.00    +0.000 A 
ATOM     13  C   UNL     1       1.524   6.237  20.936  0.00  0.00    +0.000 A 
ATOM     14  C   UNL     1       1.342   7.602  20.727  0.00  0.00    +0.000 A 
ATOM     15  C   UNL     1       1.852   8.215  19.584  0.00  0.00    +0.000 A 
ATOM     16  C   UNL     1       2.495   7.429  18.618  0.00  0.00    +0.000 A 
BRANCH  11  18
ATOM     17  C   UNL     1       2.364   3.907  17.381  0.00  0.00    +0.000 C 
ATOM     18  C   UNL     1       3.230   5.134  17.696  0.00  0.00    +0.000 C 
BRANCH  18  19
ATOM     19  S   UNL     1       4.899   4.591  18.264  0.00  0.00    +0.000 S 
BRANCH  19  20
ATOM     20  C   UNL     1       5.919   5.893  17.794  0.00  0.00    +0.000 A 
ATOM     21  N   UNL     1       5.759   6.727  16.795  0.00  0.00    +0.000 NA
ATOM     22  N   UNL     1       6.852   7.569  16.779  0.00  0.00    +0.000 NA
ATOM     23  C   UNL     1       7.632   7.228  17.780  0.00  0.00    +0.000 A 
ATOM     24  N   UNL     1       7.078   6.181  18.453  0.00  0.00    +0.000 N 
ATOM     25  C   UNL     1       7.628   5.515  19.602  0.00  0.00    +0.000 C 
ENDBRANCH  19  20
ENDBRANCH  18  19
ENDBRANCH  11  18
ENDBRANCH   1  15
BRANCH   7  26
ATOM     26  C   UNL     1       0.790  15.770  18.777  0.00  0.00    +0.000 A 
ATOM     27  C   UNL     1      -0.382  16.443  18.411  0.00  0.00    +0.000 A 
ATOM     28  C   UNL     1      -0.366  17.791  18.053  0.00  0.00    +0.000 A 
ATOM     29  C   UNL     1       0.841  18.462  18.073  0.00  0.00    +0.000 A 
ATOM     30  N   UNL     1       2.003  17.880  18.420  0.00  0.00    +0.000 NA
ATOM     31  C   UNL     1       1.943  16.564  18.755  0.00  0.00    +0.000 A 
ENDBRANCH   7  26
TORSDOF 5
ENDMDL
MODEL 5
REMARK VINA RESULT:      -8.2      1.222      1.349
REMARK  Name = 
REMARK  7 active torsions:
REMARK  status: ('A' for Active; 'I' for Inactive)
REMARK    1  A    between atoms: C_1  and  C_2
REMARK    2  A    between atoms: C_2  and  S_3
REMARK    3  A    between atoms: C_2  and  C_10
REMARK    4  A    between atoms: S_3  and  C_4
REMARK    5  A    between atoms: N_8  and  C_9
REMARK    6  A    between atoms: C_14  and  N_15
REMARK    7  A    between atoms: N_21  and  C_22
REMARK                            x       y       z     vdW  Elec       q    Type
REMARK                         _______ _______ _______ _____ _____    ______ ____
ROOT
ATOM      1  N   UNL     1       2.293   6.437  20.490  0.00  0.00    +0.000 N 
ATOM      2  C   UNL     1       2.023   7.523  19.692  0.00  0.00    +0.000 C 
ATOM      3  O   UNL     1       2.220   7.556  18.482  0.00  0.00    +0.000 OA
ATOM      4  N   UNL     1       1.448   8.599  20.339  0.00  0.00    +0.000 N 
ATOM      5  C   UNL     1       0.972   9.716  19.517  0.00  0.00    +0.000 C 
ATOM      6  C   UNL     1      -0.460  10.115  19.905  0.00  0.00    +0.000 C 
ATOM      7  N   UNL     1      -0.527  10.385  21.353  0.00  0.00    +0.000 N 
ATOM      8  C   UNL     1      -0.031   9.297  22.216  0.00  0.00    +0.000 C 
ATOM      9  C   UNL     1       1.387   8.867  21.788  0.00  0.00    +0.000 C 
ATOM     10  H   UNL     1       1.788   6.385  21.357  0.00  0.00    +0.000 HD
ENDROOT
BRANCH   1  15
ATOM     11  C   UNL     1       4.693   4.220  18.729  0.00  0.00    +0.000 A 
ATOM     12  C   UNL     1       4.290   2.962  19.212  0.00  0.00    +0.000 A 
ATOM     13  C   UNL     1       3.197   2.839  20.065  0.00  0.00    +0.000 A 
ATOM     14  C   UNL     1       2.504   3.973  20.481  0.00  0.00    +0.000 A 
ATOM     15  C   UNL     1       2.920   5.241  20.077  0.00  0.00    +0.000 A 
ATOM     16  C   UNL     1       4.005   5.354  19.198  0.00  0.00    +0.000 A 
BRANCH  11  18
ATOM     17  C   UNL     1       7.113   4.895  18.180  0.00  0.00    +0.000 C 
ATOM     18  C   UNL     1       5.794   4.299  17.667  0.00  0.00    +0.000 C 
BRANCH  18  19
ATOM     19  S   UNL     1       5.143   5.324  16.279  0.00  0.00    +0.000 S 
BRANCH  19  20
ATOM     20  C   UNL     1       6.400   5.248  15.109  0.00  0.00    +0.000 A 
ATOM     21  N   UNL     1       7.552   5.875  15.117  0.00  0.00    +0.000 NA
ATOM     22  N   UNL     1       8.211   5.544  13.950  0.00  0.00    +0.000 NA
ATOM     23  C   UNL     1       7.443   4.715  13.280  0.00  0.00    +0.000 A 
ATOM     24  N   UNL     1       6.295   4.494  13.978  0.00  0.00    +0.000 N 
ATOM     25  C   UNL     1       5.198   3.654  13.577  0.00  0.00    +0.000 C 
ENDBRANCH  19  20
ENDBRANCH  18  19
ENDBRANCH  11  18
ENDBRANCH   1  15
BRANCH   7  26
ATOM     26  C   UNL     1      -1.060  11.555  21.852  0.00  0.00    +0.000 A 
ATOM     27  C   UNL     1      -1.864  11.582  22.998  0.00  0.00    +0.000 A 
ATOM     28  C   UNL     1      -2.421  12.771  23.469  0.00  0.00    +0.000 A 
ATOM     29  C   UNL     1      -2.155  13.939  22.781  0.00  0.00    +0.000 A 
ATOM     30  N   UNL     1      -1.388  13.986  21.677  0.00  0.00    +0.000 NA
ATOM     31  C   UNL     1      -0.872  12.804  21.249  0.00  0.00    +0.000 A 
ENDBRANCH   7  26
TORSDOF 5
ENDMDL
MODEL 6
REMARK VINA RESULT:      -8.2      0.738      1.042
REMARK  Name = 
REMARK  7 active torsions:
REMARK  status: ('A' for Active; 'I' for Inactive)
REMARK    1  A    between atoms: C_1  and  C_2
REMARK    2  A    between atoms: C_2  and  S_3
REMARK    3  A    between atoms: C_2  and  C_10
REMARK    4  A    between atoms: S_3  and  C_4
REMARK    5  A    between atoms: N_8  and  C_9
REMARK    6  A    between atoms: C_14  and  N_15
REMARK    7  A    between atoms: N_21  and  C_22
REMARK                            x       y       z     vdW  Elec       q    Type
REMARK                         _______ _______ _______ _____ _____    ______ ____
ROOT
ATOM      1  N   UNL     1       2.027   6.876  19.522  0.00  0.00    +0.000 N 
ATOM      2  C   UNL     1       1.821   8.119  18.974  0.00  0.00    +0.000 C 
ATOM      3  O   UNL     1       1.997   8.389  17.790  0.00  0.00    +0.000 OA
ATOM      4  N   UNL     1       1.340   9.074  19.848  0.00  0.00    +0.000 N 
ATOM      5  C   UNL     1       0.931  10.366  19.290  0.00  0.00    +0.000 C 
ATOM      6  C   UNL     1      -0.461  10.771  19.800  0.00  0.00    +0.000 C 
ATOM      7  N   UNL     1      -0.480  10.740  21.274  0.00  0.00    +0.000 N 
ATOM      8  C   UNL     1      -0.047   9.465  21.878  0.00  0.00    +0.000 C 
ATOM      9  C   UNL     1       1.327   9.039  21.322  0.00  0.00    +0.000 C 
ATOM     10  H   UNL     1       1.537   6.679  20.377  0.00  0.00    +0.000 HD
ENDROOT
BRANCH   1  15
ATOM     11  C   UNL     1       4.457   4.809  17.624  0.00  0.00    +0.000 A 
ATOM     12  C   UNL     1       3.754   3.594  17.537  0.00  0.00    +0.000 A 
ATOM     13  C   UNL     1       2.465   3.473  18.046  0.00  0.00    +0.000 A 
ATOM     14  C   UNL     1       1.863   4.554  18.685  0.00  0.00    +0.000 A 
ATOM     15  C   UNL     1       2.557   5.752  18.851  0.00  0.00    +0.000 A 
ATOM     16  C   UNL     1       3.844   5.873  18.312  0.00  0.00    +0.000 A 
BRANCH  11  18
ATOM     17  C   UNL     1       6.105   6.374  16.420  0.00  0.00    +0.000 C 
ATOM     18  C   UNL     1       5.805   4.951  16.910  0.00  0.00    +0.000 C 
BRANCH  18  19
ATOM     19  S   UNL     1       5.789   3.787  15.479  0.00  0.00    +0.000 S 
BRANCH  19  20
ATOM     20  C   UNL     1       6.858   4.529  14.355  0.00  0.00    +0.000 A 
ATOM     21  N   UNL     1       7.769   5.443  14.587  0.00  0.00    +0.000 NA
ATOM     22  N   UNL     1       8.345   5.770  13.375  0.00  0.00    +0.000 NA
ATOM     23  C   UNL     1       7.774   5.031  12.451  0.00  0.00    +0.000 A 
ATOM     24  N   UNL     1       6.837   4.227  13.025  0.00  0.00    +0.000 N 
ATOM     25  C   UNL     1       5.992   3.280  12.349  0.00  0.00    +0.000 C 
ENDBRANCH  19  20
ENDBRANCH  18  19
ENDBRANCH  11  18
ENDBRANCH   1  15
BRANCH   7  26
ATOM     26  C   UNL     1      -0.917  11.814  22.020  0.00  0.00    +0.000 A 
ATOM     27  C   UNL     1      -0.292  13.066  21.966  0.00  0.00    +0.000 A 
ATOM     28  C   UNL     1      -0.729  14.133  22.752  0.00  0.00    +0.000 A 
ATOM     29  C   UNL     1      -1.808  13.931  23.590  0.00  0.00    +0.000 A 
ATOM     30  N   UNL     1      -2.458  12.758  23.688  0.00  0.00    +0.000 NA
ATOM     31  C   UNL     1      -1.995  11.744  22.910  0.00  0.00    +0.000 A 
ENDBRANCH   7  26
TORSDOF 5
ENDMDL
MODEL 7
REMARK VINA RESULT:      -8.1      1.867      2.637
REMARK  Name = 
REMARK  7 active torsions:
REMARK  status: ('A' for Active; 'I' for Inactive)
REMARK    1  A    between atoms: C_1  and  C_2
REMARK    2  A    between atoms: C_2  and  S_3
REMARK    3  A    between atoms: C_2  and  C_10
REMARK    4  A    between atoms: S_3  and  C_4
REMARK    5  A    between atoms: N_8  and  C_9
REMARK    6  A    between atoms: C_14  and  N_15
REMARK    7  A    between atoms: N_21  and  C_22
REMARK                            x       y       z     vdW  Elec       q    Type
REMARK                         _______ _______ _______ _____ _____    ______ ____
ROOT
ATOM      1  N   UNL     1       1.394   7.164  21.117  0.00  0.00    +0.000 N 
ATOM      2  C   UNL     1       1.343   8.380  20.479  0.00  0.00    +0.000 C 
ATOM      3  O   UNL     1       1.690   8.563  19.316  0.00  0.00    +0.000 OA
ATOM      4  N   UNL     1       0.813   9.414  21.225  0.00  0.00    +0.000 N 
ATOM      5  C   UNL     1       0.565  10.689  20.546  0.00  0.00    +0.000 C 
ATOM      6  C   UNL     1      -0.853  11.204  20.839  0.00  0.00    +0.000 C 
ATOM      7  N   UNL     1      -1.068  11.267  22.296  0.00  0.00    +0.000 N 
ATOM      8  C   UNL     1      -0.802  10.011  23.023  0.00  0.00    +0.000 C 
ATOM      9  C   UNL     1       0.604   9.473  22.683  0.00  0.00    +0.000 C 
ATOM     10  H   UNL     1       0.784   7.050  21.907  0.00  0.00    +0.000 HD
ENDROOT
BRANCH   1  15
ATOM     11  C   UNL     1       3.001   4.884  18.669  0.00  0.00    +0.000 A 
ATOM     12  C   UNL     1       3.079   3.700  19.426  0.00  0.00    +0.000 A 
ATOM     13  C   UNL     1       2.551   3.636  20.712  0.00  0.00    +0.000 A 
ATOM     14  C   UNL     1       1.965   4.764  21.283  0.00  0.00    +0.000 A 
ATOM     15  C   UNL     1       1.935   5.972  20.588  0.00  0.00    +0.000 A 
ATOM     16  C   UNL     1       2.444   6.020  19.284  0.00  0.00    +0.000 A 
BRANCH  11  18
ATOM     17  C   UNL     1       4.031   3.526  16.743  0.00  0.00    +0.000 C 
ATOM     18  C   UNL     1       3.446   4.868  17.203  0.00  0.00    +0.000 C 
BRANCH  18  19
ATOM     19  S   UNL     1       4.704   6.202  16.999  0.00  0.00    +0.000 S 
BRANCH  19  20
ATOM     20  C   UNL     1       6.104   5.541  17.746  0.00  0.00    +0.000 A 
ATOM     21  N   UNL     1       6.417   5.536  19.019  0.00  0.00    +0.000 NA
ATOM     22  N   UNL     1       7.655   4.939  19.139  0.00  0.00    +0.000 NA
ATOM     23  C   UNL     1       8.046   4.587  17.935  0.00  0.00    +0.000 A 
ATOM     24  N   UNL     1       7.094   4.939  17.027  0.00  0.00    +0.000 N 
ATOM     25  C   UNL     1       7.151   4.733  15.605  0.00  0.00    +0.000 C 
ENDBRANCH  19  20
ENDBRANCH  18  19
ENDBRANCH  11  18
ENDBRANCH   1  15
BRANCH   7  26
ATOM     26  C   UNL     1      -1.529  12.409  22.916  0.00  0.00    +0.000 A 
ATOM     27  C   UNL     1      -0.768  13.583  22.984  0.00  0.00    +0.000 A 
ATOM     28  C   UNL     1      -1.239  14.719  23.643  0.00  0.00    +0.000 A 
ATOM     29  C   UNL     1      -2.489  14.668  24.228  0.00  0.00    +0.000 A 
ATOM     30  N   UNL     1      -3.275  13.577  24.195  0.00  0.00    +0.000 NA
ATOM     31  C   UNL     1      -2.775  12.491  23.549  0.00  0.00    +0.000 A 
ENDBRANCH   7  26
TORSDOF 5
ENDMDL
MODEL 8
REMARK VINA RESULT:      -8.1      2.086      2.929
REMARK  Name = 
REMARK  7 active torsions:
REMARK  status: ('A' for Active; 'I' for Inactive)
REMARK    1  A    between atoms: C_1  and  C_2
REMARK    2  A    between atoms: C_2  and  S_3
REMARK    3  A    between atoms: C_2  and  C_10
REMARK    4  A    between atoms: S_3  and  C_4
REMARK    5  A    between atoms: N_8  and  C_9
REMARK    6  A    between atoms: C_14  and  N_15
REMARK    7  A    between atoms: N_21  and  C_22
REMARK                            x       y       z     vdW  Elec       q    Type
REMARK                         _______ _______ _______ _____ _____    ______ ____
ROOT
ATOM      1  N   UNL     1       2.292   6.830  18.822  0.00  0.00    +0.000 N 
ATOM      2  C   UNL     1       2.165   8.101  18.317  0.00  0.00    +0.000 C 
ATOM      3  O   UNL     1       2.526   8.436  17.193  0.00  0.00    +0.000 OA
ATOM      4  N   UNL     1       1.538   9.005  19.151  0.00  0.00    +0.000 N 
ATOM      5  C   UNL     1       1.211  10.326  18.606  0.00  0.00    +0.000 C 
ATOM      6  C   UNL     1      -0.249  10.700  18.905  0.00  0.00    +0.000 C 
ATOM      7  N   UNL     1      -0.505  10.587  20.353  0.00  0.00    +0.000 N 
ATOM      8  C   UNL     1      -0.162   9.281  20.948  0.00  0.00    +0.000 C 
ATOM      9  C   UNL     1       1.288   8.889  20.600  0.00  0.00    +0.000 C 
ATOM     10  H   UNL     1       1.672   6.586  19.574  0.00  0.00    +0.000 HD
ENDROOT
BRANCH   1  15
ATOM     11  C   UNL     1       4.656   5.037  16.591  0.00  0.00    +0.000 A 
ATOM     12  C   UNL     1       4.330   3.700  16.885  0.00  0.00    +0.000 A 
ATOM     13  C   UNL     1       3.298   3.391  17.767  0.00  0.00    +0.000 A 
ATOM     14  C   UNL     1       2.592   4.412  18.400  0.00  0.00    +0.000 A 
ATOM     15  C   UNL     1       2.936   5.746  18.186  0.00  0.00    +0.000 A 
ATOM     16  C   UNL     1       3.958   6.048  17.277  0.00  0.00    +0.000 A 
BRANCH  11  18
ATOM     17  C   UNL     1       5.320   4.756  14.122  0.00  0.00    +0.000 C 
ATOM     18  C   UNL     1       5.685   5.335  15.496  0.00  0.00    +0.000 C 
BRANCH  18  19
ATOM     19  S   UNL     1       7.298   4.641  16.059  0.00  0.00    +0.000 S 
BRANCH  19  20
ATOM     20  C   UNL     1       7.390   5.138  17.702  0.00  0.00    +0.000 A 
ATOM     21  N   UNL     1       7.282   4.398  18.779  0.00  0.00    +0.000 NA
ATOM     22  N   UNL     1       7.373   5.238  19.870  0.00  0.00    +0.000 NA
ATOM     23  C   UNL     1       7.550   6.459  19.419  0.00  0.00    +0.000 A 
ATOM     24  N   UNL     1       7.576   6.442  18.057  0.00  0.00    +0.000 N 
ATOM     25  C   UNL     1       7.742   7.576  17.190  0.00  0.00    +0.000 C 
ENDBRANCH  19  20
ENDBRANCH  18  19
ENDBRANCH  11  18
ENDBRANCH   1  15
BRANCH   7  26
ATOM     26  C   UNL     1      -1.068  11.617  21.076  0.00  0.00    +0.000 A 
ATOM     27  C   UNL     1      -0.755  11.844  22.422  0.00  0.00    +0.000 A 
ATOM     28  C   UNL     1      -1.359  12.873  23.146  0.00  0.00    +0.000 A 
ATOM     29  C   UNL     1      -2.276  13.680  22.501  0.00  0.00    +0.000 A 
ATOM     30  N   UNL     1      -2.618  13.522  21.210  0.00  0.00    +0.000 NA
ATOM     31  C   UNL     1      -2.011  12.504  20.544  0.00  0.00    +0.000 A 
ENDBRANCH   7  26
TORSDOF 5
ENDMDL
MODEL 9
REMARK VINA RESULT:      -8.0      1.390      1.947
REMARK  Name = 
REMARK  7 active torsions:
REMARK  status: ('A' for Active; 'I' for Inactive)
REMARK    1  A    between atoms: C_1  and  C_2
REMARK    2  A    between atoms: C_2  and  S_3
REMARK    3  A    between atoms: C_2  and  C_10
REMARK    4  A    between atoms: S_3  and  C_4
REMARK    5  A    between atoms: N_8  and  C_9
REMARK    6  A    between atoms: C_14  and  N_15
REMARK    7  A    between atoms: N_21  and  C_22
REMARK                            x       y       z     vdW  Elec       q    Type
REMARK                         _______ _______ _______ _____ _____    ______ ____
ROOT
ATOM      1  N   UNL     1       2.283   6.394  18.987  0.00  0.00    +0.000 N 
ATOM      2  C   UNL     1       2.218   7.676  18.496  0.00  0.00    +0.000 C 
ATOM      3  O   UNL     1       2.534   7.994  17.353  0.00  0.00    +0.000 OA
ATOM      4  N   UNL     1       1.713   8.616  19.372  0.00  0.00    +0.000 N 
ATOM      5  C   UNL     1       1.452   9.962  18.854  0.00  0.00    +0.000 C 
ATOM      6  C   UNL     1       0.045  10.440  19.246  0.00  0.00    +0.000 C 
ATOM      7  N   UNL     1      -0.129  10.333  20.706  0.00  0.00    +0.000 N 
ATOM      8  C   UNL     1       0.153   9.000  21.273  0.00  0.00    +0.000 C 
ATOM      9  C   UNL     1       1.545   8.505  20.833  0.00  0.00    +0.000 C 
ATOM     10  H   UNL     1       1.694   6.189  19.775  0.00  0.00    +0.000 HD
ENDROOT
BRANCH   1  15
ATOM     11  C   UNL     1       4.763   4.244  17.253  0.00  0.00    +0.000 A 
ATOM     12  C   UNL     1       3.983   3.102  16.995  0.00  0.00    +0.000 A 
ATOM     13  C   UNL     1       2.634   3.063  17.335  0.00  0.00    +0.000 A 
ATOM     14  C   UNL     1       2.043   4.151  17.972  0.00  0.00    +0.000 A 
ATOM     15  C   UNL     1       2.803   5.271  18.306  0.00  0.00    +0.000 A 
ATOM     16  C   UNL     1       4.154   5.313  17.937  0.00  0.00    +0.000 A 
BRANCH  11  18
ATOM     17  C   UNL     1       7.244   4.660  17.787  0.00  0.00    +0.000 C 
ATOM     18  C   UNL     1       6.197   4.311  16.720  0.00  0.00    +0.000 C 
BRANCH  18  19
ATOM     19  S   UNL     1       6.223   5.578  15.380  0.00  0.00    +0.000 S 
BRANCH  19  20
ATOM     20  C   UNL     1       6.261   4.634  13.944  0.00  0.00    +0.000 A 
ATOM     21  N   UNL     1       5.430   3.689  13.575  0.00  0.00    +0.000 NA
ATOM     22  N   UNL     1       5.887   3.183  12.375  0.00  0.00    +0.000 NA
ATOM     23  C   UNL     1       6.972   3.848  12.048  0.00  0.00    +0.000 A 
ATOM     24  N   UNL     1       7.239   4.780  13.005  0.00  0.00    +0.000 N 
ATOM     25  C   UNL     1       8.344   5.701  13.018  0.00  0.00    +0.000 C 
ENDBRANCH  19  20
ENDBRANCH  18  19
ENDBRANCH  11  18
ENDBRANCH   1  15
BRANCH   7  26
ATOM     26  C   UNL     1      -0.568  11.395  21.468  0.00  0.00    +0.000 A 
ATOM     27  C   UNL     1      -0.499  12.719  21.015  0.00  0.00    +0.000 A 
ATOM     28  C   UNL     1      -0.919  13.783  21.814  0.00  0.00    +0.000 A 
ATOM     29  C   UNL     1      -1.418  13.505  23.071  0.00  0.00    +0.000 A 
ATOM     30  N   UNL     1      -1.519  12.258  23.565  0.00  0.00    +0.000 NA
ATOM     31  C   UNL     1      -1.092  11.252  22.758  0.00  0.00    +0.000 A 
ENDBRANCH   7  26
TORSDOF 5
ENDMDL
