MODEL 1
REMARK VINA RESULT:      -8.0      0.000      0.000
REMARK  Name = 
REMARK  9 active torsions:
REMARK  status: ('A' for Active; 'I' for Inactive)
REMARK    1  A    between atoms: C_1  and  O_2
REMARK    2  A    between atoms: O_2  and  C_3
REMARK    3  A    between atoms: C_6  and  C_7
REMARK    4  A    between atoms: N_9  and  C_10
REMARK    5  A    between atoms: C_14  and  C_15
REMARK    6  A    between atoms: C_15  and  C_16
REMARK    7  A    between atoms: C_15  and  S_17
REMARK    8  A    between atoms: S_17  and  C_18
REMARK    9  A    between atoms: N_22  and  C_23
REMARK                            x       y       z     vdW  Elec       q    Type
REMARK                         _______ _______ _______ _____ _____    ______ ____
ROOT
ATOM      1  C   UNL     1       0.700   9.483  20.604  0.00  0.00    +0.000 A 
ATOM      2  C   UNL     1       0.597   8.818  21.832  0.00  0.00    +0.000 A 
ATOM      3  C   UNL     1      -0.052   9.435  22.901  0.00  0.00    +0.000 A 
ATOM      4  C   UNL     1      -0.608  10.705  22.748  0.00  0.00    +0.000 A 
ATOM      5  C   UNL     1      -0.541  11.377  21.519  0.00  0.00    +0.000 A 
ATOM      6  C   UNL     1       0.120  10.750  20.449  0.00  0.00    +0.000 A 
ENDROOT
BRANCH   1   9
ATOM      7  C   UNL     1       2.640   7.678  18.214  0.00  0.00    +0.000 A 
ATOM      8  C   UNL     1       2.090   7.720  19.474  0.00  0.00    +0.000 A 
ATOM      9  N   UNL     1       1.408   8.912  19.519  0.00  0.00    +0.000 N 
ATOM     10  N   UNL     1       1.521   9.543  18.323  0.00  0.00    +0.000 NA
ATOM     11  N   UNL     1       2.272   8.798  17.524  0.00  0.00    +0.000 NA
BRANCH   7  15
ATOM     12  C   UNL     1       4.995   4.556  16.526  0.00  0.00    +0.000 A 
ATOM     13  C   UNL     1       5.380   5.890  16.392  0.00  0.00    +0.000 A 
ATOM     14  C   UNL     1       4.621   6.911  16.969  0.00  0.00    +0.000 A 
ATOM     15  C   UNL     1       3.445   6.608  17.666  0.00  0.00    +0.000 A 
ATOM     16  C   UNL     1       3.063   5.267  17.798  0.00  0.00    +0.000 A 
ATOM     17  C   UNL     1       3.834   4.245  17.230  0.00  0.00    +0.000 A 
BRANCH  12  19
ATOM     18  C   UNL     1       6.191   3.983  14.571  0.00  0.00    +0.000 C 
ATOM     19  O   UNL     1       5.804   3.650  15.899  0.00  0.00    +0.000 OA
ENDBRANCH  12  19
ENDBRANCH   7  15
ENDBRANCH   1   9
BRANCH   5  20
ATOM     20  C   UNL     1      -1.186  12.745  21.366  0.00  0.00    +0.000 C 
ATOM     21  C   UNL     1      -2.651  12.595  20.941  0.00  0.00    +0.000 C 
BRANCH  20  22
ATOM     22  S   UNL     1      -0.352  13.814  20.138  0.00  0.00    +0.000 S 
BRANCH  22  23
ATOM     23  C   UNL     1       1.200  14.043  20.856  0.00  0.00    +0.000 A 
ATOM     24  N   UNL     1       1.472  14.520  22.049  0.00  0.00    +0.000 NA
ATOM     25  N   UNL     1       2.841  14.501  22.205  0.00  0.00    +0.000 NA
ATOM     26  C   UNL     1       3.360  14.028  21.093  0.00  0.00    +0.000 A 
ATOM     27  N   UNL     1       2.364  13.744  20.208  0.00  0.00    +0.000 N 
ATOM     28  C   UNL     1       2.529  13.226  18.878  0.00  0.00    +0.000 C 
ENDBRANCH  22  23
ENDBRANCH  20  22
ENDBRANCH   5  20
TORSDOF 6
ENDMDL
MODEL 2
REMARK VINA RESULT:      -8.0      2.685      3.885
REMARK  Name = 
REMARK  9 active torsions:
REMARK  status: ('A' for Active; 'I' for Inactive)
REMARK    1  A    between atoms: C_1  and  O_2
REMARK    2  A    between atoms: O_2  and  C_3
REMARK    3  A    between atoms: C_6  and  C_7
REMARK    4  A    between atoms: N_9  and  C_10
REMARK    5  A    between atoms: C_14  and  C_15
REMARK    6  A    between atoms: C_15  and  C_16
REMARK    7  A    between atoms: C_15  and  S_17
REMARK    8  A    between atoms: S_17  and  C_18
REMARK    9  A    between atoms: N_22  and  C_23
REMARK                            x       y       z     vdW  Elec       q    Type
REMARK                         _______ _______ _______ _____ _____    ______ ____
ROOT
ATOM      1  C   UNL     1       0.471   9.610  20.844  0.00  0.00    +0.000 A 
ATOM      2  C   UNL     1       0.581   9.013  22.105  0.00  0.00    +0.000 A 
ATOM      3  C   UNL     1      -0.080   9.576  23.197  0.00  0.00    +0.000 A 
ATOM      4  C   UNL     1      -0.859  10.721  23.033  0.00  0.00    +0.000 A 
ATOM      5  C   UNL     1      -1.005  11.318  21.772  0.00  0.00    +0.000 A 
ATOM      6  C   UNL     1      -0.331  10.748  20.680  0.00  0.00    +0.000 A 
ENDROOT
BRANCH   1   9
ATOM      7  C   UNL     1       2.426   7.950  18.361  0.00  0.00    +0.000 A 
ATOM      8  C   UNL     1       1.885   7.925  19.625  0.00  0.00    +0.000 A 
ATOM      9  N   UNL     1       1.182   9.101  19.729  0.00  0.00    +0.000 N 
ATOM     10  N   UNL     1       1.274   9.788  18.562  0.00  0.00    +0.000 NA
ATOM     11  N   UNL     1       2.033   9.093  17.726  0.00  0.00    +0.000 NA
BRANCH   7  15
ATOM     12  C   UNL     1       4.861   4.895  16.665  0.00  0.00    +0.000 A 
ATOM     13  C   UNL     1       3.716   4.570  17.394  0.00  0.00    +0.000 A 
ATOM     14  C   UNL     1       2.904   5.575  17.926  0.00  0.00    +0.000 A 
ATOM     15  C   UNL     1       3.247   6.921  17.760  0.00  0.00    +0.000 A 
ATOM     16  C   UNL     1       4.397   7.241  17.028  0.00  0.00    +0.000 A 
ATOM     17  C   UNL     1       5.201   6.233  16.484  0.00  0.00    +0.000 A 
BRANCH  12  19
ATOM     18  C   UNL     1       6.706   4.143  15.395  0.00  0.00    +0.000 C 
ATOM     19  O   UNL     1       5.586   3.827  16.214  0.00  0.00    +0.000 OA
ENDBRANCH  12  19
ENDBRANCH   7  15
ENDBRANCH   1   9
BRANCH   5  20
ATOM     20  C   UNL     1      -1.888  12.545  21.612  0.00  0.00    +0.000 C 
ATOM     21  C   UNL     1      -1.288  13.498  20.572  0.00  0.00    +0.000 C 
BRANCH  20  22
ATOM     22  S   UNL     1      -2.122  13.485  23.165  0.00  0.00    +0.000 S 
BRANCH  22  23
ATOM     23  C   UNL     1      -3.726  13.038  23.617  0.00  0.00    +0.000 A 
ATOM     24  N   UNL     1      -4.096  12.027  24.370  0.00  0.00    +0.000 NA
ATOM     25  N   UNL     1      -5.470  12.071  24.482  0.00  0.00    +0.000 NA
ATOM     26  C   UNL     1      -5.892  13.100  23.779  0.00  0.00    +0.000 A 
ATOM     27  N   UNL     1      -4.829  13.726  23.201  0.00  0.00    +0.000 N 
ATOM     28  C   UNL     1      -4.883  14.879  22.346  0.00  0.00    +0.000 C 
ENDBRANCH  22  23
ENDBRANCH  20  22
ENDBRANCH   5  20
TORSDOF 6
ENDMDL
MODEL 3
REMARK VINA RESULT:      -7.9      4.218      8.884
REMARK  Name = 
REMARK  9 active torsions:
REMARK  status: ('A' for Active; 'I' for Inactive)
REMARK    1  A    between atoms: C_1  and  O_2
REMARK    2  A    between atoms: O_2  and  C_3
REMARK    3  A    between atoms: C_6  and  C_7
REMARK    4  A    between atoms: N_9  and  C_10
REMARK    5  A    between atoms: C_14  and  C_15
REMARK    6  A    between atoms: C_15  and  C_16
REMARK    7  A    between atoms: C_15  and  S_17
REMARK    8  A    between atoms: S_17  and  C_18
REMARK    9  A    between atoms: N_22  and  C_23
REMARK                            x       y       z     vdW  Elec       q    Type
REMARK                         _______ _______ _______ _____ _____    ______ ____
ROOT
ATOM      1  C   UNL     1       2.728   6.096  18.197  0.00  0.00    +0.000 A 
ATOM      2  C   UNL     1       2.109   4.889  18.544  0.00  0.00    +0.000 A 
ATOM      3  C   UNL     1       2.604   3.687  18.037  0.00  0.00    +0.000 A 
ATOM      4  C   UNL     1       3.718   3.684  17.197  0.00  0.00    +0.000 A 
ATOM      5  C   UNL     1       4.369   4.879  16.860  0.00  0.00    +0.000 A 
ATOM      6  C   UNL     1       3.860   6.085  17.371  0.00  0.00    +0.000 A 
ENDROOT
BRANCH   1   9
ATOM      7  C   UNL     1       1.225   8.952  19.721  0.00  0.00    +0.000 A 
ATOM      8  C   UNL     1       1.569   7.624  19.823  0.00  0.00    +0.000 A 
ATOM      9  N   UNL     1       2.211   7.337  18.642  0.00  0.00    +0.000 N 
ATOM     10  N   UNL     1       2.276   8.457  17.879  0.00  0.00    +0.000 NA
ATOM     11  N   UNL     1       1.675   9.444  18.530  0.00  0.00    +0.000 NA
BRANCH   7  15
ATOM     12  C   UNL     1      -0.730  11.307  22.682  0.00  0.00    +0.000 A 
ATOM     13  C   UNL     1      -0.290  11.884  21.490  0.00  0.00    +0.000 A 
ATOM     14  C   UNL     1       0.326  11.104  20.509  0.00  0.00    +0.000 A 
ATOM     15  C   UNL     1       0.538   9.737  20.723  0.00  0.00    +0.000 A 
ATOM     16  C   UNL     1       0.095   9.164  21.922  0.00  0.00    +0.000 A 
ATOM     17  C   UNL     1      -0.535   9.945  22.898  0.00  0.00    +0.000 A 
BRANCH  12  19
ATOM     18  C   UNL     1      -1.207  13.554  23.238  0.00  0.00    +0.000 C 
ATOM     19  O   UNL     1      -1.297  12.175  23.575  0.00  0.00    +0.000 OA
ENDBRANCH  12  19
ENDBRANCH   7  15
ENDBRANCH   1   9
BRANCH   5  20
ATOM     20  C   UNL     1       5.602   4.847  15.972  0.00  0.00    +0.000 C 
ATOM     21  C   UNL     1       5.472   3.733  14.926  0.00  0.00    +0.000 C 
BRANCH  20  22
ATOM     22  S   UNL     1       7.159   4.572  16.893  0.00  0.00    +0.000 S 
BRANCH  22  23
ATOM     23  C   UNL     1       7.584   6.175  17.368  0.00  0.00    +0.000 A 
ATOM     24  N   UNL     1       7.651   7.247  16.611  0.00  0.00    +0.000 NA
ATOM     25  N   UNL     1       8.007   8.306  17.418  0.00  0.00    +0.000 NA
ATOM     26  C   UNL     1       8.161   7.841  18.638  0.00  0.00    +0.000 A 
ATOM     27  N   UNL     1       7.924   6.499  18.649  0.00  0.00    +0.000 N 
ATOM     28  C   UNL     1       8.006   5.630  19.791  0.00  0.00    +0.000 C 
ENDBRANCH  22  23
ENDBRANCH  20  22
ENDBRANCH   5  20
TORSDOF 6
ENDMDL
MODEL 4
REMARK VINA RESULT:      -7.9      4.981     10.171
REMARK  Name = 
REMARK  9 active torsions:
REMARK  status: ('A' for Active; 'I' for Inactive)
REMARK    1  A    between atoms: C_1  and  O_2
REMARK    2  A    between atoms: O_2  and  C_3
REMARK    3  A    between atoms: C_6  and  C_7
REMARK    4  A    between atoms: N_9  and  C_10
REMARK    5  A    between atoms: C_14  and  C_15
REMARK    6  A    between atoms: C_15  and  C_16
REMARK    7  A    between atoms: C_15  and  S_17
REMARK    8  A    between atoms: S_17  and  C_18
REMARK    9  A    between atoms: N_22  and  C_23
REMARK                            x       y       z     vdW  Elec       q    Type
REMARK                         _______ _______ _______ _____ _____    ______ ____
ROOT
ATOM      1  C   UNL     1       0.827   9.404  20.131  0.00  0.00    +0.000 A 
ATOM      2  C   UNL     1       0.769   9.998  18.865  0.00  0.00    +0.000 A 
ATOM      3  C   UNL     1       1.449   9.415  17.795  0.00  0.00    +0.000 A 
ATOM      4  C   UNL     1       2.173   8.238  17.980  0.00  0.00    +0.000 A 
ATOM      5  C   UNL     1       2.221   7.611  19.233  0.00  0.00    +0.000 A 
ATOM      6  C   UNL     1       1.539   8.208  20.307  0.00  0.00    +0.000 A 
ENDROOT
BRANCH   1   9
ATOM      7  C   UNL     1      -0.877  11.306  22.623  0.00  0.00    +0.000 A 
ATOM      8  C   UNL     1      -0.586  11.129  21.291  0.00  0.00    +0.000 A 
ATOM      9  N   UNL     1       0.203  10.005  21.251  0.00  0.00    +0.000 N 
ATOM     10  N   UNL     1       0.351   9.511  22.507  0.00  0.00    +0.000 NA
ATOM     11  N   UNL     1      -0.303  10.301  23.348  0.00  0.00    +0.000 NA
BRANCH   7  15
ATOM     12  C   UNL     1      -3.245  14.396  24.351  0.00  0.00    +0.000 A 
ATOM     13  C   UNL     1      -1.936  14.649  23.939  0.00  0.00    +0.000 A 
ATOM     14  C   UNL     1      -1.171  13.640  23.348  0.00  0.00    +0.000 A 
ATOM     15  C   UNL     1      -1.699  12.354  23.189  0.00  0.00    +0.000 A 
ATOM     16  C   UNL     1      -3.013  12.107  23.604  0.00  0.00    +0.000 A 
ATOM     17  C   UNL     1      -3.783  13.122  24.184  0.00  0.00    +0.000 A 
BRANCH  12  19
ATOM     18  C   UNL     1      -3.880  16.666  24.193  0.00  0.00    +0.000 C 
ATOM     19  O   UNL     1      -3.886  15.453  24.936  0.00  0.00    +0.000 OA
ENDBRANCH  12  19
ENDBRANCH   7  15
ENDBRANCH   1   9
BRANCH   5  20
ATOM     20  C   UNL     1       2.988   6.310  19.401  0.00  0.00    +0.000 C 
ATOM     21  C   UNL     1       3.354   5.730  18.030  0.00  0.00    +0.000 C 
BRANCH  20  22
ATOM     22  S   UNL     1       2.062   5.028  20.322  0.00  0.00    +0.000 S 
BRANCH  22  23
ATOM     23  C   UNL     1       2.848   3.580  19.812  0.00  0.00    +0.000 A 
ATOM     24  N   UNL     1       4.104   3.241  19.992  0.00  0.00    +0.000 NA
ATOM     25  N   UNL     1       4.282   1.991  19.438  0.00  0.00    +0.000 NA
ATOM     26  C   UNL     1       3.131   1.616  18.925  0.00  0.00    +0.000 A 
ATOM     27  N   UNL     1       2.203   2.595  19.120  0.00  0.00    +0.000 N 
ATOM     28  C   UNL     1       0.833   2.567  18.689  0.00  0.00    +0.000 C 
ENDBRANCH  22  23
ENDBRANCH  20  22
ENDBRANCH   5  20
TORSDOF 6
ENDMDL
MODEL 5
REMARK VINA RESULT:      -7.9      4.617      9.846
REMARK  Name = 
REMARK  9 active torsions:
REMARK  status: ('A' for Active; 'I' for Inactive)
REMARK    1  A    between atoms: C_1  and  O_2
REMARK    2  A    between atoms: O_2  and  C_3
REMARK    3  A    between atoms: C_6  and  C_7
REMARK    4  A    between atoms: N_9  and  C_10
REMARK    5  A    between atoms: C_14  and  C_15
REMARK    6  A    between atoms: C_15  and  C_16
REMARK    7  A    between atoms: C_15  and  S_17
REMARK    8  A    between atoms: S_17  and  C_18
REMARK    9  A    between atoms: N_22  and  C_23
REMARK                            x       y       z     vdW  Elec       q    Type
REMARK                         _______ _______ _______ _____ _____    ______ ____
ROOT
ATOM      1  C   UNL     1       1.313   8.845  20.047  0.00  0.00    +0.000 A 
ATOM      2  C   UNL     1       1.483   9.464  18.803  0.00  0.00    +0.000 A 
ATOM      3  C   UNL     1       2.151   8.790  17.781  0.00  0.00    +0.000 A 
ATOM      4  C   UNL     1       2.639   7.500  17.990  0.00  0.00    +0.000 A 
ATOM      5  C   UNL     1       2.455   6.852  19.220  0.00  0.00    +0.000 A 
ATOM      6  C   UNL     1       1.786   7.540  20.246  0.00  0.00    +0.000 A 
ENDROOT
BRANCH   1   9
ATOM      7  C   UNL     1      -0.390  10.913  22.405  0.00  0.00    +0.000 A 
ATOM      8  C   UNL     1      -0.123  10.628  21.086  0.00  0.00    +0.000 A 
ATOM      9  N   UNL     1       0.697   9.525  21.125  0.00  0.00    +0.000 N 
ATOM     10  N   UNL     1       0.887   9.149  22.416  0.00  0.00    +0.000 NA
ATOM     11  N   UNL     1       0.230   9.992  23.200  0.00  0.00    +0.000 NA
BRANCH   7  15
ATOM     12  C   UNL     1      -2.909  14.056  23.790  0.00  0.00    +0.000 A 
ATOM     13  C   UNL     1      -3.358  12.735  23.780  0.00  0.00    +0.000 A 
ATOM     14  C   UNL     1      -2.521  11.703  23.351  0.00  0.00    +0.000 A 
ATOM     15  C   UNL     1      -1.228  11.985  22.896  0.00  0.00    +0.000 A 
ATOM     16  C   UNL     1      -0.782  13.313  22.908  0.00  0.00    +0.000 A 
ATOM     17  C   UNL     1      -1.618  14.344  23.352  0.00  0.00    +0.000 A 
BRANCH  12  19
ATOM     18  C   UNL     1      -4.225  15.938  23.236  0.00  0.00    +0.000 C 
ATOM     19  O   UNL     1      -3.825  14.981  24.209  0.00  0.00    +0.000 OA
ENDBRANCH  12  19
ENDBRANCH   7  15
ENDBRANCH   1   9
BRANCH   5  20
ATOM     20  C   UNL     1       2.964   5.432  19.412  0.00  0.00    +0.000 C 
ATOM     21  C   UNL     1       2.459   4.864  20.743  0.00  0.00    +0.000 C 
BRANCH  20  22
ATOM     22  S   UNL     1       4.790   5.303  19.404  0.00  0.00    +0.000 S 
BRANCH  22  23
ATOM     23  C   UNL     1       5.102   4.728  17.807  0.00  0.00    +0.000 A 
ATOM     24  N   UNL     1       4.227   4.350  16.903  0.00  0.00    +0.000 NA
ATOM     25  N   UNL     1       4.925   3.991  15.770  0.00  0.00    +0.000 NA
ATOM     26  C   UNL     1       6.206   4.147  16.028  0.00  0.00    +0.000 A 
ATOM     27  N   UNL     1       6.364   4.591  17.306  0.00  0.00    +0.000 N 
ATOM     28  C   UNL     1       7.612   4.864  17.963  0.00  0.00    +0.000 C 
ENDBRANCH  22  23
ENDBRANCH  20  22
ENDBRANCH   5  20
TORSDOF 6
ENDMDL
MODEL 6
REMARK VINA RESULT:      -7.8      6.326      9.379
REMARK  Name = 
REMARK  9 active torsions:
REMARK  status: ('A' for Active; 'I' for Inactive)
REMARK    1  A    between atoms: C_1  and  O_2
REMARK    2  A    between atoms: O_2  and  C_3
REMARK    3  A    between atoms: C_6  and  C_7
REMARK    4  A    between atoms: N_9  and  C_10
REMARK    5  A    between atoms: C_14  and  C_15
REMARK    6  A    between atoms: C_15  and  C_16
REMARK    7  A    between atoms: C_15  and  S_17
REMARK    8  A    between atoms: S_17  and  C_18
REMARK    9  A    between atoms: N_22  and  C_23
REMARK                            x       y       z     vdW  Elec       q    Type
REMARK                         _______ _______ _______ _____ _____    ______ ____
ROOT
ATOM      1  C   UNL     1       6.427   6.344  17.221  0.00  0.00    +0.000 A 
ATOM      2  C   UNL     1       6.898   5.392  16.309  0.00  0.00    +0.000 A 
ATOM      3  C   UNL     1       6.047   4.382  15.862  0.00  0.00    +0.000 A 
ATOM      4  C   UNL     1       4.728   4.324  16.311  0.00  0.00    +0.000 A 
ATOM      5  C   UNL     1       4.228   5.284  17.203  0.00  0.00    +0.000 A 
ATOM      6  C   UNL     1       5.094   6.295  17.652  0.00  0.00    +0.000 A 
ENDROOT
BRANCH   1   9
ATOM      7  C   UNL     1       8.414   9.162  18.143  0.00  0.00    +0.000 A 
ATOM      8  C   UNL     1       7.404   8.657  17.359  0.00  0.00    +0.000 A 
ATOM      9  N   UNL     1       7.284   7.343  17.744  0.00  0.00    +0.000 N 
ATOM     10  N   UNL     1       8.167   7.082  18.741  0.00  0.00    +0.000 NA
ATOM     11  N   UNL     1       8.860   8.186  18.987  0.00  0.00    +0.000 NA
BRANCH   7  15
ATOM     12  C   UNL     1       9.875  13.160  18.020  0.00  0.00    +0.000 A 
ATOM     13  C   UNL     1       8.588  12.859  17.574  0.00  0.00    +0.000 A 
ATOM     14  C   UNL     1       8.101  11.552  17.641  0.00  0.00    +0.000 A 
ATOM     15  C   UNL     1       8.911  10.520  18.129  0.00  0.00    +0.000 A 
ATOM     16  C   UNL     1      10.203  10.828  18.575  0.00  0.00    +0.000 A 
ATOM     17  C   UNL     1      10.684  12.142  18.520  0.00  0.00    +0.000 A 
BRANCH  12  19
ATOM     18  C   UNL     1      10.013  15.299  19.014  0.00  0.00    +0.000 C 
ATOM     19  O   UNL     1      10.248  14.469  17.883  0.00  0.00    +0.000 OA
ENDBRANCH  12  19
ENDBRANCH   7  15
ENDBRANCH   1   9
BRANCH   5  20
ATOM     20  C   UNL     1       2.777   5.221  17.650  0.00  0.00    +0.000 C 
ATOM     21  C   UNL     1       2.625   5.835  19.046  0.00  0.00    +0.000 C 
BRANCH  20  22
ATOM     22  S   UNL     1       2.103   3.520  17.709  0.00  0.00    +0.000 S 
BRANCH  22  23
ATOM     23  C   UNL     1       1.985   3.239  19.407  0.00  0.00    +0.000 A 
ATOM     24  N   UNL     1       0.936   3.411  20.179  0.00  0.00    +0.000 NA
ATOM     25  N   UNL     1       1.294   3.040  21.458  0.00  0.00    +0.000 NA
ATOM     26  C   UNL     1       2.556   2.670  21.425  0.00  0.00    +0.000 A 
ATOM     27  N   UNL     1       3.037   2.798  20.157  0.00  0.00    +0.000 N 
ATOM     28  C   UNL     1       4.375   2.507  19.721  0.00  0.00    +0.000 C 
ENDBRANCH  22  23
ENDBRANCH  20  22
ENDBRANCH   5  20
TORSDOF 6
ENDMDL
MODEL 7
REMARK VINA RESULT:      -7.8      2.877      4.153
REMARK  Name = 
REMARK  9 active torsions:
REMARK  status: ('A' for Active; 'I' for Inactive)
REMARK    1  A    between atoms: C_1  and  O_2
REMARK    2  A    between atoms: O_2  and  C_3
REMARK    3  A    between atoms: C_6  and  C_7
REMARK    4  A    between atoms: N_9  and  C_10
REMARK    5  A    between atoms: C_14  and  C_15
REMARK    6  A    between atoms: C_15  and  C_16
REMARK    7  A    between atoms: C_15  and  S_17
REMARK    8  A    between atoms: S_17  and  C_18
REMARK    9  A    between atoms: N_22  and  C_23
REMARK                            x       y       z     vdW  Elec       q    Type
REMARK                         _______ _______ _______ _____ _____    ______ ____
ROOT
ATOM      1  C   UNL     1       1.474   8.326  20.104  0.00  0.00    +0.000 A 
ATOM      2  C   UNL     1       1.149   8.342  21.465  0.00  0.00    +0.000 A 
ATOM      3  C   UNL     1       0.425   9.412  21.991  0.00  0.00    +0.000 A 
ATOM      4  C   UNL     1       0.014  10.457  21.163  0.00  0.00    +0.000 A 
ATOM      5  C   UNL     1       0.306  10.446  19.791  0.00  0.00    +0.000 A 
ATOM      6  C   UNL     1       1.040   9.367  19.272  0.00  0.00    +0.000 A 
ENDROOT
BRANCH   1   9
ATOM      7  C   UNL     1       3.505   6.017  18.292  0.00  0.00    +0.000 A 
ATOM      8  C   UNL     1       2.976   7.283  18.377  0.00  0.00    +0.000 A 
ATOM      9  N   UNL     1       2.264   7.287  19.553  0.00  0.00    +0.000 N 
ATOM     10  N   UNL     1       2.389   6.080  20.161  0.00  0.00    +0.000 NA
ATOM     11  N   UNL     1       3.142   5.301  19.396  0.00  0.00    +0.000 NA
BRANCH   7  15
ATOM     12  C   UNL     1       5.947   4.554  15.123  0.00  0.00    +0.000 A 
ATOM     13  C   UNL     1       5.641   5.913  15.217  0.00  0.00    +0.000 A 
ATOM     14  C   UNL     1       4.862   6.394  16.273  0.00  0.00    +0.000 A 
ATOM     15  C   UNL     1       4.354   5.513  17.234  0.00  0.00    +0.000 A 
ATOM     16  C   UNL     1       4.664   4.151  17.134  0.00  0.00    +0.000 A 
ATOM     17  C   UNL     1       5.456   3.673  16.083  0.00  0.00    +0.000 A 
BRANCH  12  19
ATOM     18  C   UNL     1       5.978   3.615  12.956  0.00  0.00    +0.000 C 
ATOM     19  O   UNL     1       6.696   4.200  14.036  0.00  0.00    +0.000 OA
ENDBRANCH  12  19
ENDBRANCH   7  15
ENDBRANCH   1   9
BRANCH   5  20
ATOM     20  C   UNL     1      -0.184  11.578  18.903  0.00  0.00    +0.000 C 
ATOM     21  C   UNL     1       0.758  12.783  19.014  0.00  0.00    +0.000 C 
BRANCH  20  22
ATOM     22  S   UNL     1      -1.874  12.149  19.310  0.00  0.00    +0.000 S 
BRANCH  22  23
ATOM     23  C   UNL     1      -2.764  11.657  17.916  0.00  0.00    +0.000 A 
ATOM     24  N   UNL     1      -2.289  11.248  16.762  0.00  0.00    +0.000 NA
ATOM     25  N   UNL     1      -3.363  10.939  15.954  0.00  0.00    +0.000 NA
ATOM     26  C   UNL     1      -4.458  11.187  16.639  0.00  0.00    +0.000 A 
ATOM     27  N   UNL     1      -4.129  11.660  17.873  0.00  0.00    +0.000 N 
ATOM     28  C   UNL     1      -5.046  12.059  18.904  0.00  0.00    +0.000 C 
ENDBRANCH  22  23
ENDBRANCH  20  22
ENDBRANCH   5  20
TORSDOF 6
ENDMDL
MODEL 8
REMARK VINA RESULT:      -7.7      6.038      9.284
REMARK  Name = 
REMARK  9 active torsions:
REMARK  status: ('A' for Active; 'I' for Inactive)
REMARK    1  A    between atoms: C_1  and  O_2
REMARK    2  A    between atoms: O_2  and  C_3
REMARK    3  A    between atoms: C_6  and  C_7
REMARK    4  A    between atoms: N_9  and  C_10
REMARK    5  A    between atoms: C_14  and  C_15
REMARK    6  A    between atoms: C_15  and  C_16
REMARK    7  A    between atoms: C_15  and  S_17
REMARK    8  A    between atoms: S_17  and  C_18
REMARK    9  A    between atoms: N_22  and  C_23
REMARK                            x       y       z     vdW  Elec       q    Type
REMARK                         _______ _______ _______ _____ _____    ______ ____
ROOT
ATOM      1  C   UNL     1       6.493   5.840  16.882  0.00  0.00    +0.000 A 
ATOM      2  C   UNL     1       6.566   5.769  15.486  0.00  0.00    +0.000 A 
ATOM      3  C   UNL     1       5.852   4.782  14.806  0.00  0.00    +0.000 A 
ATOM      4  C   UNL     1       5.057   3.878  15.510  0.00  0.00    +0.000 A 
ATOM      5  C   UNL     1       4.949   3.950  16.906  0.00  0.00    +0.000 A 
ATOM      6  C   UNL     1       5.676   4.943  17.584  0.00  0.00    +0.000 A 
ENDROOT
BRANCH   1   9
ATOM      7  C   UNL     1       8.295   8.564  18.322  0.00  0.00    +0.000 A 
ATOM      8  C   UNL     1       7.408   8.132  17.365  0.00  0.00    +0.000 A 
ATOM      9  N   UNL     1       7.257   6.788  17.607  0.00  0.00    +0.000 N 
ATOM     10  N   UNL     1       8.001   6.437  18.686  0.00  0.00    +0.000 NA
ATOM     11  N   UNL     1       8.638   7.514  19.125  0.00  0.00    +0.000 NA
BRANCH   7  15
ATOM     12  C   UNL     1       9.649  12.558  18.918  0.00  0.00    +0.000 A 
ATOM     13  C   UNL     1       9.992  11.548  19.818  0.00  0.00    +0.000 A 
ATOM     14  C   UNL     1       9.569  10.234  19.606  0.00  0.00    +0.000 A 
ATOM     15  C   UNL     1       8.770   9.919  18.502  0.00  0.00    +0.000 A 
ATOM     16  C   UNL     1       8.429  10.936  17.601  0.00  0.00    +0.000 A 
ATOM     17  C   UNL     1       8.865  12.250  17.809  0.00  0.00    +0.000 A 
BRANCH  12  19
ATOM     18  C   UNL     1      11.502  14.011  19.108  0.00  0.00    +0.000 C 
ATOM     19  O   UNL     1      10.101  13.807  19.244  0.00  0.00    +0.000 OA
ENDBRANCH  12  19
ENDBRANCH   7  15
ENDBRANCH   1   9
BRANCH   5  20
ATOM     20  C   UNL     1       4.049   2.975  17.648  0.00  0.00    +0.000 C 
ATOM     21  C   UNL     1       2.577   3.263  17.326  0.00  0.00    +0.000 C 
BRANCH  20  22
ATOM     22  S   UNL     1       4.246   3.036  19.466  0.00  0.00    +0.000 S 
BRANCH  22  23
ATOM     23  C   UNL     1       3.121   4.266  19.910  0.00  0.00    +0.000 A 
ATOM     24  N   UNL     1       3.224   5.560  19.709  0.00  0.00    +0.000 NA
ATOM     25  N   UNL     1       2.083   6.152  20.207  0.00  0.00    +0.000 NA
ATOM     26  C   UNL     1       1.329   5.199  20.710  0.00  0.00    +0.000 A 
ATOM     27  N   UNL     1       1.953   3.996  20.562  0.00  0.00    +0.000 N 
ATOM     28  C   UNL     1       1.456   2.721  20.999  0.00  0.00    +0.000 C 
ENDBRANCH  22  23
ENDBRANCH  20  22
ENDBRANCH   5  20
TORSDOF 6
ENDMDL
MODEL 9
REMARK VINA RESULT:      -7.7      2.377      3.436
REMARK  Name = 
REMARK  9 active torsions:
REMARK  status: ('A' for Active; 'I' for Inactive)
REMARK    1  A    between atoms: C_1  and  O_2
REMARK    2  A    between atoms: O_2  and  C_3
REMARK    3  A    between atoms: C_6  and  C_7
REMARK    4  A    between atoms: N_9  and  C_10
REMARK    5  A    between atoms: C_14  and  C_15
REMARK    6  A    between atoms: C_15  and  C_16
REMARK    7  A    between atoms: C_15  and  S_17
REMARK    8  A    between atoms: S_17  and  C_18
REMARK    9  A    between atoms: N_22  and  C_23
REMARK                            x       y       z     vdW  Elec       q    Type
REMARK                         _______ _______ _______ _____ _____    ______ ____
ROOT
ATOM      1  C   UNL     1       0.659   9.572  20.734  0.00  0.00    +0.000 A 
ATOM      2  C   UNL     1       0.450   8.854  21.917  0.00  0.00    +0.000 A 
ATOM      3  C   UNL     1      -0.190   9.466  22.994  0.00  0.00    +0.000 A 
ATOM      4  C   UNL     1      -0.633  10.785  22.892  0.00  0.00    +0.000 A 
ATOM      5  C   UNL     1      -0.459  11.513  21.706  0.00  0.00    +0.000 A 
ATOM      6  C   UNL     1       0.192  10.890  20.628  0.00  0.00    +0.000 A 
ENDROOT
BRANCH   1   9
ATOM      7  C   UNL     1       2.578   7.760  18.332  0.00  0.00    +0.000 A 
ATOM      8  C   UNL     1       2.017   7.794  19.587  0.00  0.00    +0.000 A 
ATOM      9  N   UNL     1       1.363   9.002  19.646  0.00  0.00    +0.000 N 
ATOM     10  N   UNL     1       1.501   9.649  18.460  0.00  0.00    +0.000 NA
ATOM     11  N   UNL     1       2.242   8.898  17.656  0.00  0.00    +0.000 NA
BRANCH   7  15
ATOM     12  C   UNL     1       4.870   4.608  16.614  0.00  0.00    +0.000 A 
ATOM     13  C   UNL     1       5.261   5.938  16.459  0.00  0.00    +0.000 A 
ATOM     14  C   UNL     1       4.522   6.968  17.046  0.00  0.00    +0.000 A 
ATOM     15  C   UNL     1       3.362   6.680  17.773  0.00  0.00    +0.000 A 
ATOM     16  C   UNL     1       2.975   5.342  17.926  0.00  0.00    +0.000 A 
ATOM     17  C   UNL     1       3.724   4.311  17.348  0.00  0.00    +0.000 A 
BRANCH  12  19
ATOM     18  C   UNL     1       6.341   4.162  14.819  0.00  0.00    +0.000 C 
ATOM     19  O   UNL     1       5.658   3.691  15.975  0.00  0.00    +0.000 OA
ENDBRANCH  12  19
ENDBRANCH   7  15
ENDBRANCH   1   9
BRANCH   5  20
ATOM     20  C   UNL     1      -0.982  12.936  21.607  0.00  0.00    +0.000 C 
ATOM     21  C   UNL     1      -1.064  13.569  23.001  0.00  0.00    +0.000 C 
BRANCH  20  22
ATOM     22  S   UNL     1      -2.639  13.055  20.839  0.00  0.00    +0.000 S 
BRANCH  22  23
ATOM     23  C   UNL     1      -3.671  13.130  22.220  0.00  0.00    +0.000 A 
ATOM     24  N   UNL     1      -4.027  12.145  23.011  0.00  0.00    +0.000 NA
ATOM     25  N   UNL     1      -4.840  12.671  23.993  0.00  0.00    +0.000 NA
ATOM     26  C   UNL     1      -4.964  13.959  23.757  0.00  0.00    +0.000 A 
ATOM     27  N   UNL     1      -4.260  14.288  22.638  0.00  0.00    +0.000 N 
ATOM     28  C   UNL     1      -4.163  15.595  22.048  0.00  0.00    +0.000 C 
ENDBRANCH  22  23
ENDBRANCH  20  22
ENDBRANCH   5  20
TORSDOF 6
ENDMDL
