MODEL 1
REMARK VINA RESULT:      -8.3      0.000      0.000
REMARK  Name = 
REMARK  10 active torsions:
REMARK  status: ('A' for Active; 'I' for Inactive)
REMARK    1  A    between atoms: C_1  and  O_2
REMARK    2  A    between atoms: O_2  and  C_3
REMARK    3  A    between atoms: C_6  and  C_7
REMARK    4  A    between atoms: N_9  and  C_10
REMARK    5  A    between atoms: C_14  and  C_15
REMARK    6  A    between atoms: C_15  and  C_16
REMARK    7  A    between atoms: C_15  and  S_17
REMARK    8  A    between atoms: S_17  and  C_18
REMARK    9  A    between atoms: N_22  and  C_23
REMARK   10  A    between atoms: C_26  and  C_27
REMARK                            x       y       z     vdW  Elec       q    Type
REMARK                         _______ _______ _______ _____ _____    ______ ____
ROOT
ATOM      1  C   UNL     1       2.558   6.465  19.045  0.00  0.00    +0.000 C 
ATOM      2  O   UNL     1       1.978   5.800  19.899  0.00  0.00    +0.000 OA
ATOM      3  N   UNL     1       2.358   7.804  18.772  0.00  0.00    +0.000 N 
ATOM      4  H   UNL     1       2.826   8.154  17.940  0.00  0.00    +0.000 HD
ENDROOT
BRANCH   1   8
ATOM      5  C   UNL     1       5.398   4.469  16.629  0.00  0.00    +0.000 A 
ATOM      6  C   UNL     1       4.116   3.936  16.768  0.00  0.00    +0.000 A 
ATOM      7  C   UNL     1       3.182   4.601  17.546  0.00  0.00    +0.000 A 
ATOM      8  C   UNL     1       3.559   5.779  18.170  0.00  0.00    +0.000 A 
ATOM      9  N   UNL     1       4.790   6.342  18.053  0.00  0.00    +0.000 NA
ATOM     10  C   UNL     1       5.713   5.680  17.290  0.00  0.00    +0.000 A 
BRANCH  10  11
ATOM     11  C   UNL     1       7.086   6.312  17.131  0.00  0.00    +0.000 C 
ATOM     12  C   UNL     1       7.324   7.758  17.505  0.00  0.00    +0.000 C 
ATOM     13  C   UNL     1       7.904   6.666  18.352  0.00  0.00    +0.000 C 
ENDBRANCH  10  11
BRANCH   5  15
ATOM     14  C   UNL     1       6.281   3.968  14.478  0.00  0.00    +0.000 C 
ATOM     15  O   UNL     1       6.394   3.874  15.896  0.00  0.00    +0.000 OA
ENDBRANCH   5  15
ENDBRANCH   1   8
BRANCH   3  16
ATOM     16  C   UNL     1       1.502   8.674  19.483  0.00  0.00    +0.000 A 
ATOM     17  C   UNL     1       1.205   8.503  20.838  0.00  0.00    +0.000 A 
ATOM     18  C   UNL     1       0.343   9.375  21.497  0.00  0.00    +0.000 A 
ATOM     19  C   UNL     1      -0.243  10.430  20.804  0.00  0.00    +0.000 A 
ATOM     20  C   UNL     1       0.034  10.630  19.443  0.00  0.00    +0.000 A 
ATOM     21  C   UNL     1       0.931   9.753  18.799  0.00  0.00    +0.000 A 
BRANCH  20  22
ATOM     22  C   UNL     1      -0.679  11.749  18.703  0.00  0.00    +0.000 C 
ATOM     23  C   UNL     1      -0.317  13.108  19.312  0.00  0.00    +0.000 C 
BRANCH  22  24
ATOM     24  S   UNL     1      -2.496  11.599  18.733  0.00  0.00    +0.000 S 
BRANCH  24  25
ATOM     25  C   UNL     1      -2.844  11.011  17.150  0.00  0.00    +0.000 A 
ATOM     26  N   UNL     1      -2.057  10.336  16.350  0.00  0.00    +0.000 NA
ATOM     27  N   UNL     1      -2.763  10.083  15.188  0.00  0.00    +0.000 NA
ATOM     28  C   UNL     1      -3.954  10.620  15.323  0.00  0.00    +0.000 A 
ATOM     29  N   UNL     1      -4.043  11.230  16.538  0.00  0.00    +0.000 N 
ATOM     30  C   UNL     1      -5.179  11.945  17.053  0.00  0.00    +0.000 C 
ENDBRANCH  24  25
ENDBRANCH  22  24
ENDBRANCH  20  22
ENDBRANCH   3  16
TORSDOF 7
ENDMDL
MODEL 2
REMARK VINA RESULT:      -7.9      1.726      2.894
REMARK  Name = 
REMARK  10 active torsions:
REMARK  status: ('A' for Active; 'I' for Inactive)
REMARK    1  A    between atoms: C_1  and  O_2
REMARK    2  A    between atoms: O_2  and  C_3
REMARK    3  A    between atoms: C_6  and  C_7
REMARK    4  A    between atoms: N_9  and  C_10
REMARK    5  A    between atoms: C_14  and  C_15
REMARK    6  A    between atoms: C_15  and  C_16
REMARK    7  A    between atoms: C_15  and  S_17
REMARK    8  A    between atoms: S_17  and  C_18
REMARK    9  A    between atoms: N_22  and  C_23
REMARK   10  A    between atoms: C_26  and  C_27
REMARK                            x       y       z     vdW  Elec       q    Type
REMARK                         _______ _______ _______ _____ _____    ______ ____
ROOT
ATOM      1  C   UNL     1       2.036   8.335  18.913  0.00  0.00    +0.000 C 
ATOM      2  O   UNL     1       2.066   9.325  18.187  0.00  0.00    +0.000 OA
ATOM      3  N   UNL     1       1.436   8.245  20.154  0.00  0.00    +0.000 N 
ATOM      4  H   UNL     1       1.630   7.391  20.671  0.00  0.00    +0.000 HD
ENDROOT
BRANCH   1   8
ATOM      5  C   UNL     1       3.997   4.845  17.551  0.00  0.00    +0.000 A 
ATOM      6  C   UNL     1       4.402   6.092  17.074  0.00  0.00    +0.000 A 
ATOM      7  C   UNL     1       3.769   7.235  17.535  0.00  0.00    +0.000 A 
ATOM      8  C   UNL     1       2.744   7.099  18.456  0.00  0.00    +0.000 A 
ATOM      9  N   UNL     1       2.325   5.907  18.958  0.00  0.00    +0.000 NA
ATOM     10  C   UNL     1       2.946   4.778  18.495  0.00  0.00    +0.000 A 
BRANCH  10  11
ATOM     11  C   UNL     1       2.505   3.441  19.068  0.00  0.00    +0.000 C 
ATOM     12  C   UNL     1       1.246   3.328  19.897  0.00  0.00    +0.000 C 
ATOM     13  C   UNL     1       1.280   2.748  18.516  0.00  0.00    +0.000 C 
ENDBRANCH  10  11
BRANCH   5  15
ATOM     14  C   UNL     1       5.588   3.745  16.165  0.00  0.00    +0.000 C 
ATOM     15  O   UNL     1       4.550   3.658  17.139  0.00  0.00    +0.000 OA
ENDBRANCH   5  15
ENDBRANCH   1   8
BRANCH   3  16
ATOM     16  C   UNL     1       0.676   9.257  20.780  0.00  0.00    +0.000 A 
ATOM     17  C   UNL     1       0.428   9.276  22.155  0.00  0.00    +0.000 A 
ATOM     18  C   UNL     1      -0.341  10.285  22.729  0.00  0.00    +0.000 A 
ATOM     19  C   UNL     1      -0.883  11.287  21.929  0.00  0.00    +0.000 A 
ATOM     20  C   UNL     1      -0.654  11.297  20.545  0.00  0.00    +0.000 A 
ATOM     21  C   UNL     1       0.151  10.283  19.986  0.00  0.00    +0.000 A 
BRANCH  20  22
ATOM     22  C   UNL     1      -1.320  12.366  19.696  0.00  0.00    +0.000 C 
ATOM     23  C   UNL     1      -1.214  13.734  20.379  0.00  0.00    +0.000 C 
BRANCH  22  24
ATOM     24  S   UNL     1      -3.086  12.046  19.375  0.00  0.00    +0.000 S 
BRANCH  24  25
ATOM     25  C   UNL     1      -3.060  11.419  17.769  0.00  0.00    +0.000 A 
ATOM     26  N   UNL     1      -2.064  10.841  17.144  0.00  0.00    +0.000 NA
ATOM     27  N   UNL     1      -2.506  10.505  15.878  0.00  0.00    +0.000 NA
ATOM     28  C   UNL     1      -3.757  10.898  15.777  0.00  0.00    +0.000 A 
ATOM     29  N   UNL     1      -4.141  11.494  16.939  0.00  0.00    +0.000 N 
ATOM     30  C   UNL     1      -5.429  12.070  17.218  0.00  0.00    +0.000 C 
ENDBRANCH  24  25
ENDBRANCH  22  24
ENDBRANCH  20  22
ENDBRANCH   3  16
TORSDOF 7
ENDMDL
MODEL 3
REMARK VINA RESULT:      -7.8      2.140      3.517
REMARK  Name = 
REMARK  10 active torsions:
REMARK  status: ('A' for Active; 'I' for Inactive)
REMARK    1  A    between atoms: C_1  and  O_2
REMARK    2  A    between atoms: O_2  and  C_3
REMARK    3  A    between atoms: C_6  and  C_7
REMARK    4  A    between atoms: N_9  and  C_10
REMARK    5  A    between atoms: C_14  and  C_15
REMARK    6  A    between atoms: C_15  and  C_16
REMARK    7  A    between atoms: C_15  and  S_17
REMARK    8  A    between atoms: S_17  and  C_18
REMARK    9  A    between atoms: N_22  and  C_23
REMARK   10  A    between atoms: C_26  and  C_27
REMARK                            x       y       z     vdW  Elec       q    Type
REMARK                         _______ _______ _______ _____ _____    ______ ____
ROOT
ATOM      1  C   UNL     1       2.242   7.750  18.742  0.00  0.00    +0.000 C 
ATOM      2  O   UNL     1       1.946   7.645  19.929  0.00  0.00    +0.000 OA
ATOM      3  N   UNL     1       1.721   8.661  17.844  0.00  0.00    +0.000 N 
ATOM      4  H   UNL     1       1.980   8.512  16.872  0.00  0.00    +0.000 HD
ENDROOT
BRANCH   1   8
ATOM      5  C   UNL     1       4.997   5.022  17.055  0.00  0.00    +0.000 A 
ATOM      6  C   UNL     1       4.996   6.351  16.629  0.00  0.00    +0.000 A 
ATOM      7  C   UNL     1       4.104   7.246  17.196  0.00  0.00    +0.000 A 
ATOM      8  C   UNL     1       3.232   6.786  18.169  0.00  0.00    +0.000 A 
ATOM      9  N   UNL     1       3.206   5.505  18.624  0.00  0.00    +0.000 NA
ATOM     10  C   UNL     1       4.083   4.620  18.057  0.00  0.00    +0.000 A 
BRANCH  10  11
ATOM     11  C   UNL     1       4.081   3.191  18.574  0.00  0.00    +0.000 C 
ATOM     12  C   UNL     1       2.871   2.621  19.278  0.00  0.00    +0.000 C 
ATOM     13  C   UNL     1       3.224   2.143  17.902  0.00  0.00    +0.000 C 
ENDBRANCH  10  11
BRANCH   5  15
ATOM     14  C   UNL     1       6.994   4.524  15.861  0.00  0.00    +0.000 C 
ATOM     15  O   UNL     1       5.829   4.059  16.539  0.00  0.00    +0.000 OA
ENDBRANCH   5  15
ENDBRANCH   1   8
BRANCH   3  16
ATOM     16  C   UNL     1       0.809   9.695  18.150  0.00  0.00    +0.000 A 
ATOM     17  C   UNL     1       1.187  10.867  18.812  0.00  0.00    +0.000 A 
ATOM     18  C   UNL     1       0.251  11.854  19.108  0.00  0.00    +0.000 A 
ATOM     19  C   UNL     1      -1.083  11.676  18.754  0.00  0.00    +0.000 A 
ATOM     20  C   UNL     1      -1.496  10.511  18.089  0.00  0.00    +0.000 A 
ATOM     21  C   UNL     1      -0.529   9.536  17.772  0.00  0.00    +0.000 A 
BRANCH  20  22
ATOM     22  C   UNL     1      -2.972  10.323  17.782  0.00  0.00    +0.000 C 
ATOM     23  C   UNL     1      -3.153   9.703  16.392  0.00  0.00    +0.000 C 
BRANCH  22  24
ATOM     24  S   UNL     1      -3.928  11.875  17.821  0.00  0.00    +0.000 S 
BRANCH  24  25
ATOM     25  C   UNL     1      -5.294  11.441  18.779  0.00  0.00    +0.000 A 
ATOM     26  N   UNL     1      -6.240  10.581  18.493  0.00  0.00    +0.000 NA
ATOM     27  N   UNL     1      -7.124  10.565  19.557  0.00  0.00    +0.000 NA
ATOM     28  C   UNL     1      -6.685  11.423  20.450  0.00  0.00    +0.000 A 
ATOM     29  N   UNL     1      -5.544  12.011  19.994  0.00  0.00    +0.000 N 
ATOM     30  C   UNL     1      -4.772  13.015  20.672  0.00  0.00    +0.000 C 
ENDBRANCH  24  25
ENDBRANCH  22  24
ENDBRANCH  20  22
ENDBRANCH   3  16
TORSDOF 7
ENDMDL
MODEL 4
REMARK VINA RESULT:      -7.8      2.488      3.719
REMARK  Name = 
REMARK  10 active torsions:
REMARK  status: ('A' for Active; 'I' for Inactive)
REMARK    1  A    between atoms: C_1  and  O_2
REMARK    2  A    between atoms: O_2  and  C_3
REMARK    3  A    between atoms: C_6  and  C_7
REMARK    4  A    between atoms: N_9  and  C_10
REMARK    5  A    between atoms: C_14  and  C_15
REMARK    6  A    between atoms: C_15  and  C_16
REMARK    7  A    between atoms: C_15  and  S_17
REMARK    8  A    between atoms: S_17  and  C_18
REMARK    9  A    between atoms: N_22  and  C_23
REMARK   10  A    between atoms: C_26  and  C_27
REMARK                            x       y       z     vdW  Elec       q    Type
REMARK                         _______ _______ _______ _____ _____    ______ ____
ROOT
ATOM      1  C   UNL     1       2.670   6.274  19.371  0.00  0.00    +0.000 C 
ATOM      2  O   UNL     1       2.188   5.565  20.251  0.00  0.00    +0.000 OA
ATOM      3  N   UNL     1       2.395   7.609  19.149  0.00  0.00    +0.000 N 
ATOM      4  H   UNL     1       2.780   7.997  18.292  0.00  0.00    +0.000 HD
ENDROOT
BRANCH   1   8
ATOM      5  C   UNL     1       5.381   4.452  16.684  0.00  0.00    +0.000 A 
ATOM      6  C   UNL     1       4.104   3.913  16.845  0.00  0.00    +0.000 A 
ATOM      7  C   UNL     1       3.212   4.522  17.713  0.00  0.00    +0.000 A 
ATOM      8  C   UNL     1       3.625   5.651  18.402  0.00  0.00    +0.000 A 
ATOM      9  N   UNL     1       4.852   6.219  18.267  0.00  0.00    +0.000 NA
ATOM     10  C   UNL     1       5.734   5.611  17.414  0.00  0.00    +0.000 A 
BRANCH  10  11
ATOM     11  C   UNL     1       7.101   6.251  17.235  0.00  0.00    +0.000 C 
ATOM     12  C   UNL     1       7.324   7.711  17.558  0.00  0.00    +0.000 C 
ATOM     13  C   UNL     1       7.913   6.655  18.445  0.00  0.00    +0.000 C 
ENDBRANCH  10  11
BRANCH   5  15
ATOM     14  C   UNL     1       6.093   3.993  14.461  0.00  0.00    +0.000 C 
ATOM     15  O   UNL     1       6.338   3.909  15.863  0.00  0.00    +0.000 OA
ENDBRANCH   5  15
ENDBRANCH   1   8
BRANCH   3  16
ATOM     16  C   UNL     1       1.565   8.425  19.948  0.00  0.00    +0.000 A 
ATOM     17  C   UNL     1       1.379   8.207  21.316  0.00  0.00    +0.000 A 
ATOM     18  C   UNL     1       0.539   9.027  22.064  0.00  0.00    +0.000 A 
ATOM     19  C   UNL     1      -0.138  10.076  21.448  0.00  0.00    +0.000 A 
ATOM     20  C   UNL     1       0.026  10.322  20.076  0.00  0.00    +0.000 A 
ATOM     21  C   UNL     1       0.903   9.498  19.341  0.00  0.00    +0.000 A 
BRANCH  20  22
ATOM     22  C   UNL     1      -0.784  11.431  19.426  0.00  0.00    +0.000 C 
ATOM     23  C   UNL     1      -1.665  10.865  18.307  0.00  0.00    +0.000 C 
BRANCH  22  24
ATOM     24  S   UNL     1       0.243  12.753  18.701  0.00  0.00    +0.000 S 
BRANCH  24  25
ATOM     25  C   UNL     1       0.927  13.496  20.099  0.00  0.00    +0.000 A 
ATOM     26  N   UNL     1       0.371  13.671  21.273  0.00  0.00    +0.000 NA
ATOM     27  N   UNL     1       1.295  14.312  22.078  0.00  0.00    +0.000 NA
ATOM     28  C   UNL     1       2.378  14.509  21.361  0.00  0.00    +0.000 A 
ATOM     29  N   UNL     1       2.184  14.026  20.102  0.00  0.00    +0.000 N 
ATOM     30  C   UNL     1       3.127  14.067  19.018  0.00  0.00    +0.000 C 
ENDBRANCH  24  25
ENDBRANCH  22  24
ENDBRANCH  20  22
ENDBRANCH   3  16
TORSDOF 7
ENDMDL
MODEL 5
REMARK VINA RESULT:      -7.7      1.390      2.438
REMARK  Name = 
REMARK  10 active torsions:
REMARK  status: ('A' for Active; 'I' for Inactive)
REMARK    1  A    between atoms: C_1  and  O_2
REMARK    2  A    between atoms: O_2  and  C_3
REMARK    3  A    between atoms: C_6  and  C_7
REMARK    4  A    between atoms: N_9  and  C_10
REMARK    5  A    between atoms: C_14  and  C_15
REMARK    6  A    between atoms: C_15  and  C_16
REMARK    7  A    between atoms: C_15  and  S_17
REMARK    8  A    between atoms: S_17  and  C_18
REMARK    9  A    between atoms: N_22  and  C_23
REMARK   10  A    between atoms: C_26  and  C_27
REMARK                            x       y       z     vdW  Elec       q    Type
REMARK                         _______ _______ _______ _____ _____    ______ ____
ROOT
ATOM      1  C   UNL     1       2.068   7.050  19.715  0.00  0.00    +0.000 C 
ATOM      2  O   UNL     1       1.590   6.382  20.628  0.00  0.00    +0.000 OA
ATOM      3  N   UNL     1       1.825   8.386  19.461  0.00  0.00    +0.000 N 
ATOM      4  H   UNL     1       2.197   8.738  18.583  0.00  0.00    +0.000 HD
ENDROOT
BRANCH   1   8
ATOM      5  C   UNL     1       4.583   5.148  16.897  0.00  0.00    +0.000 A 
ATOM      6  C   UNL     1       4.496   6.541  16.912  0.00  0.00    +0.000 A 
ATOM      7  C   UNL     1       3.684   7.162  17.848  0.00  0.00    +0.000 A 
ATOM      8  C   UNL     1       2.976   6.372  18.739  0.00  0.00    +0.000 A 
ATOM      9  N   UNL     1       3.040   5.015  18.770  0.00  0.00    +0.000 NA
ATOM     10  C   UNL     1       3.837   4.403  17.840  0.00  0.00    +0.000 A 
BRANCH  10  11
ATOM     11  C   UNL     1       3.937   2.887  17.880  0.00  0.00    +0.000 C 
ATOM     12  C   UNL     1       3.396   2.103  19.055  0.00  0.00    +0.000 C 
ATOM     13  C   UNL     1       2.692   2.041  17.733  0.00  0.00    +0.000 C 
ENDBRANCH  10  11
BRANCH   5  15
ATOM     14  C   UNL     1       6.757   4.499  16.179  0.00  0.00    +0.000 C 
ATOM     15  O   UNL     1       5.343   4.444  15.997  0.00  0.00    +0.000 OA
ENDBRANCH   5  15
ENDBRANCH   1   8
BRANCH   3  16
ATOM     16  C   UNL     1       1.041   9.249  20.258  0.00  0.00    +0.000 A 
ATOM     17  C   UNL     1       0.852   9.051  21.629  0.00  0.00    +0.000 A 
ATOM     18  C   UNL     1       0.058   9.918  22.374  0.00  0.00    +0.000 A 
ATOM     19  C   UNL     1      -0.568  10.994  21.754  0.00  0.00    +0.000 A 
ATOM     20  C   UNL     1      -0.400  11.222  20.379  0.00  0.00    +0.000 A 
ATOM     21  C   UNL     1       0.431  10.350  19.646  0.00  0.00    +0.000 A 
BRANCH  20  22
ATOM     22  C   UNL     1      -1.156  12.365  19.724  0.00  0.00    +0.000 C 
ATOM     23  C   UNL     1      -1.027  13.642  20.563  0.00  0.00    +0.000 C 
BRANCH  22  24
ATOM     24  S   UNL     1      -2.935  12.030  19.503  0.00  0.00    +0.000 S 
BRANCH  24  25
ATOM     25  C   UNL     1      -3.007  11.492  17.867  0.00  0.00    +0.000 A 
ATOM     26  N   UNL     1      -2.021  11.086  17.106  0.00  0.00    +0.000 NA
ATOM     27  N   UNL     1      -2.554  10.756  15.874  0.00  0.00    +0.000 NA
ATOM     28  C   UNL     1      -3.848  10.980  15.928  0.00  0.00    +0.000 A 
ATOM     29  N   UNL     1      -4.174  11.460  17.160  0.00  0.00    +0.000 N 
ATOM     30  C   UNL     1      -5.487  11.841  17.607  0.00  0.00    +0.000 C 
ENDBRANCH  24  25
ENDBRANCH  22  24
ENDBRANCH  20  22
ENDBRANCH   3  16
TORSDOF 7
ENDMDL
MODEL 6
REMARK VINA RESULT:      -7.6      2.260      3.193
REMARK  Name = 
REMARK  10 active torsions:
REMARK  status: ('A' for Active; 'I' for Inactive)
REMARK    1  A    between atoms: C_1  and  O_2
REMARK    2  A    between atoms: O_2  and  C_3
REMARK    3  A    between atoms: C_6  and  C_7
REMARK    4  A    between atoms: N_9  and  C_10
REMARK    5  A    between atoms: C_14  and  C_15
REMARK    6  A    between atoms: C_15  and  C_16
REMARK    7  A    between atoms: C_15  and  S_17
REMARK    8  A    between atoms: S_17  and  C_18
REMARK    9  A    between atoms: N_22  and  C_23
REMARK   10  A    between atoms: C_26  and  C_27
REMARK                            x       y       z     vdW  Elec       q    Type
REMARK                         _______ _______ _______ _____ _____    ______ ____
ROOT
ATOM      1  C   UNL     1       2.221   8.297  18.371  0.00  0.00    +0.000 C 
ATOM      2  O   UNL     1       2.356   8.830  17.272  0.00  0.00    +0.000 OA
ATOM      3  N   UNL     1       1.472   8.775  19.429  0.00  0.00    +0.000 N 
ATOM      4  H   UNL     1       1.588   8.273  20.305  0.00  0.00    +0.000 HD
ENDROOT
BRANCH   1   8
ATOM      5  C   UNL     1       4.320   4.720  19.196  0.00  0.00    +0.000 A 
ATOM      6  C   UNL     1       3.042   4.905  19.723  0.00  0.00    +0.000 A 
ATOM      7  C   UNL     1       2.349   6.071  19.437  0.00  0.00    +0.000 A 
ATOM      8  C   UNL     1       2.958   7.023  18.636  0.00  0.00    +0.000 A 
ATOM      9  N   UNL     1       4.195   6.880  18.090  0.00  0.00    +0.000 NA
ATOM     10  C   UNL     1       4.880   5.731  18.380  0.00  0.00    +0.000 A 
BRANCH  10  11
ATOM     11  C   UNL     1       6.253   5.549  17.755  0.00  0.00    +0.000 C 
ATOM     12  C   UNL     1       7.079   6.742  17.329  0.00  0.00    +0.000 C 
ATOM     13  C   UNL     1       7.495   5.939  18.525  0.00  0.00    +0.000 C 
ENDBRANCH  10  11
BRANCH   5  15
ATOM     14  C   UNL     1       4.397   2.438  19.866  0.00  0.00    +0.000 C 
ATOM     15  O   UNL     1       5.090   3.610  19.439  0.00  0.00    +0.000 OA
ENDBRANCH   5  15
ENDBRANCH   1   8
BRANCH   3  16
ATOM     16  C   UNL     1       0.658   9.928  19.411  0.00  0.00    +0.000 A 
ATOM     17  C   UNL     1       1.033  11.129  20.020  0.00  0.00    +0.000 A 
ATOM     18  C   UNL     1       0.192  12.239  19.992  0.00  0.00    +0.000 A 
ATOM     19  C   UNL     1      -1.045  12.158  19.360  0.00  0.00    +0.000 A 
ATOM     20  C   UNL     1      -1.452  10.967  18.740  0.00  0.00    +0.000 A 
ATOM     21  C   UNL     1      -0.575   9.863  18.753  0.00  0.00    +0.000 A 
BRANCH  20  22
ATOM     22  C   UNL     1      -2.839  10.895  18.122  0.00  0.00    +0.000 C 
ATOM     23  C   UNL     1      -2.748  10.971  16.594  0.00  0.00    +0.000 C 
BRANCH  22  24
ATOM     24  S   UNL     1      -3.951  12.230  18.674  0.00  0.00    +0.000 S 
BRANCH  24  25
ATOM     25  C   UNL     1      -5.395  11.370  19.059  0.00  0.00    +0.000 A 
ATOM     26  N   UNL     1      -5.991  10.439  18.357  0.00  0.00    +0.000 NA
ATOM     27  N   UNL     1      -7.114  10.042  19.060  0.00  0.00    +0.000 NA
ATOM     28  C   UNL     1      -7.163  10.754  20.164  0.00  0.00    +0.000 A 
ATOM     29  N   UNL     1      -6.109  11.616  20.196  0.00  0.00    +0.000 N 
ATOM     30  C   UNL     1      -5.821  12.573  21.229  0.00  0.00    +0.000 C 
ENDBRANCH  24  25
ENDBRANCH  22  24
ENDBRANCH  20  22
ENDBRANCH   3  16
TORSDOF 7
ENDMDL
MODEL 7
REMARK VINA RESULT:      -7.6      1.923      2.742
REMARK  Name = 
REMARK  10 active torsions:
REMARK  status: ('A' for Active; 'I' for Inactive)
REMARK    1  A    between atoms: C_1  and  O_2
REMARK    2  A    between atoms: O_2  and  C_3
REMARK    3  A    between atoms: C_6  and  C_7
REMARK    4  A    between atoms: N_9  and  C_10
REMARK    5  A    between atoms: C_14  and  C_15
REMARK    6  A    between atoms: C_15  and  C_16
REMARK    7  A    between atoms: C_15  and  S_17
REMARK    8  A    between atoms: S_17  and  C_18
REMARK    9  A    between atoms: N_22  and  C_23
REMARK   10  A    between atoms: C_26  and  C_27
REMARK                            x       y       z     vdW  Elec       q    Type
REMARK                         _______ _______ _______ _____ _____    ______ ____
ROOT
ATOM      1  C   UNL     1       1.871   7.659  19.972  0.00  0.00    +0.000 C 
ATOM      2  O   UNL     1       1.926   8.483  19.063  0.00  0.00    +0.000 OA
ATOM      3  N   UNL     1       1.320   7.853  21.224  0.00  0.00    +0.000 N 
ATOM      4  H   UNL     1       1.488   7.107  21.894  0.00  0.00    +0.000 HD
ENDROOT
BRANCH   1   8
ATOM      5  C   UNL     1       3.654   3.865  19.412  0.00  0.00    +0.000 A 
ATOM      6  C   UNL     1       2.627   4.012  20.344  0.00  0.00    +0.000 A 
ATOM      7  C   UNL     1       2.032   5.252  20.514  0.00  0.00    +0.000 A 
ATOM      8  C   UNL     1       2.487   6.314  19.749  0.00  0.00    +0.000 A 
ATOM      9  N   UNL     1       3.475   6.215  18.820  0.00  0.00    +0.000 NA
ATOM     10  C   UNL     1       4.066   4.991  18.660  0.00  0.00    +0.000 A 
BRANCH  10  11
ATOM     11  C   UNL     1       5.153   4.862  17.607  0.00  0.00    +0.000 C 
ATOM     12  C   UNL     1       4.871   4.204  16.275  0.00  0.00    +0.000 C 
ATOM     13  C   UNL     1       5.084   5.686  16.341  0.00  0.00    +0.000 C 
ENDBRANCH  10  11
BRANCH   5  15
ATOM     14  C   UNL     1       3.543   1.619  18.634  0.00  0.00    +0.000 C 
ATOM     15  O   UNL     1       4.315   2.683  19.188  0.00  0.00    +0.000 OA
ENDBRANCH   5  15
ENDBRANCH   1   8
BRANCH   3  16
ATOM     16  C   UNL     1       0.645   9.014  21.659  0.00  0.00    +0.000 A 
ATOM     17  C   UNL     1      -0.093   9.062  22.845  0.00  0.00    +0.000 A 
ATOM     18  C   UNL     1      -0.757  10.224  23.229  0.00  0.00    +0.000 A 
ATOM     19  C   UNL     1      -0.698  11.356  22.422  0.00  0.00    +0.000 A 
ATOM     20  C   UNL     1       0.034  11.342  21.225  0.00  0.00    +0.000 A 
ATOM     21  C   UNL     1       0.723  10.165  20.867  0.00  0.00    +0.000 A 
BRANCH  20  22
ATOM     22  C   UNL     1       0.016  12.575  20.337  0.00  0.00    +0.000 C 
ATOM     23  C   UNL     1       0.616  13.776  21.077  0.00  0.00    +0.000 C 
BRANCH  22  24
ATOM     24  S   UNL     1      -1.655  13.049  19.782  0.00  0.00    +0.000 S 
BRANCH  24  25
ATOM     25  C   UNL     1      -2.054  11.779  18.686  0.00  0.00    +0.000 A 
ATOM     26  N   UNL     1      -1.237  11.031  17.987  0.00  0.00    +0.000 NA
ATOM     27  N   UNL     1      -2.006  10.150  17.250  0.00  0.00    +0.000 NA
ATOM     28  C   UNL     1      -3.267  10.400  17.524  0.00  0.00    +0.000 A 
ATOM     29  N   UNL     1      -3.344  11.430  18.411  0.00  0.00    +0.000 N 
ATOM     30  C   UNL     1      -4.547  12.010  18.944  0.00  0.00    +0.000 C 
ENDBRANCH  24  25
ENDBRANCH  22  24
ENDBRANCH  20  22
ENDBRANCH   3  16
TORSDOF 7
ENDMDL
MODEL 8
REMARK VINA RESULT:      -7.6      2.135      2.959
REMARK  Name = 
REMARK  10 active torsions:
REMARK  status: ('A' for Active; 'I' for Inactive)
REMARK    1  A    between atoms: C_1  and  O_2
REMARK    2  A    between atoms: O_2  and  C_3
REMARK    3  A    between atoms: C_6  and  C_7
REMARK    4  A    between atoms: N_9  and  C_10
REMARK    5  A    between atoms: C_14  and  C_15
REMARK    6  A    between atoms: C_15  and  C_16
REMARK    7  A    between atoms: C_15  and  S_17
REMARK    8  A    between atoms: S_17  and  C_18
REMARK    9  A    between atoms: N_22  and  C_23
REMARK   10  A    between atoms: C_26  and  C_27
REMARK                            x       y       z     vdW  Elec       q    Type
REMARK                         _______ _______ _______ _____ _____    ______ ____
ROOT
ATOM      1  C   UNL     1       2.851   6.254  18.680  0.00  0.00    +0.000 C 
ATOM      2  O   UNL     1       2.118   5.386  19.147  0.00  0.00    +0.000 OA
ATOM      3  N   UNL     1       2.712   7.619  18.840  0.00  0.00    +0.000 N 
ATOM      4  H   UNL     1       3.329   8.190  18.269  0.00  0.00    +0.000 HD
ENDROOT
BRANCH   1   8
ATOM      5  C   UNL     1       6.099   4.987  16.286  0.00  0.00    +0.000 A 
ATOM      6  C   UNL     1       4.904   4.268  16.261  0.00  0.00    +0.000 A 
ATOM      7  C   UNL     1       3.835   4.695  17.033  0.00  0.00    +0.000 A 
ATOM      8  C   UNL     1       3.995   5.828  17.815  0.00  0.00    +0.000 A 
ATOM      9  N   UNL     1       5.134   6.567  17.861  0.00  0.00    +0.000 NA
ATOM     10  C   UNL     1       6.191   6.138  17.104  0.00  0.00    +0.000 A 
BRANCH  10  11
ATOM     11  C   UNL     1       7.463   6.970  17.127  0.00  0.00    +0.000 C 
ATOM     12  C   UNL     1       7.464   8.373  17.691  0.00  0.00    +0.000 C 
ATOM     13  C   UNL     1       8.149   7.270  18.441  0.00  0.00    +0.000 C 
ENDBRANCH  10  11
BRANCH   5  15
ATOM     14  C   UNL     1       7.071   4.570  14.155  0.00  0.00    +0.000 C 
ATOM     15  O   UNL     1       7.216   4.631  15.572  0.00  0.00    +0.000 OA
ENDBRANCH   5  15
ENDBRANCH   1   8
BRANCH   3  16
ATOM     16  C   UNL     1       1.743   8.263  19.640  0.00  0.00    +0.000 A 
ATOM     17  C   UNL     1       1.677   8.100  21.027  0.00  0.00    +0.000 A 
ATOM     18  C   UNL     1       0.694   8.742  21.776  0.00  0.00    +0.000 A 
ATOM     19  C   UNL     1      -0.246   9.550  21.144  0.00  0.00    +0.000 A 
ATOM     20  C   UNL     1      -0.208   9.734  19.753  0.00  0.00    +0.000 A 
ATOM     21  C   UNL     1       0.812   9.099  19.014  0.00  0.00    +0.000 A 
BRANCH  20  22
ATOM     22  C   UNL     1      -1.293  10.567  19.091  0.00  0.00    +0.000 C 
ATOM     23  C   UNL     1      -1.219  10.426  17.566  0.00  0.00    +0.000 C 
BRANCH  22  24
ATOM     24  S   UNL     1      -1.189  12.344  19.485  0.00  0.00    +0.000 S 
BRANCH  24  25
ATOM     25  C   UNL     1      -2.513  12.559  20.568  0.00  0.00    +0.000 A 
ATOM     26  N   UNL     1      -3.791  12.608  20.282  0.00  0.00    +0.000 NA
ATOM     27  N   UNL     1      -4.477  12.795  21.467  0.00  0.00    +0.000 NA
ATOM     28  C   UNL     1      -3.588  12.860  22.434  0.00  0.00    +0.000 A 
ATOM     29  N   UNL     1      -2.337  12.733  21.910  0.00  0.00    +0.000 N 
ATOM     30  C   UNL     1      -1.099  12.768  22.640  0.00  0.00    +0.000 C 
ENDBRANCH  24  25
ENDBRANCH  22  24
ENDBRANCH  20  22
ENDBRANCH   3  16
TORSDOF 7
ENDMDL
MODEL 9
REMARK VINA RESULT:      -7.6      3.511      5.326
REMARK  Name = 
REMARK  10 active torsions:
REMARK  status: ('A' for Active; 'I' for Inactive)
REMARK    1  A    between atoms: C_1  and  O_2
REMARK    2  A    between atoms: O_2  and  C_3
REMARK    3  A    between atoms: C_6  and  C_7
REMARK    4  A    between atoms: N_9  and  C_10
REMARK    5  A    between atoms: C_14  and  C_15
REMARK    6  A    between atoms: C_15  and  C_16
REMARK    7  A    between atoms: C_15  and  S_17
REMARK    8  A    between atoms: S_17  and  C_18
REMARK    9  A    between atoms: N_22  and  C_23
REMARK   10  A    between atoms: C_26  and  C_27
REMARK                            x       y       z     vdW  Elec       q    Type
REMARK                         _______ _______ _______ _____ _____    ______ ____
ROOT
ATOM      1  C   UNL     1       2.303   8.366  18.101  0.00  0.00    +0.000 C 
ATOM      2  O   UNL     1       2.575   8.867  17.013  0.00  0.00    +0.000 OA
ATOM      3  N   UNL     1       1.419   8.865  19.037  0.00  0.00    +0.000 N 
ATOM      4  H   UNL     1       1.424   8.392  19.936  0.00  0.00    +0.000 HD
ENDROOT
BRANCH   1   8
ATOM      5  C   UNL     1       4.326   4.851  19.300  0.00  0.00    +0.000 A 
ATOM      6  C   UNL     1       3.072   5.142  19.839  0.00  0.00    +0.000 A 
ATOM      7  C   UNL     1       2.403   6.285  19.431  0.00  0.00    +0.000 A 
ATOM      8  C   UNL     1       3.012   7.110  18.500  0.00  0.00    +0.000 A 
ATOM      9  N   UNL     1       4.225   6.861  17.939  0.00  0.00    +0.000 NA
ATOM     10  C   UNL     1       4.886   5.735  18.349  0.00  0.00    +0.000 A 
BRANCH  10  11
ATOM     11  C   UNL     1       6.231   5.431  17.710  0.00  0.00    +0.000 C 
ATOM     12  C   UNL     1       7.075   6.535  17.112  0.00  0.00    +0.000 C 
ATOM     13  C   UNL     1       7.509   5.875  18.386  0.00  0.00    +0.000 C 
ENDBRANCH  10  11
BRANCH   5  15
ATOM     14  C   UNL     1       4.397   2.497  19.641  0.00  0.00    +0.000 C 
ATOM     15  O   UNL     1       5.070   3.754  19.656  0.00  0.00    +0.000 OA
ENDBRANCH   5  15
ENDBRANCH   1   8
BRANCH   3  16
ATOM     16  C   UNL     1       0.603  10.006  18.877  0.00  0.00    +0.000 A 
ATOM     17  C   UNL     1      -0.683   9.946  18.331  0.00  0.00    +0.000 A 
ATOM     18  C   UNL     1      -1.449  11.099  18.176  0.00  0.00    +0.000 A 
ATOM     19  C   UNL     1      -0.932  12.333  18.558  0.00  0.00    +0.000 A 
ATOM     20  C   UNL     1       0.356  12.428  19.109  0.00  0.00    +0.000 A 
ATOM     21  C   UNL     1       1.105  11.246  19.284  0.00  0.00    +0.000 A 
BRANCH  20  22
ATOM     22  C   UNL     1       0.912  13.801  19.448  0.00  0.00    +0.000 C 
ATOM     23  C   UNL     1       0.098  14.895  18.749  0.00  0.00    +0.000 C 
BRANCH  22  24
ATOM     24  S   UNL     1       2.657  14.019  18.965  0.00  0.00    +0.000 S 
BRANCH  24  25
ATOM     25  C   UNL     1       3.438  14.219  20.489  0.00  0.00    +0.000 A 
ATOM     26  N   UNL     1       2.973  13.929  21.679  0.00  0.00    +0.000 NA
ATOM     27  N   UNL     1       3.949  14.262  22.600  0.00  0.00    +0.000 NA
ATOM     28  C   UNL     1       4.972  14.750  21.935  0.00  0.00    +0.000 A 
ATOM     29  N   UNL     1       4.687  14.758  20.603  0.00  0.00    +0.000 N 
ATOM     30  C   UNL     1       5.543  15.231  19.550  0.00  0.00    +0.000 C 
ENDBRANCH  24  25
ENDBRANCH  22  24
ENDBRANCH  20  22
ENDBRANCH   3  16
TORSDOF 7
ENDMDL
