MODEL 1
REMARK VINA RESULT:      -9.9      0.000      0.000
REMARK  Name = 
REMARK  12 active torsions:
REMARK  status: ('A' for Active; 'I' for Inactive)
REMARK    1  A    between atoms: C_1  and  C_2
REMARK    2  A    between atoms: C_2  and  O_3
REMARK    3  A    between atoms: O_3  and  C_4
REMARK    4  A    between atoms: C_6  and  N_7
REMARK    5  A    between atoms: C_12  and  C_13
REMARK    6  A    between atoms: C_13  and  C_14
REMARK    7  A    between atoms: C_13  and  N_15
REMARK    8  A    between atoms: C_22  and  C_23
REMARK    9  A    between atoms: C_30  and  C_31
REMARK   10  A    between atoms: C_31  and  C_32
REMARK   11  A    between atoms: C_32  and  C_33
REMARK   12  A    between atoms: N_37  and  C_38
REMARK                            x       y       z     vdW  Elec       q    Type
REMARK                         _______ _______ _______ _____ _____    ______ ____
ROOT
ATOM      1  N   UNL     1       1.434   9.128  19.512  0.00  0.00    +0.000 N 
ATOM      2  C   UNL     1       1.731   8.019  20.395  0.00  0.00    +0.000 C 
ATOM      3  C   UNL     1       2.285   7.001  19.473  0.00  0.00    +0.000 A 
ATOM      4  C   UNL     1       2.811   7.655  18.363  0.00  0.00    +0.000 A 
ATOM      5  C   UNL     1       3.668   6.997  17.492  0.00  0.00    +0.000 A 
ATOM      6  C   UNL     1       3.918   5.622  17.712  0.00  0.00    +0.000 A 
ATOM      7  C   UNL     1       3.161   4.941  18.697  0.00  0.00    +0.000 A 
ATOM      8  C   UNL     1       2.302   5.622  19.571  0.00  0.00    +0.000 A 
ATOM      9  C   UNL     1       2.126   8.992  18.304  0.00  0.00    +0.000 C 
ATOM     10  O   UNL     1       2.152   9.721  17.330  0.00  0.00    +0.000 OA
ENDROOT
BRANCH   1  13
ATOM     11  C   UNL     1      -0.589  11.905  21.022  0.00  0.00    +0.000 A 
ATOM     12  C   UNL     1       0.440  10.946  20.905  0.00  0.00    +0.000 A 
ATOM     13  C   UNL     1       0.371   9.991  19.892  0.00  0.00    +0.000 A 
ATOM     14  C   UNL     1      -0.764   9.992  19.065  0.00  0.00    +0.000 A 
ATOM     15  C   UNL     1      -1.781  10.957  19.097  0.00  0.00    +0.000 A 
ATOM     16  C   UNL     1      -1.662  11.913  20.111  0.00  0.00    +0.000 A 
BRANCH  15  17
ATOM     17  C   UNL     1      -2.911  10.959  17.963  0.00  0.00    +0.000 C 
ATOM     18  C   UNL     1      -2.470  11.063  16.475  0.00  0.00    +0.000 C 
ATOM     19  O   UNL     1      -3.395  10.007  16.102  0.00  0.00    +0.000 OA
ATOM     20  C   UNL     1      -3.408   9.558  17.485  0.00  0.00    +0.000 C 
BRANCH  17  21
ATOM     21  C   UNL     1      -4.012  11.998  18.237  0.00  0.00    +0.000 C 
BRANCH  21  22
ATOM     22  C   UNL     1      -5.272  11.490  18.849  0.00  0.00    +0.000 A 
ATOM     23  N   UNL     1      -6.184  10.717  18.293  0.00  0.00    +0.000 NA
ATOM     24  N   UNL     1      -7.202  10.541  19.197  0.00  0.00    +0.000 NA
ATOM     25  C   UNL     1      -6.920  11.233  20.266  0.00  0.00    +0.000 A 
ATOM     26  N   UNL     1      -5.711  11.845  20.097  0.00  0.00    +0.000 N 
ATOM     27  C   UNL     1      -5.067  12.722  21.040  0.00  0.00    +0.000 C 
ENDBRANCH  21  22
ENDBRANCH  17  21
ENDBRANCH  15  17
BRANCH  11  28
ATOM     28  O   UNL     1      -0.428  12.874  21.988  0.00  0.00    +0.000 OA
BRANCH  28  30
ATOM     29  C   UNL     1      -2.289  13.019  23.520  0.00  0.00    +0.000 C 
ATOM     30  C   UNL     1      -1.609  13.623  22.303  0.00  0.00    +0.000 C 
ENDBRANCH  28  30
ENDBRANCH  11  28
ENDBRANCH   1  13
BRANCH   8  31
ATOM     31  C   UNL     1       1.324   4.846  20.418  0.00  0.00    +0.000 C 
ATOM     32  F   UNL     1       0.226   5.553  20.800  0.00  0.00    +0.000 F 
ATOM     33  F   UNL     1       0.833   3.768  19.744  0.00  0.00    +0.000 F 
ATOM     34  F   UNL     1       1.870   4.361  21.563  0.00  0.00    +0.000 F 
ENDBRANCH   8  31
BRANCH   6  35
ATOM     35  C   UNL     1       4.924   4.829  16.865  0.00  0.00    +0.000 C 
ATOM     36  C   UNL     1       4.437   3.369  16.793  0.00  0.00    +0.000 C 
BRANCH  35  37
ATOM     37  N   UNL     1       6.300   4.898  17.414  0.00  0.00    +0.000 NA
ATOM     38  C   UNL     1       7.144   5.970  16.858  0.00  0.00    +0.000 C 
ATOM     39  C   UNL     1       7.625   6.825  18.022  0.00  0.00    +0.000 C 
ATOM     40  C   UNL     1       7.579   5.880  19.194  0.00  0.00    +0.000 C 
ATOM     41  F   UNL     1       8.710   5.126  19.204  0.00  0.00    +0.000 F 
ATOM     42  C   UNL     1       6.369   5.009  18.886  0.00  0.00    +0.000 C 
ENDBRANCH  35  37
ENDBRANCH   6  35
TORSDOF 9
ENDMDL
MODEL 2
REMARK VINA RESULT:      -9.6      0.611      1.111
REMARK  Name = 
REMARK  12 active torsions:
REMARK  status: ('A' for Active; 'I' for Inactive)
REMARK    1  A    between atoms: C_1  and  C_2
REMARK    2  A    between atoms: C_2  and  O_3
REMARK    3  A    between atoms: O_3  and  C_4
REMARK    4  A    between atoms: C_6  and  N_7
REMARK    5  A    between atoms: C_12  and  C_13
REMARK    6  A    between atoms: C_13  and  C_14
REMARK    7  A    between atoms: C_13  and  N_15
REMARK    8  A    between atoms: C_22  and  C_23
REMARK    9  A    between atoms: C_30  and  C_31
REMARK   10  A    between atoms: C_31  and  C_32
REMARK   11  A    between atoms: C_32  and  C_33
REMARK   12  A    between atoms: N_37  and  C_38
REMARK                            x       y       z     vdW  Elec       q    Type
REMARK                         _______ _______ _______ _____ _____    ______ ____
ROOT
ATOM      1  N   UNL     1       1.398   9.169  19.681  0.00  0.00    +0.000 N 
ATOM      2  C   UNL     1       1.741   8.031  20.509  0.00  0.00    +0.000 C 
ATOM      3  C   UNL     1       2.263   7.054  19.528  0.00  0.00    +0.000 A 
ATOM      4  C   UNL     1       2.737   7.752  18.421  0.00  0.00    +0.000 A 
ATOM      5  C   UNL     1       3.561   7.135  17.492  0.00  0.00    +0.000 A 
ATOM      6  C   UNL     1       3.830   5.755  17.649  0.00  0.00    +0.000 A 
ATOM      7  C   UNL     1       3.121   5.032  18.640  0.00  0.00    +0.000 A 
ATOM      8  C   UNL     1       2.295   5.671  19.574  0.00  0.00    +0.000 A 
ATOM      9  C   UNL     1       2.039   9.084  18.441  0.00  0.00    +0.000 C 
ATOM     10  O   UNL     1       2.018   9.849  17.494  0.00  0.00    +0.000 OA
ENDROOT
BRANCH   1  13
ATOM     11  C   UNL     1      -0.591  11.829  21.430  0.00  0.00    +0.000 A 
ATOM     12  C   UNL     1       0.427  10.873  21.227  0.00  0.00    +0.000 A 
ATOM     13  C   UNL     1       0.346  10.007  20.138  0.00  0.00    +0.000 A 
ATOM     14  C   UNL     1      -0.792  10.091  19.318  0.00  0.00    +0.000 A 
ATOM     15  C   UNL     1      -1.799  11.060  19.436  0.00  0.00    +0.000 A 
ATOM     16  C   UNL     1      -1.667  11.925  20.527  0.00  0.00    +0.000 A 
BRANCH  15  17
ATOM     17  C   UNL     1      -2.933  11.169  18.311  0.00  0.00    +0.000 C 
ATOM     18  C   UNL     1      -2.499  11.171  16.817  0.00  0.00    +0.000 C 
ATOM     19  O   UNL     1      -3.553  10.229  16.485  0.00  0.00    +0.000 OA
ATOM     20  C   UNL     1      -3.607   9.828  17.881  0.00  0.00    +0.000 C 
BRANCH  17  21
ATOM     21  C   UNL     1      -3.890  12.347  18.559  0.00  0.00    +0.000 C 
BRANCH  21  22
ATOM     22  C   UNL     1      -5.131  12.047  19.328  0.00  0.00    +0.000 A 
ATOM     23  N   UNL     1      -5.235  11.746  20.607  0.00  0.00    +0.000 NA
ATOM     24  N   UNL     1      -6.556  11.493  20.881  0.00  0.00    +0.000 NA
ATOM     25  C   UNL     1      -7.228  11.604  19.769  0.00  0.00    +0.000 A 
ATOM     26  N   UNL     1      -6.376  11.956  18.763  0.00  0.00    +0.000 N 
ATOM     27  C   UNL     1      -6.730  12.144  17.379  0.00  0.00    +0.000 C 
ENDBRANCH  21  22
ENDBRANCH  17  21
ENDBRANCH  15  17
BRANCH  11  28
ATOM     28  O   UNL     1      -0.416  12.711  22.473  0.00  0.00    +0.000 OA
BRANCH  28  30
ATOM     29  C   UNL     1      -1.247  14.406  23.981  0.00  0.00    +0.000 C 
ATOM     30  C   UNL     1      -1.580  13.465  22.835  0.00  0.00    +0.000 C 
ENDBRANCH  28  30
ENDBRANCH  11  28
ENDBRANCH   1  13
BRANCH   8  31
ATOM     31  C   UNL     1       1.360   4.856  20.431  0.00  0.00    +0.000 C 
ATOM     32  F   UNL     1       0.909   3.714  19.845  0.00  0.00    +0.000 F 
ATOM     33  F   UNL     1       1.970   4.446  21.579  0.00  0.00    +0.000 F 
ATOM     34  F   UNL     1       0.249   5.539  20.815  0.00  0.00    +0.000 F 
ENDBRANCH   8  31
BRANCH   6  35
ATOM     35  C   UNL     1       4.806   5.003  16.733  0.00  0.00    +0.000 C 
ATOM     36  C   UNL     1       4.289   3.561  16.570  0.00  0.00    +0.000 C 
BRANCH  35  37
ATOM     37  N   UNL     1       6.193   5.008  17.260  0.00  0.00    +0.000 NA
ATOM     38  C   UNL     1       7.053   6.090  16.752  0.00  0.00    +0.000 C 
ATOM     39  C   UNL     1       7.574   6.865  17.954  0.00  0.00    +0.000 C 
ATOM     40  C   UNL     1       7.523   5.855  19.070  0.00  0.00    +0.000 C 
ATOM     41  F   UNL     1       8.636   5.075  19.017  0.00  0.00    +0.000 F 
ATOM     42  C   UNL     1       6.288   5.032  18.734  0.00  0.00    +0.000 C 
ENDBRANCH  35  37
ENDBRANCH   6  35
TORSDOF 9
ENDMDL
MODEL 3
REMARK VINA RESULT:      -9.3      0.849      1.117
REMARK  Name = 
REMARK  12 active torsions:
REMARK  status: ('A' for Active; 'I' for Inactive)
REMARK    1  A    between atoms: C_1  and  C_2
REMARK    2  A    between atoms: C_2  and  O_3
REMARK    3  A    between atoms: O_3  and  C_4
REMARK    4  A    between atoms: C_6  and  N_7
REMARK    5  A    between atoms: C_12  and  C_13
REMARK    6  A    between atoms: C_13  and  C_14
REMARK    7  A    between atoms: C_13  and  N_15
REMARK    8  A    between atoms: C_22  and  C_23
REMARK    9  A    between atoms: C_30  and  C_31
REMARK   10  A    between atoms: C_31  and  C_32
REMARK   11  A    between atoms: C_32  and  C_33
REMARK   12  A    between atoms: N_37  and  C_38
REMARK                            x       y       z     vdW  Elec       q    Type
REMARK                         _______ _______ _______ _____ _____    ______ ____
ROOT
ATOM      1  N   UNL     1       1.372   9.081  19.340  0.00  0.00    +0.000 N 
ATOM      2  C   UNL     1       1.674   8.015  20.274  0.00  0.00    +0.000 C 
ATOM      3  C   UNL     1       2.298   6.986  19.411  0.00  0.00    +0.000 A 
ATOM      4  C   UNL     1       2.844   7.619  18.298  0.00  0.00    +0.000 A 
ATOM      5  C   UNL     1       3.757   6.964  17.485  0.00  0.00    +0.000 A 
ATOM      6  C   UNL     1       4.046   5.607  17.763  0.00  0.00    +0.000 A 
ATOM      7  C   UNL     1       3.276   4.934  18.744  0.00  0.00    +0.000 A 
ATOM      8  C   UNL     1       2.361   5.613  19.560  0.00  0.00    +0.000 A 
ATOM      9  C   UNL     1       2.115   8.928  18.165  0.00  0.00    +0.000 C 
ATOM     10  O   UNL     1       2.153   9.623  17.167  0.00  0.00    +0.000 OA
ENDROOT
BRANCH   1  13
ATOM     11  C   UNL     1      -0.799  11.850  20.644  0.00  0.00    +0.000 A 
ATOM     12  C   UNL     1       0.272  10.932  20.603  0.00  0.00    +0.000 A 
ATOM     13  C   UNL     1       0.266   9.917  19.649  0.00  0.00    +0.000 A 
ATOM     14  C   UNL     1      -0.851   9.819  18.802  0.00  0.00    +0.000 A 
ATOM     15  C   UNL     1      -1.909  10.738  18.759  0.00  0.00    +0.000 A 
ATOM     16  C   UNL     1      -1.852  11.757  19.715  0.00  0.00    +0.000 A 
BRANCH  15  17
ATOM     17  C   UNL     1      -3.015  10.622  17.606  0.00  0.00    +0.000 C 
ATOM     18  C   UNL     1      -2.991  11.660  16.447  0.00  0.00    +0.000 C 
ATOM     19  O   UNL     1      -3.186  10.604  15.468  0.00  0.00    +0.000 OA
ATOM     20  C   UNL     1      -2.689   9.641  16.437  0.00  0.00    +0.000 C 
BRANCH  17  21
ATOM     21  C   UNL     1      -4.442  10.533  18.173  0.00  0.00    +0.000 C 
BRANCH  21  22
ATOM     22  C   UNL     1      -5.284  11.757  18.057  0.00  0.00    +0.000 A 
ATOM     23  N   UNL     1      -5.802  12.278  16.962  0.00  0.00    +0.000 NA
ATOM     24  N   UNL     1      -6.459  13.433  17.309  0.00  0.00    +0.000 NA
ATOM     25  C   UNL     1      -6.302  13.619  18.590  0.00  0.00    +0.000 A 
ATOM     26  N   UNL     1      -5.573  12.587  19.107  0.00  0.00    +0.000 N 
ATOM     27  C   UNL     1      -5.162  12.445  20.480  0.00  0.00    +0.000 C 
ENDBRANCH  21  22
ENDBRANCH  17  21
ENDBRANCH  15  17
BRANCH  11  28
ATOM     28  O   UNL     1      -0.699  12.882  21.552  0.00  0.00    +0.000 OA
BRANCH  28  30
ATOM     29  C   UNL     1      -2.492  13.103  23.155  0.00  0.00    +0.000 C 
ATOM     30  C   UNL     1      -1.100  12.557  22.890  0.00  0.00    +0.000 C 
ENDBRANCH  28  30
ENDBRANCH  11  28
ENDBRANCH   1  13
BRANCH   8  31
ATOM     31  C   UNL     1       1.378   4.832  20.396  0.00  0.00    +0.000 C 
ATOM     32  F   UNL     1       1.904   4.295  21.530  0.00  0.00    +0.000 F 
ATOM     33  F   UNL     1       0.353   5.623  20.823  0.00  0.00    +0.000 F 
ATOM     34  F   UNL     1       0.805   3.796  19.727  0.00  0.00    +0.000 F 
ENDBRANCH   8  31
BRANCH   6  35
ATOM     35  C   UNL     1       5.111   4.822  16.985  0.00  0.00    +0.000 C 
ATOM     36  C   UNL     1       4.649   3.355  16.894  0.00  0.00    +0.000 C 
BRANCH  35  37
ATOM     37  N   UNL     1       6.452   4.913  17.616  0.00  0.00    +0.000 NA
ATOM     38  C   UNL     1       7.331   5.961  17.070  0.00  0.00    +0.000 C 
ATOM     39  C   UNL     1       7.741   6.862  18.226  0.00  0.00    +0.000 C 
ATOM     40  C   UNL     1       7.619   5.966  19.430  0.00  0.00    +0.000 C 
ATOM     41  F   UNL     1       8.746   5.213  19.541  0.00  0.00    +0.000 F 
ATOM     42  C   UNL     1       6.429   5.084  19.083  0.00  0.00    +0.000 C 
ENDBRANCH  35  37
ENDBRANCH   6  35
TORSDOF 9
ENDMDL
MODEL 4
REMARK VINA RESULT:      -9.2      1.655      2.160
REMARK  Name = 
REMARK  12 active torsions:
REMARK  status: ('A' for Active; 'I' for Inactive)
REMARK    1  A    between atoms: C_1  and  C_2
REMARK    2  A    between atoms: C_2  and  O_3
REMARK    3  A    between atoms: O_3  and  C_4
REMARK    4  A    between atoms: C_6  and  N_7
REMARK    5  A    between atoms: C_12  and  C_13
REMARK    6  A    between atoms: C_13  and  C_14
REMARK    7  A    between atoms: C_13  and  N_15
REMARK    8  A    between atoms: C_22  and  C_23
REMARK    9  A    between atoms: C_30  and  C_31
REMARK   10  A    between atoms: C_31  and  C_32
REMARK   11  A    between atoms: C_32  and  C_33
REMARK   12  A    between atoms: N_37  and  C_38
REMARK                            x       y       z     vdW  Elec       q    Type
REMARK                         _______ _______ _______ _____ _____    ______ ____
ROOT
ATOM      1  N   UNL     1       1.386   9.011  19.333  0.00  0.00    +0.000 N 
ATOM      2  C   UNL     1       1.684   7.990  20.318  0.00  0.00    +0.000 C 
ATOM      3  C   UNL     1       2.416   6.974  19.530  0.00  0.00    +0.000 A 
ATOM      4  C   UNL     1       2.998   7.603  18.434  0.00  0.00    +0.000 A 
ATOM      5  C   UNL     1       3.994   6.976  17.700  0.00  0.00    +0.000 A 
ATOM      6  C   UNL     1       4.337   5.646  18.040  0.00  0.00    +0.000 A 
ATOM      7  C   UNL     1       3.543   4.960  18.992  0.00  0.00    +0.000 A 
ATOM      8  C   UNL     1       2.542   5.610  19.727  0.00  0.00    +0.000 A 
ATOM      9  C   UNL     1       2.210   8.865  18.213  0.00  0.00    +0.000 C 
ATOM     10  O   UNL     1       2.274   9.532  17.197  0.00  0.00    +0.000 OA
ENDROOT
BRANCH   1  13
ATOM     11  C   UNL     1      -1.017  11.673  20.440  0.00  0.00    +0.000 A 
ATOM     12  C   UNL     1       0.097  10.808  20.492  0.00  0.00    +0.000 A 
ATOM     13  C   UNL     1       0.219   9.793  19.546  0.00  0.00    +0.000 A 
ATOM     14  C   UNL     1      -0.817   9.641  18.609  0.00  0.00    +0.000 A 
ATOM     15  C   UNL     1      -1.911  10.508  18.474  0.00  0.00    +0.000 A 
ATOM     16  C   UNL     1      -1.983  11.529  19.426  0.00  0.00    +0.000 A 
BRANCH  15  17
ATOM     17  C   UNL     1      -2.910  10.339  17.233  0.00  0.00    +0.000 C 
ATOM     18  C   UNL     1      -3.047  11.515  16.224  0.00  0.00    +0.000 C 
ATOM     19  O   UNL     1      -2.968  10.593  15.104  0.00  0.00    +0.000 OA
ATOM     20  C   UNL     1      -2.329   9.621  15.975  0.00  0.00    +0.000 C 
BRANCH  17  21
ATOM     21  C   UNL     1      -4.312   9.885  17.671  0.00  0.00    +0.000 C 
BRANCH  21  22
ATOM     22  C   UNL     1      -5.290  10.960  18.000  0.00  0.00    +0.000 A 
ATOM     23  N   UNL     1      -5.178  12.252  17.763  0.00  0.00    +0.000 NA
ATOM     24  N   UNL     1      -6.284  12.879  18.280  0.00  0.00    +0.000 NA
ATOM     25  C   UNL     1      -7.030  11.976  18.854  0.00  0.00    +0.000 A 
ATOM     26  N   UNL     1      -6.448  10.751  18.700  0.00  0.00    +0.000 N 
ATOM     27  C   UNL     1      -6.950   9.505  19.220  0.00  0.00    +0.000 C 
ENDBRANCH  21  22
ENDBRANCH  17  21
ENDBRANCH  15  17
BRANCH  11  28
ATOM     28  O   UNL     1      -1.042  12.709  21.349  0.00  0.00    +0.000 OA
BRANCH  28  30
ATOM     29  C   UNL     1      -2.540  12.095  23.141  0.00  0.00    +0.000 C 
ATOM     30  C   UNL     1      -1.095  12.311  22.725  0.00  0.00    +0.000 C 
ENDBRANCH  28  30
ENDBRANCH  11  28
ENDBRANCH   1  13
BRANCH   8  31
ATOM     31  C   UNL     1       1.551   4.801  20.525  0.00  0.00    +0.000 C 
ATOM     32  F   UNL     1       0.389   5.450  20.805  0.00  0.00    +0.000 F 
ATOM     33  F   UNL     1       1.174   3.677  19.853  0.00  0.00    +0.000 F 
ATOM     34  F   UNL     1       2.039   4.381  21.722  0.00  0.00    +0.000 F 
ENDBRANCH   8  31
BRANCH   6  35
ATOM     35  C   UNL     1       5.491   4.899  17.356  0.00  0.00    +0.000 C 
ATOM     36  C   UNL     1       6.799   5.647  17.679  0.00  0.00    +0.000 C 
BRANCH  35  37
ATOM     37  N   UNL     1       5.298   4.787  15.889  0.00  0.00    +0.000 NA
ATOM     38  C   UNL     1       6.040   5.769  15.082  0.00  0.00    +0.000 C 
ATOM     39  C   UNL     1       6.907   4.994  14.100  0.00  0.00    +0.000 C 
ATOM     40  C   UNL     1       6.178   3.685  13.946  0.00  0.00    +0.000 C 
ATOM     41  F   UNL     1       5.179   3.835  13.036  0.00  0.00    +0.000 F 
ATOM     42  C   UNL     1       5.595   3.451  15.332  0.00  0.00    +0.000 C 
ENDBRANCH  35  37
ENDBRANCH   6  35
TORSDOF 9
ENDMDL
MODEL 5
REMARK VINA RESULT:      -9.1      3.135     10.078
REMARK  Name = 
REMARK  12 active torsions:
REMARK  status: ('A' for Active; 'I' for Inactive)
REMARK    1  A    between atoms: C_1  and  C_2
REMARK    2  A    between atoms: C_2  and  O_3
REMARK    3  A    between atoms: O_3  and  C_4
REMARK    4  A    between atoms: C_6  and  N_7
REMARK    5  A    between atoms: C_12  and  C_13
REMARK    6  A    between atoms: C_13  and  C_14
REMARK    7  A    between atoms: C_13  and  N_15
REMARK    8  A    between atoms: C_22  and  C_23
REMARK    9  A    between atoms: C_30  and  C_31
REMARK   10  A    between atoms: C_31  and  C_32
REMARK   11  A    between atoms: C_32  and  C_33
REMARK   12  A    between atoms: N_37  and  C_38
REMARK                            x       y       z     vdW  Elec       q    Type
REMARK                         _______ _______ _______ _____ _____    ______ ____
ROOT
ATOM      1  N   UNL     1       2.192   7.117  19.185  0.00  0.00    +0.000 N 
ATOM      2  C   UNL     1       1.137   7.311  20.160  0.00  0.00    +0.000 C 
ATOM      3  C   UNL     1       0.800   8.744  20.000  0.00  0.00    +0.000 A 
ATOM      4  C   UNL     1       1.150   9.137  18.713  0.00  0.00    +0.000 A 
ATOM      5  C   UNL     1       0.669  10.322  18.176  0.00  0.00    +0.000 A 
ATOM      6  C   UNL     1      -0.111  11.162  19.005  0.00  0.00    +0.000 A 
ATOM      7  C   UNL     1      -0.226  10.845  20.381  0.00  0.00    +0.000 A 
ATOM      8  C   UNL     1       0.263   9.641  20.906  0.00  0.00    +0.000 A 
ATOM      9  C   UNL     1       2.187   8.152  18.245  0.00  0.00    +0.000 C 
ATOM     10  O   UNL     1       2.897   8.330  17.273  0.00  0.00    +0.000 OA
ENDROOT
BRANCH   1  13
ATOM     11  C   UNL     1       3.853   3.844  19.970  0.00  0.00    +0.000 A 
ATOM     12  C   UNL     1       2.855   4.842  19.972  0.00  0.00    +0.000 A 
ATOM     13  C   UNL     1       3.149   6.105  19.462  0.00  0.00    +0.000 A 
ATOM     14  C   UNL     1       4.461   6.344  19.020  0.00  0.00    +0.000 A 
ATOM     15  C   UNL     1       5.471   5.375  18.938  0.00  0.00    +0.000 A 
ATOM     16  C   UNL     1       5.128   4.114  19.436  0.00  0.00    +0.000 A 
BRANCH  15  17
ATOM     17  C   UNL     1       6.859   5.732  18.224  0.00  0.00    +0.000 C 
ATOM     18  C   UNL     1       6.967   7.069  17.436  0.00  0.00    +0.000 C 
ATOM     19  O   UNL     1       8.261   7.345  18.036  0.00  0.00    +0.000 OA
ATOM     20  C   UNL     1       7.933   6.430  19.116  0.00  0.00    +0.000 C 
BRANCH  17  21
ATOM     21  C   UNL     1       7.373   4.583  17.339  0.00  0.00    +0.000 C 
BRANCH  21  22
ATOM     22  C   UNL     1       7.020   4.645  15.893  0.00  0.00    +0.000 A 
ATOM     23  N   UNL     1       7.707   5.207  14.918  0.00  0.00    +0.000 NA
ATOM     24  N   UNL     1       6.986   5.076  13.757  0.00  0.00    +0.000 NA
ATOM     25  C   UNL     1       5.863   4.476  14.043  0.00  0.00    +0.000 A 
ATOM     26  N   UNL     1       5.840   4.181  15.375  0.00  0.00    +0.000 N 
ATOM     27  C   UNL     1       4.757   3.546  16.083  0.00  0.00    +0.000 C 
ENDBRANCH  21  22
ENDBRANCH  17  21
ENDBRANCH  15  17
BRANCH  11  28
ATOM     28  O   UNL     1       3.482   2.592  20.409  0.00  0.00    +0.000 OA
BRANCH  28  30
ATOM     29  C   UNL     1       1.496   2.480  21.778  0.00  0.00    +0.000 C 
ATOM     30  C   UNL     1       2.073   2.330  20.381  0.00  0.00    +0.000 C 
ENDBRANCH  28  30
ENDBRANCH  11  28
ENDBRANCH   1  13
BRANCH   8  31
ATOM     31  C   UNL     1       0.362   9.459  22.400  0.00  0.00    +0.000 C 
ATOM     32  F   UNL     1       1.618   9.204  22.855  0.00  0.00    +0.000 F 
ATOM     33  F   UNL     1      -0.033  10.582  23.063  0.00  0.00    +0.000 F 
ATOM     34  F   UNL     1      -0.415   8.448  22.871  0.00  0.00    +0.000 F 
ENDBRANCH   8  31
BRANCH   6  35
ATOM     35  C   UNL     1      -0.771  12.445  18.478  0.00  0.00    +0.000 C 
ATOM     36  C   UNL     1      -0.918  13.422  19.659  0.00  0.00    +0.000 C 
BRANCH  35  37
ATOM     37  N   UNL     1      -2.087  12.183  17.845  0.00  0.00    +0.000 NA
ATOM     38  C   UNL     1      -2.095  11.109  16.837  0.00  0.00    +0.000 C 
ATOM     39  C   UNL     1      -3.132  10.083  17.269  0.00  0.00    +0.000 C 
ATOM     40  C   UNL     1      -4.088  10.884  18.112  0.00  0.00    +0.000 C 
ATOM     41  F   UNL     1      -4.972  11.522  17.299  0.00  0.00    +0.000 F 
ATOM     42  C   UNL     1      -3.179  11.895  18.796  0.00  0.00    +0.000 C 
ENDBRANCH  35  37
ENDBRANCH   6  35
TORSDOF 9
ENDMDL
MODEL 6
REMARK VINA RESULT:      -9.0      0.760      1.204
REMARK  Name = 
REMARK  12 active torsions:
REMARK  status: ('A' for Active; 'I' for Inactive)
REMARK    1  A    between atoms: C_1  and  C_2
REMARK    2  A    between atoms: C_2  and  O_3
REMARK    3  A    between atoms: O_3  and  C_4
REMARK    4  A    between atoms: C_6  and  N_7
REMARK    5  A    between atoms: C_12  and  C_13
REMARK    6  A    between atoms: C_13  and  C_14
REMARK    7  A    between atoms: C_13  and  N_15
REMARK    8  A    between atoms: C_22  and  C_23
REMARK    9  A    between atoms: C_30  and  C_31
REMARK   10  A    between atoms: C_31  and  C_32
REMARK   11  A    between atoms: C_32  and  C_33
REMARK   12  A    between atoms: N_37  and  C_38
REMARK                            x       y       z     vdW  Elec       q    Type
REMARK                         _______ _______ _______ _____ _____    ______ ____
ROOT
ATOM      1  N   UNL     1       1.391   9.061  19.320  0.00  0.00    +0.000 N 
ATOM      2  C   UNL     1       1.696   8.010  20.270  0.00  0.00    +0.000 C 
ATOM      3  C   UNL     1       2.322   6.970  19.423  0.00  0.00    +0.000 A 
ATOM      4  C   UNL     1       2.865   7.587  18.300  0.00  0.00    +0.000 A 
ATOM      5  C   UNL     1       3.778   6.921  17.496  0.00  0.00    +0.000 A 
ATOM      6  C   UNL     1       4.071   5.569  17.795  0.00  0.00    +0.000 A 
ATOM      7  C   UNL     1       3.303   4.910  18.787  0.00  0.00    +0.000 A 
ATOM      8  C   UNL     1       2.388   5.599  19.594  0.00  0.00    +0.000 A 
ATOM      9  C   UNL     1       2.133   8.891  18.147  0.00  0.00    +0.000 C 
ATOM     10  O   UNL     1       2.168   9.571  17.138  0.00  0.00    +0.000 OA
ENDROOT
BRANCH   1  13
ATOM     11  C   UNL     1      -0.781  11.860  20.559  0.00  0.00    +0.000 A 
ATOM     12  C   UNL     1       0.297  10.949  20.533  0.00  0.00    +0.000 A 
ATOM     13  C   UNL     1       0.283   9.899  19.618  0.00  0.00    +0.000 A 
ATOM     14  C   UNL     1      -0.847   9.762  18.794  0.00  0.00    +0.000 A 
ATOM     15  C   UNL     1      -1.914  10.670  18.736  0.00  0.00    +0.000 A 
ATOM     16  C   UNL     1      -1.850  11.724  19.652  0.00  0.00    +0.000 A 
BRANCH  15  17
ATOM     17  C   UNL     1      -3.038  10.503  17.607  0.00  0.00    +0.000 C 
ATOM     18  C   UNL     1      -3.341  11.712  16.676  0.00  0.00    +0.000 C 
ATOM     19  O   UNL     1      -3.348  10.843  15.512  0.00  0.00    +0.000 OA
ATOM     20  C   UNL     1      -2.571   9.868  16.260  0.00  0.00    +0.000 C 
BRANCH  17  21
ATOM     21  C   UNL     1      -4.360   9.962  18.176  0.00  0.00    +0.000 C 
BRANCH  21  22
ATOM     22  C   UNL     1      -5.353  10.974  18.635  0.00  0.00    +0.000 A 
ATOM     23  N   UNL     1      -5.219  12.285  18.654  0.00  0.00    +0.000 NA
ATOM     24  N   UNL     1      -6.355  12.824  19.204  0.00  0.00    +0.000 NA
ATOM     25  C   UNL     1      -7.143  11.842  19.546  0.00  0.00    +0.000 A 
ATOM     26  N   UNL     1      -6.558  10.657  19.204  0.00  0.00    +0.000 N 
ATOM     27  C   UNL     1      -7.101   9.345  19.444  0.00  0.00    +0.000 C 
ENDBRANCH  21  22
ENDBRANCH  17  21
ENDBRANCH  15  17
BRANCH  11  28
ATOM     28  O   UNL     1      -0.675  12.925  21.427  0.00  0.00    +0.000 OA
BRANCH  28  30
ATOM     29  C   UNL     1      -1.491  13.981  23.440  0.00  0.00    +0.000 C 
ATOM     30  C   UNL     1      -1.129  12.670  22.763  0.00  0.00    +0.000 C 
ENDBRANCH  28  30
ENDBRANCH  11  28
ENDBRANCH   1  13
BRANCH   8  31
ATOM     31  C   UNL     1       1.408   4.829  20.443  0.00  0.00    +0.000 C 
ATOM     32  F   UNL     1       0.941   3.687  19.870  0.00  0.00    +0.000 F 
ATOM     33  F   UNL     1       1.977   4.429  21.615  0.00  0.00    +0.000 F 
ATOM     34  F   UNL     1       0.307   5.551  20.782  0.00  0.00    +0.000 F 
ENDBRANCH   8  31
BRANCH   6  35
ATOM     35  C   UNL     1       5.137   4.775  17.028  0.00  0.00    +0.000 C 
ATOM     36  C   UNL     1       4.678   3.306  16.960  0.00  0.00    +0.000 C 
BRANCH  35  37
ATOM     37  N   UNL     1       6.478   4.878  17.656  0.00  0.00    +0.000 NA
ATOM     38  C   UNL     1       7.362   5.905  17.081  0.00  0.00    +0.000 C 
ATOM     39  C   UNL     1       7.776   6.839  18.209  0.00  0.00    +0.000 C 
ATOM     40  C   UNL     1       7.650   5.978  19.439  0.00  0.00    +0.000 C 
ATOM     41  F   UNL     1       8.773   5.224  19.573  0.00  0.00    +0.000 F 
ATOM     42  C   UNL     1       6.456   5.091  19.118  0.00  0.00    +0.000 C 
ENDBRANCH  35  37
ENDBRANCH   6  35
TORSDOF 9
ENDMDL
MODEL 7
REMARK VINA RESULT:      -9.0      2.149      3.018
REMARK  Name = 
REMARK  12 active torsions:
REMARK  status: ('A' for Active; 'I' for Inactive)
REMARK    1  A    between atoms: C_1  and  C_2
REMARK    2  A    between atoms: C_2  and  O_3
REMARK    3  A    between atoms: O_3  and  C_4
REMARK    4  A    between atoms: C_6  and  N_7
REMARK    5  A    between atoms: C_12  and  C_13
REMARK    6  A    between atoms: C_13  and  C_14
REMARK    7  A    between atoms: C_13  and  N_15
REMARK    8  A    between atoms: C_22  and  C_23
REMARK    9  A    between atoms: C_30  and  C_31
REMARK   10  A    between atoms: C_31  and  C_32
REMARK   11  A    between atoms: C_32  and  C_33
REMARK   12  A    between atoms: N_37  and  C_38
REMARK                            x       y       z     vdW  Elec       q    Type
REMARK                         _______ _______ _______ _____ _____    ______ ____
ROOT
ATOM      1  N   UNL     1       1.469   8.579  19.869  0.00  0.00    +0.000 N 
ATOM      2  C   UNL     1       1.757   7.404  20.666  0.00  0.00    +0.000 C 
ATOM      3  C   UNL     1       2.313   6.458  19.672  0.00  0.00    +0.000 A 
ATOM      4  C   UNL     1       2.849   7.193  18.619  0.00  0.00    +0.000 A 
ATOM      5  C   UNL     1       3.709   6.601  17.705  0.00  0.00    +0.000 A 
ATOM      6  C   UNL     1       3.952   5.212  17.819  0.00  0.00    +0.000 A 
ATOM      7  C   UNL     1       3.187   4.461  18.745  0.00  0.00    +0.000 A 
ATOM      8  C   UNL     1       2.325   5.075  19.664  0.00  0.00    +0.000 A 
ATOM      9  C   UNL     1       2.169   8.533  18.659  0.00  0.00    +0.000 C 
ATOM     10  O   UNL     1       2.204   9.336  17.744  0.00  0.00    +0.000 OA
ENDROOT
BRANCH   1  13
ATOM     11  C   UNL     1      -0.735  10.838  21.899  0.00  0.00    +0.000 A 
ATOM     12  C   UNL     1       0.198   9.816  21.627  0.00  0.00    +0.000 A 
ATOM     13  C   UNL     1       0.408   9.414  20.309  0.00  0.00    +0.000 A 
ATOM     14  C   UNL     1      -0.375  10.014  19.308  0.00  0.00    +0.000 A 
ATOM     15  C   UNL     1      -1.269  11.075  19.515  0.00  0.00    +0.000 A 
ATOM     16  C   UNL     1      -1.431  11.465  20.848  0.00  0.00    +0.000 A 
BRANCH  15  17
ATOM     17  C   UNL     1      -1.943  11.802  18.257  0.00  0.00    +0.000 C 
ATOM     18  C   UNL     1      -2.441  10.926  17.072  0.00  0.00    +0.000 C 
ATOM     19  O   UNL     1      -3.682  11.679  17.007  0.00  0.00    +0.000 OA
ATOM     20  C   UNL     1      -3.468  12.111  18.378  0.00  0.00    +0.000 C 
BRANCH  17  21
ATOM     21  C   UNL     1      -1.073  12.945  17.709  0.00  0.00    +0.000 C 
BRANCH  21  22
ATOM     22  C   UNL     1      -0.338  13.765  18.712  0.00  0.00    +0.000 A 
ATOM     23  N   UNL     1      -0.814  14.737  19.465  0.00  0.00    +0.000 NA
ATOM     24  N   UNL     1       0.222  15.252  20.204  0.00  0.00    +0.000 NA
ATOM     25  C   UNL     1       1.312  14.620  19.868  0.00  0.00    +0.000 A 
ATOM     26  N   UNL     1       1.011  13.671  18.935  0.00  0.00    +0.000 N 
ATOM     27  C   UNL     1       1.949  12.787  18.292  0.00  0.00    +0.000 C 
ENDBRANCH  21  22
ENDBRANCH  17  21
ENDBRANCH  15  17
BRANCH  11  28
ATOM     28  O   UNL     1      -0.841  11.251  23.209  0.00  0.00    +0.000 OA
BRANCH  28  30
ATOM     29  C   UNL     1      -3.012  12.176  23.719  0.00  0.00    +0.000 C 
ATOM     30  C   UNL     1      -1.557  12.477  23.406  0.00  0.00    +0.000 C 
ENDBRANCH  28  30
ENDBRANCH  11  28
ENDBRANCH   1  13
BRANCH   8  31
ATOM     31  C   UNL     1       1.338   4.240  20.441  0.00  0.00    +0.000 C 
ATOM     32  F   UNL     1       0.111   4.809  20.588  0.00  0.00    +0.000 F 
ATOM     33  F   UNL     1       1.103   3.049  19.824  0.00  0.00    +0.000 F 
ATOM     34  F   UNL     1       1.760   3.940  21.698  0.00  0.00    +0.000 F 
ENDBRANCH   8  31
BRANCH   6  35
ATOM     35  C   UNL     1       4.961   4.483  16.921  0.00  0.00    +0.000 C 
ATOM     36  C   UNL     1       4.553   2.999  16.856  0.00  0.00    +0.000 C 
BRANCH  35  37
ATOM     37  N   UNL     1       6.355   4.624  17.408  0.00  0.00    +0.000 NA
ATOM     38  C   UNL     1       7.137   5.697  16.771  0.00  0.00    +0.000 C 
ATOM     39  C   UNL     1       7.633   6.620  17.874  0.00  0.00    +0.000 C 
ATOM     40  C   UNL     1       7.668   5.729  19.087  0.00  0.00    +0.000 C 
ATOM     41  F   UNL     1       8.825   5.015  19.084  0.00  0.00    +0.000 F 
ATOM     42  C   UNL     1       6.479   4.804  18.869  0.00  0.00    +0.000 C 
ENDBRANCH  35  37
ENDBRANCH   6  35
TORSDOF 9
ENDMDL
MODEL 8
REMARK VINA RESULT:      -9.0      1.812      3.785
REMARK  Name = 
REMARK  12 active torsions:
REMARK  status: ('A' for Active; 'I' for Inactive)
REMARK    1  A    between atoms: C_1  and  C_2
REMARK    2  A    between atoms: C_2  and  O_3
REMARK    3  A    between atoms: O_3  and  C_4
REMARK    4  A    between atoms: C_6  and  N_7
REMARK    5  A    between atoms: C_12  and  C_13
REMARK    6  A    between atoms: C_13  and  C_14
REMARK    7  A    between atoms: C_13  and  N_15
REMARK    8  A    between atoms: C_22  and  C_23
REMARK    9  A    between atoms: C_30  and  C_31
REMARK   10  A    between atoms: C_31  and  C_32
REMARK   11  A    between atoms: C_32  and  C_33
REMARK   12  A    between atoms: N_37  and  C_38
REMARK                            x       y       z     vdW  Elec       q    Type
REMARK                         _______ _______ _______ _____ _____    ______ ____
ROOT
ATOM      1  N   UNL     1       1.487   8.941  18.935  0.00  0.00    +0.000 N 
ATOM      2  C   UNL     1       1.532   8.020  20.053  0.00  0.00    +0.000 C 
ATOM      3  C   UNL     1       2.419   6.943  19.558  0.00  0.00    +0.000 A 
ATOM      4  C   UNL     1       3.250   7.474  18.578  0.00  0.00    +0.000 A 
ATOM      5  C   UNL     1       4.385   6.792  18.163  0.00  0.00    +0.000 A 
ATOM      6  C   UNL     1       4.623   5.504  18.696  0.00  0.00    +0.000 A 
ATOM      7  C   UNL     1       3.618   4.900  19.492  0.00  0.00    +0.000 A 
ATOM      8  C   UNL     1       2.479   5.605  19.905  0.00  0.00    +0.000 A 
ATOM      9  C   UNL     1       2.551   8.701  18.060  0.00  0.00    +0.000 C 
ATOM     10  O   UNL     1       2.862   9.272  17.031  0.00  0.00    +0.000 OA
ENDROOT
BRANCH   1  13
ATOM     11  C   UNL     1      -1.945  10.159  18.030  0.00  0.00    +0.000 A 
ATOM     12  C   UNL     1      -0.729   9.454  17.906  0.00  0.00    +0.000 A 
ATOM     13  C   UNL     1       0.312   9.726  18.792  0.00  0.00    +0.000 A 
ATOM     14  C   UNL     1       0.118  10.745  19.739  0.00  0.00    +0.000 A 
ATOM     15  C   UNL     1      -1.088  11.431  19.946  0.00  0.00    +0.000 A 
ATOM     16  C   UNL     1      -2.116  11.111  19.053  0.00  0.00    +0.000 A 
BRANCH  15  17
ATOM     17  C   UNL     1      -1.233  12.422  21.196  0.00  0.00    +0.000 C 
ATOM     18  C   UNL     1      -1.277  11.812  22.626  0.00  0.00    +0.000 C 
ATOM     19  O   UNL     1      -0.348  12.821  23.109  0.00  0.00    +0.000 OA
ATOM     20  C   UNL     1       0.092  13.041  21.741  0.00  0.00    +0.000 C 
BRANCH  17  21
ATOM     21  C   UNL     1      -2.407  13.402  21.029  0.00  0.00    +0.000 C 
BRANCH  21  22
ATOM     22  C   UNL     1      -3.605  13.159  21.883  0.00  0.00    +0.000 A 
ATOM     23  N   UNL     1      -4.589  12.309  21.669  0.00  0.00    +0.000 NA
ATOM     24  N   UNL     1      -5.507  12.455  22.679  0.00  0.00    +0.000 NA
ATOM     25  C   UNL     1      -5.094  13.409  23.467  0.00  0.00    +0.000 A 
ATOM     26  N   UNL     1      -3.897  13.881  23.009  0.00  0.00    +0.000 N 
ATOM     27  C   UNL     1      -3.135  14.957  23.589  0.00  0.00    +0.000 C 
ENDBRANCH  21  22
ENDBRANCH  17  21
ENDBRANCH  15  17
BRANCH  11  28
ATOM     28  O   UNL     1      -2.966   9.791  17.181  0.00  0.00    +0.000 OA
BRANCH  28  30
ATOM     29  C   UNL     1      -2.998  10.389  14.841  0.00  0.00    +0.000 C 
ATOM     30  C   UNL     1      -3.381  10.801  16.252  0.00  0.00    +0.000 C 
ENDBRANCH  28  30
ENDBRANCH  11  28
ENDBRANCH   1  13
BRANCH   8  31
ATOM     31  C   UNL     1       1.318   4.862  20.518  0.00  0.00    +0.000 C 
ATOM     32  F   UNL     1       0.745   3.938  19.699  0.00  0.00    +0.000 F 
ATOM     33  F   UNL     1       1.704   4.164  21.622  0.00  0.00    +0.000 F 
ATOM     34  F   UNL     1       0.308   5.679  20.919  0.00  0.00    +0.000 F 
ENDBRANCH   8  31
BRANCH   6  35
ATOM     35  C   UNL     1       5.897   4.710  18.377  0.00  0.00    +0.000 C 
ATOM     36  C   UNL     1       7.108   5.619  18.661  0.00  0.00    +0.000 C 
BRANCH  35  37
ATOM     37  N   UNL     1       5.922   4.223  16.975  0.00  0.00    +0.000 NA
ATOM     38  C   UNL     1       4.820   4.703  16.126  0.00  0.00    +0.000 C 
ATOM     39  C   UNL     1       5.439   5.402  14.923  0.00  0.00    +0.000 C 
ATOM     40  C   UNL     1       6.795   4.759  14.804  0.00  0.00    +0.000 C 
ATOM     41  F   UNL     1       6.673   3.583  14.132  0.00  0.00    +0.000 F 
ATOM     42  C   UNL     1       7.181   4.498  16.253  0.00  0.00    +0.000 C 
ENDBRANCH  35  37
ENDBRANCH   6  35
TORSDOF 9
ENDMDL
MODEL 9
REMARK VINA RESULT:      -8.9      1.527      2.032
REMARK  Name = 
REMARK  12 active torsions:
REMARK  status: ('A' for Active; 'I' for Inactive)
REMARK    1  A    between atoms: C_1  and  C_2
REMARK    2  A    between atoms: C_2  and  O_3
REMARK    3  A    between atoms: O_3  and  C_4
REMARK    4  A    between atoms: C_6  and  N_7
REMARK    5  A    between atoms: C_12  and  C_13
REMARK    6  A    between atoms: C_13  and  C_14
REMARK    7  A    between atoms: C_13  and  N_15
REMARK    8  A    between atoms: C_22  and  C_23
REMARK    9  A    between atoms: C_30  and  C_31
REMARK   10  A    between atoms: C_31  and  C_32
REMARK   11  A    between atoms: C_32  and  C_33
REMARK   12  A    between atoms: N_37  and  C_38
REMARK                            x       y       z     vdW  Elec       q    Type
REMARK                         _______ _______ _______ _____ _____    ______ ____
ROOT
ATOM      1  N   UNL     1       1.287   9.165  19.463  0.00  0.00    +0.000 N 
ATOM      2  C   UNL     1       1.607   8.122  20.416  0.00  0.00    +0.000 C 
ATOM      3  C   UNL     1       2.334   7.131  19.591  0.00  0.00    +0.000 A 
ATOM      4  C   UNL     1       2.895   7.793  18.503  0.00  0.00    +0.000 A 
ATOM      5  C   UNL     1       3.884   7.191  17.739  0.00  0.00    +0.000 A 
ATOM      6  C   UNL     1       4.241   5.856  18.039  0.00  0.00    +0.000 A 
ATOM      7  C   UNL     1       3.465   5.140  18.984  0.00  0.00    +0.000 A 
ATOM      8  C   UNL     1       2.471   5.764  19.750  0.00  0.00    +0.000 A 
ATOM      9  C   UNL     1       2.095   9.054  18.326  0.00  0.00    +0.000 C 
ATOM     10  O   UNL     1       2.140   9.748  17.327  0.00  0.00    +0.000 OA
ENDROOT
BRANCH   1  13
ATOM     11  C   UNL     1      -1.133  11.733  20.741  0.00  0.00    +0.000 A 
ATOM     12  C   UNL     1      -0.026  10.857  20.745  0.00  0.00    +0.000 A 
ATOM     13  C   UNL     1       0.119   9.933  19.712  0.00  0.00    +0.000 A 
ATOM     14  C   UNL     1      -0.890   9.877  18.736  0.00  0.00    +0.000 A 
ATOM     15  C   UNL     1      -1.975  10.761  18.650  0.00  0.00    +0.000 A 
ATOM     16  C   UNL     1      -2.070  11.691  19.691  0.00  0.00    +0.000 A 
BRANCH  15  17
ATOM     17  C   UNL     1      -2.938  10.716  17.371  0.00  0.00    +0.000 C 
ATOM     18  C   UNL     1      -2.307  10.892  15.960  0.00  0.00    +0.000 C 
ATOM     19  O   UNL     1      -3.093   9.784  15.445  0.00  0.00    +0.000 OA
ATOM     20  C   UNL     1      -3.261   9.298  16.804  0.00  0.00    +0.000 C 
BRANCH  17  21
ATOM     21  C   UNL     1      -4.138  11.668  17.509  0.00  0.00    +0.000 C 
BRANCH  21  22
ATOM     22  C   UNL     1      -5.226  11.240  18.432  0.00  0.00    +0.000 A 
ATOM     23  N   UNL     1      -5.956  10.144  18.366  0.00  0.00    +0.000 NA
ATOM     24  N   UNL     1      -6.875  10.181  19.385  0.00  0.00    +0.000 NA
ATOM     25  C   UNL     1      -6.721  11.304  20.029  0.00  0.00    +0.000 A 
ATOM     26  N   UNL     1      -5.691  12.004  19.470  0.00  0.00    +0.000 N 
ATOM     27  C   UNL     1      -5.232  13.307  19.878  0.00  0.00    +0.000 C 
ENDBRANCH  21  22
ENDBRANCH  17  21
ENDBRANCH  15  17
BRANCH  11  28
ATOM     28  O   UNL     1      -1.181  12.680  21.740  0.00  0.00    +0.000 OA
BRANCH  28  30
ATOM     29  C   UNL     1      -3.012  12.441  23.297  0.00  0.00    +0.000 C 
ATOM     30  C   UNL     1      -1.538  12.181  23.036  0.00  0.00    +0.000 C 
ENDBRANCH  28  30
ENDBRANCH  11  28
ENDBRANCH   1  13
BRANCH   8  31
ATOM     31  C   UNL     1       1.498   4.927  20.542  0.00  0.00    +0.000 C 
ATOM     32  F   UNL     1       2.007   4.406  21.692  0.00  0.00    +0.000 F 
ATOM     33  F   UNL     1       0.419   5.662  20.935  0.00  0.00    +0.000 F 
ATOM     34  F   UNL     1       1.004   3.871  19.843  0.00  0.00    +0.000 F 
ENDBRANCH   8  31
BRANCH   6  35
ATOM     35  C   UNL     1       5.389   5.135  17.318  0.00  0.00    +0.000 C 
ATOM     36  C   UNL     1       6.682   5.934  17.566  0.00  0.00    +0.000 C 
BRANCH  35  37
ATOM     37  N   UNL     1       5.135   4.983  15.864  0.00  0.00    +0.000 NA
ATOM     38  C   UNL     1       5.922   5.872  14.994  0.00  0.00    +0.000 C 
ATOM     39  C   UNL     1       6.690   4.995  14.016  0.00  0.00    +0.000 C 
ATOM     40  C   UNL     1       5.855   3.744  13.939  0.00  0.00    +0.000 C 
ATOM     41  F   UNL     1       4.839   3.939  13.056  0.00  0.00    +0.000 F 
ATOM     42  C   UNL     1       5.306   3.609  15.351  0.00  0.00    +0.000 C 
ENDBRANCH  35  37
ENDBRANCH   6  35
TORSDOF 9
ENDMDL
