MODEL 1
REMARK VINA RESULT:      -9.7      0.000      0.000
REMARK  Name = 
REMARK  7 active torsions:
REMARK  status: ('A' for Active; 'I' for Inactive)
REMARK    1  A    between atoms: C_1  and  N_2
REMARK    2  A    between atoms: C_6  and  C_7
REMARK    3  A    between atoms: C_9  and  C_10
REMARK    4  A    between atoms: C_14  and  N_15
REMARK    5  A    between atoms: C_20  and  C_21
REMARK    6  A    between atoms: C_21  and  N_22
REMARK    7  A    between atoms: C_29  and  C_30
REMARK                            x       y       z     vdW  Elec       q    Type
REMARK                         _______ _______ _______ _____ _____    ______ ____
ROOT
ATOM      1  N   UNL     1       1.749   8.105  20.223  0.00  0.00    +0.000 N 
ATOM      2  C   UNL     1       2.184   6.897  20.876  0.00  0.00    +0.000 C 
ATOM      3  C   UNL     1       2.424   6.013  19.726  0.00  0.00    +0.000 A 
ATOM      4  C   UNL     1       2.813   6.799  18.650  0.00  0.00    +0.000 A 
ATOM      5  C   UNL     1       3.425   6.244  17.536  0.00  0.00    +0.000 A 
ATOM      6  C   UNL     1       3.524   4.844  17.485  0.00  0.00    +0.000 A 
ATOM      7  C   UNL     1       2.818   4.066  18.449  0.00  0.00    +0.000 A 
ATOM      8  C   UNL     1       2.201   4.664  19.552  0.00  0.00    +0.000 A 
ATOM      9  C   UNL     1       2.216   8.141  18.904  0.00  0.00    +0.000 C 
ATOM     10  O   UNL     1       2.100   9.007  18.058  0.00  0.00    +0.000 OA
ENDROOT
BRANCH   1  15
ATOM     11  C   UNL     1      -0.301  11.148  20.832  0.00  0.00    +0.000 A 
ATOM     12  C   UNL     1      -0.841  10.831  22.087  0.00  0.00    +0.000 A 
ATOM     13  C   UNL     1      -0.569   9.604  22.724  0.00  0.00    +0.000 A 
ATOM     14  C   UNL     1       0.241   8.637  22.115  0.00  0.00    +0.000 A 
ATOM     15  C   UNL     1       0.806   8.925  20.883  0.00  0.00    +0.000 A 
ATOM     16  C   UNL     1       0.524  10.166  20.291  0.00  0.00    +0.000 A 
BRANCH  11  19
ATOM     17  C   UNL     1      -1.616  12.697  19.007  0.00  0.00    +0.000 C 
ATOM     18  C   UNL     1      -0.121  12.739  18.736  0.00  0.00    +0.000 C 
ATOM     19  C   UNL     1      -0.600  12.462  20.127  0.00  0.00    +0.000 C 
BRANCH  17  25
ATOM     20  C   UNL     1      -4.751  12.159  18.995  0.00  0.00    +0.000 C 
ATOM     21  N   UNL     1      -3.768  11.483  18.194  0.00  0.00    +0.000 N 
ATOM     22  C   UNL     1      -4.011  10.440  17.353  0.00  0.00    +0.000 A 
ATOM     23  N   UNL     1      -2.878   9.996  16.866  0.00  0.00    +0.000 NA
ATOM     24  N   UNL     1      -1.871  10.766  17.399  0.00  0.00    +0.000 NA
ATOM     25  C   UNL     1      -2.408  11.651  18.219  0.00  0.00    +0.000 A 
ENDBRANCH  17  25
ENDBRANCH  11  19
ENDBRANCH   1  15
BRANCH   8  26
ATOM     26  C   UNL     1       1.163   3.906  20.345  0.00  0.00    +0.000 C 
ATOM     27  F   UNL     1       0.797   2.713  19.802  0.00  0.00    +0.000 F 
ATOM     28  F   UNL     1       1.633   3.592  21.587  0.00  0.00    +0.000 F 
ATOM     29  F   UNL     1       0.016   4.603  20.537  0.00  0.00    +0.000 F 
ENDBRANCH   8  26
BRANCH   6  30
ATOM     30  C   UNL     1       4.334   4.117  16.435  0.00  0.00    +0.000 C 
BRANCH  30  31
ATOM     31  N   UNL     1       5.770   4.132  16.712  0.00  0.00    +0.000 NA
ATOM     32  C   UNL     1       6.506   5.144  15.949  0.00  0.00    +0.000 C 
ATOM     33  C   UNL     1       7.161   6.083  16.947  0.00  0.00    +0.000 C 
ATOM     34  C   UNL     1       7.216   5.302  18.236  0.00  0.00    +0.000 C 
ATOM     35  F   UNL     1       8.395   4.630  18.306  0.00  0.00    +0.000 F 
ATOM     36  C   UNL     1       6.065   4.315  18.141  0.00  0.00    +0.000 C 
ENDBRANCH  30  31
ENDBRANCH   6  30
TORSDOF 6
ENDMDL
MODEL 2
REMARK VINA RESULT:      -9.7      3.467      9.695
REMARK  Name = 
REMARK  7 active torsions:
REMARK  status: ('A' for Active; 'I' for Inactive)
REMARK    1  A    between atoms: C_1  and  N_2
REMARK    2  A    between atoms: C_6  and  C_7
REMARK    3  A    between atoms: C_9  and  C_10
REMARK    4  A    between atoms: C_14  and  N_15
REMARK    5  A    between atoms: C_20  and  C_21
REMARK    6  A    between atoms: C_21  and  N_22
REMARK    7  A    between atoms: C_29  and  C_30
REMARK                            x       y       z     vdW  Elec       q    Type
REMARK                         _______ _______ _______ _____ _____    ______ ____
ROOT
ATOM      1  N   UNL     1       1.534   8.529  20.171  0.00  0.00    +0.000 N 
ATOM      2  C   UNL     1       1.257   9.398  19.056  0.00  0.00    +0.000 C 
ATOM      3  C   UNL     1       0.197  10.253  19.609  0.00  0.00    +0.000 A 
ATOM      4  C   UNL     1       0.403  10.367  20.978  0.00  0.00    +0.000 A 
ATOM      5  C   UNL     1      -0.217  11.360  21.720  0.00  0.00    +0.000 A 
ATOM      6  C   UNL     1      -1.155  12.169  21.059  0.00  0.00    +0.000 A 
ATOM      7  C   UNL     1      -1.579  11.804  19.747  0.00  0.00    +0.000 A 
ATOM      8  C   UNL     1      -0.937  10.786  19.035  0.00  0.00    +0.000 A 
ATOM      9  C   UNL     1       1.143   9.134  21.370  0.00  0.00    +0.000 C 
ATOM     10  O   UNL     1       1.256   8.742  22.516  0.00  0.00    +0.000 OA
ENDROOT
BRANCH   1  15
ATOM     11  C   UNL     1       3.115   5.753  18.265  0.00  0.00    +0.000 A 
ATOM     12  C   UNL     1       2.672   4.656  19.019  0.00  0.00    +0.000 A 
ATOM     13  C   UNL     1       1.887   4.820  20.179  0.00  0.00    +0.000 A 
ATOM     14  C   UNL     1       1.532   6.095  20.637  0.00  0.00    +0.000 A 
ATOM     15  C   UNL     1       1.937   7.200  19.904  0.00  0.00    +0.000 A 
ATOM     16  C   UNL     1       2.702   6.992  18.746  0.00  0.00    +0.000 A 
BRANCH  11  19
ATOM     17  C   UNL     1       5.496   5.428  16.969  0.00  0.00    +0.000 C 
ATOM     18  C   UNL     1       4.823   6.706  16.496  0.00  0.00    +0.000 C 
ATOM     19  C   UNL     1       3.975   5.590  17.022  0.00  0.00    +0.000 C 
BRANCH  17  25
ATOM     20  C   UNL     1       7.758   7.632  17.346  0.00  0.00    +0.000 C 
ATOM     21  N   UNL     1       7.427   6.585  18.272  0.00  0.00    +0.000 N 
ATOM     22  C   UNL     1       8.086   6.315  19.433  0.00  0.00    +0.000 A 
ATOM     23  N   UNL     1       7.591   5.230  19.977  0.00  0.00    +0.000 NA
ATOM     24  N   UNL     1       6.584   4.781  19.154  0.00  0.00    +0.000 NA
ATOM     25  C   UNL     1       6.500   5.588  18.112  0.00  0.00    +0.000 A 
ENDBRANCH  17  25
ENDBRANCH  11  19
ENDBRANCH   1  15
BRANCH   8  26
ATOM     26  C   UNL     1      -1.606  10.162  17.834  0.00  0.00    +0.000 C 
ATOM     27  F   UNL     1      -2.715   9.428  18.121  0.00  0.00    +0.000 F 
ATOM     28  F   UNL     1      -2.040  11.121  16.966  0.00  0.00    +0.000 F 
ATOM     29  F   UNL     1      -0.787   9.348  17.123  0.00  0.00    +0.000 F 
ENDBRANCH   8  26
BRANCH   6  30
ATOM     30  C   UNL     1      -1.758  13.407  21.685  0.00  0.00    +0.000 C 
BRANCH  30  31
ATOM     31  N   UNL     1      -2.201  13.190  23.062  0.00  0.00    +0.000 NA
ATOM     32  C   UNL     1      -2.286  14.421  23.853  0.00  0.00    +0.000 C 
ATOM     33  C   UNL     1      -3.727  14.575  24.307  0.00  0.00    +0.000 C 
ATOM     34  C   UNL     1      -4.315  13.189  24.209  0.00  0.00    +0.000 C 
ATOM     35  F   UNL     1      -4.155  12.547  25.396  0.00  0.00    +0.000 F 
ATOM     36  C   UNL     1      -3.495  12.496  23.134  0.00  0.00    +0.000 C 
ENDBRANCH  30  31
ENDBRANCH   6  30
TORSDOF 6
ENDMDL
MODEL 3
REMARK VINA RESULT:      -9.6      2.165      3.261
REMARK  Name = 
REMARK  7 active torsions:
REMARK  status: ('A' for Active; 'I' for Inactive)
REMARK    1  A    between atoms: C_1  and  N_2
REMARK    2  A    between atoms: C_6  and  C_7
REMARK    3  A    between atoms: C_9  and  C_10
REMARK    4  A    between atoms: C_14  and  N_15
REMARK    5  A    between atoms: C_20  and  C_21
REMARK    6  A    between atoms: C_21  and  N_22
REMARK    7  A    between atoms: C_29  and  C_30
REMARK                            x       y       z     vdW  Elec       q    Type
REMARK                         _______ _______ _______ _____ _____    ______ ____
ROOT
ATOM      1  N   UNL     1       1.705   8.183  20.225  0.00  0.00    +0.000 N 
ATOM      2  C   UNL     1       2.154   6.981  20.879  0.00  0.00    +0.000 C 
ATOM      3  C   UNL     1       2.403   6.098  19.730  0.00  0.00    +0.000 A 
ATOM      4  C   UNL     1       2.781   6.887  18.652  0.00  0.00    +0.000 A 
ATOM      5  C   UNL     1       3.398   6.338  17.538  0.00  0.00    +0.000 A 
ATOM      6  C   UNL     1       3.513   4.939  17.489  0.00  0.00    +0.000 A 
ATOM      7  C   UNL     1       2.817   4.154  18.455  0.00  0.00    +0.000 A 
ATOM      8  C   UNL     1       2.195   4.747  19.558  0.00  0.00    +0.000 A 
ATOM      9  C   UNL     1       2.170   8.223  18.905  0.00  0.00    +0.000 C 
ATOM     10  O   UNL     1       2.043   9.086  18.059  0.00  0.00    +0.000 OA
ENDROOT
BRANCH   1  15
ATOM     11  C   UNL     1      -0.404  11.190  20.812  0.00  0.00    +0.000 A 
ATOM     12  C   UNL     1      -0.918  10.883  22.081  0.00  0.00    +0.000 A 
ATOM     13  C   UNL     1      -0.610   9.672  22.735  0.00  0.00    +0.000 A 
ATOM     14  C   UNL     1       0.213   8.714  22.130  0.00  0.00    +0.000 A 
ATOM     15  C   UNL     1       0.754   8.993  20.885  0.00  0.00    +0.000 A 
ATOM     16  C   UNL     1       0.435  10.217  20.277  0.00  0.00    +0.000 A 
BRANCH  11  19
ATOM     17  C   UNL     1       0.149  13.718  19.944  0.00  0.00    +0.000 C 
ATOM     18  C   UNL     1      -1.083  13.738  20.833  0.00  0.00    +0.000 C 
ATOM     19  C   UNL     1      -0.743  12.484  20.090  0.00  0.00    +0.000 C 
BRANCH  17  25
ATOM     20  C   UNL     1       3.083  13.747  18.714  0.00  0.00    +0.000 C 
ATOM     21  N   UNL     1       2.724  14.066  20.069  0.00  0.00    +0.000 N 
ATOM     22  C   UNL     1       3.597  14.357  21.073  0.00  0.00    +0.000 A 
ATOM     23  N   UNL     1       2.940  14.491  22.200  0.00  0.00    +0.000 NA
ATOM     24  N   UNL     1       1.608  14.285  21.927  0.00  0.00    +0.000 NA
ATOM     25  C   UNL     1       1.481  14.006  20.642  0.00  0.00    +0.000 A 
ENDBRANCH  17  25
ENDBRANCH  11  19
ENDBRANCH   1  15
BRANCH   8  26
ATOM     26  C   UNL     1       1.166   3.978  20.352  0.00  0.00    +0.000 C 
ATOM     27  F   UNL     1       1.571   3.616  21.600  0.00  0.00    +0.000 F 
ATOM     28  F   UNL     1       0.047   4.730  20.556  0.00  0.00    +0.000 F 
ATOM     29  F   UNL     1       0.755   2.839  19.742  0.00  0.00    +0.000 F 
ENDBRANCH   8  26
BRANCH   6  30
ATOM     30  C   UNL     1       4.330   4.220  16.439  0.00  0.00    +0.000 C 
BRANCH  30  31
ATOM     31  N   UNL     1       5.763   4.223  16.731  0.00  0.00    +0.000 NA
ATOM     32  C   UNL     1       6.511   5.247  15.996  0.00  0.00    +0.000 C 
ATOM     33  C   UNL     1       7.159   6.163  17.019  0.00  0.00    +0.000 C 
ATOM     34  C   UNL     1       7.197   5.356  18.293  0.00  0.00    +0.000 C 
ATOM     35  F   UNL     1       8.373   4.678  18.361  0.00  0.00    +0.000 F 
ATOM     36  C   UNL     1       6.044   4.376  18.166  0.00  0.00    +0.000 C 
ENDBRANCH  30  31
ENDBRANCH   6  30
TORSDOF 6
ENDMDL
MODEL 4
REMARK VINA RESULT:      -9.4      1.870      2.722
REMARK  Name = 
REMARK  7 active torsions:
REMARK  status: ('A' for Active; 'I' for Inactive)
REMARK    1  A    between atoms: C_1  and  N_2
REMARK    2  A    between atoms: C_6  and  C_7
REMARK    3  A    between atoms: C_9  and  C_10
REMARK    4  A    between atoms: C_14  and  N_15
REMARK    5  A    between atoms: C_20  and  C_21
REMARK    6  A    between atoms: C_21  and  N_22
REMARK    7  A    between atoms: C_29  and  C_30
REMARK                            x       y       z     vdW  Elec       q    Type
REMARK                         _______ _______ _______ _____ _____    ______ ____
ROOT
ATOM      1  N   UNL     1       1.815   8.021  20.129  0.00  0.00    +0.000 N 
ATOM      2  C   UNL     1       2.197   6.794  20.778  0.00  0.00    +0.000 C 
ATOM      3  C   UNL     1       2.427   5.912  19.625  0.00  0.00    +0.000 A 
ATOM      4  C   UNL     1       2.860   6.693  18.562  0.00  0.00    +0.000 A 
ATOM      5  C   UNL     1       3.472   6.128  17.454  0.00  0.00    +0.000 A 
ATOM      6  C   UNL     1       3.525   4.726  17.392  0.00  0.00    +0.000 A 
ATOM      7  C   UNL     1       2.776   3.964  18.337  0.00  0.00    +0.000 A 
ATOM      8  C   UNL     1       2.161   4.573  19.434  0.00  0.00    +0.000 A 
ATOM      9  C   UNL     1       2.305   8.053  18.819  0.00  0.00    +0.000 C 
ATOM     10  O   UNL     1       2.233   8.930  17.979  0.00  0.00    +0.000 OA
ENDROOT
BRANCH   1  15
ATOM     11  C   UNL     1      -0.636  10.801  20.452  0.00  0.00    +0.000 A 
ATOM     12  C   UNL     1      -0.815  10.807  21.844  0.00  0.00    +0.000 A 
ATOM     13  C   UNL     1      -0.166   9.877  22.681  0.00  0.00    +0.000 A 
ATOM     14  C   UNL     1       0.674   8.890  22.149  0.00  0.00    +0.000 A 
ATOM     15  C   UNL     1       0.889   8.867  20.780  0.00  0.00    +0.000 A 
ATOM     16  C   UNL     1       0.237   9.823  19.985  0.00  0.00    +0.000 A 
BRANCH  11  19
ATOM     17  C   UNL     1      -0.789  13.113  19.007  0.00  0.00    +0.000 C 
ATOM     18  C   UNL     1      -1.896  13.082  20.048  0.00  0.00    +0.000 C 
ATOM     19  C   UNL     1      -1.342  11.788  19.537  0.00  0.00    +0.000 C 
BRANCH  17  25
ATOM     20  C   UNL     1       2.216  12.454  18.195  0.00  0.00    +0.000 C 
ATOM     21  N   UNL     1       1.775  13.553  19.009  0.00  0.00    +0.000 N 
ATOM     22  C   UNL     1       2.585  14.452  19.635  0.00  0.00    +0.000 A 
ATOM     23  N   UNL     1       1.860  15.253  20.378  0.00  0.00    +0.000 NA
ATOM     24  N   UNL     1       0.546  14.871  20.234  0.00  0.00    +0.000 NA
ATOM     25  C   UNL     1       0.498  13.829  19.424  0.00  0.00    +0.000 A 
ENDBRANCH  17  25
ENDBRANCH  11  19
ENDBRANCH   1  15
BRANCH   8  26
ATOM     26  C   UNL     1       1.085   3.844  20.202  0.00  0.00    +0.000 C 
ATOM     27  F   UNL     1       0.633   2.709  19.603  0.00  0.00    +0.000 F 
ATOM     28  F   UNL     1       1.548   3.433  21.418  0.00  0.00    +0.000 F 
ATOM     29  F   UNL     1      -0.010   4.604  20.449  0.00  0.00    +0.000 F 
ENDBRANCH   8  26
BRANCH   6  30
ATOM     30  C   UNL     1       4.329   3.981  16.349  0.00  0.00    +0.000 C 
BRANCH  30  31
ATOM     31  N   UNL     1       5.765   3.984  16.626  0.00  0.00    +0.000 NA
ATOM     32  C   UNL     1       6.520   4.936  15.807  0.00  0.00    +0.000 C 
ATOM     33  C   UNL     1       7.192   5.919  16.749  0.00  0.00    +0.000 C 
ATOM     34  C   UNL     1       7.232   5.213  18.082  0.00  0.00    +0.000 C 
ATOM     35  F   UNL     1       8.399   4.524  18.191  0.00  0.00    +0.000 F 
ATOM     36  C   UNL     1       6.063   4.244  18.043  0.00  0.00    +0.000 C 
ENDBRANCH  30  31
ENDBRANCH   6  30
TORSDOF 6
ENDMDL
MODEL 5
REMARK VINA RESULT:      -9.4      1.713      2.478
REMARK  Name = 
REMARK  7 active torsions:
REMARK  status: ('A' for Active; 'I' for Inactive)
REMARK    1  A    between atoms: C_1  and  N_2
REMARK    2  A    between atoms: C_6  and  C_7
REMARK    3  A    between atoms: C_9  and  C_10
REMARK    4  A    between atoms: C_14  and  N_15
REMARK    5  A    between atoms: C_20  and  C_21
REMARK    6  A    between atoms: C_21  and  N_22
REMARK    7  A    between atoms: C_29  and  C_30
REMARK                            x       y       z     vdW  Elec       q    Type
REMARK                         _______ _______ _______ _____ _____    ______ ____
ROOT
ATOM      1  N   UNL     1       1.812   8.042  20.174  0.00  0.00    +0.000 N 
ATOM      2  C   UNL     1       2.208   6.822  20.830  0.00  0.00    +0.000 C 
ATOM      3  C   UNL     1       2.442   5.935  19.681  0.00  0.00    +0.000 A 
ATOM      4  C   UNL     1       2.865   6.714  18.612  0.00  0.00    +0.000 A 
ATOM      5  C   UNL     1       3.478   6.147  17.505  0.00  0.00    +0.000 A 
ATOM      6  C   UNL     1       3.545   4.745  17.452  0.00  0.00    +0.000 A 
ATOM      7  C   UNL     1       2.807   3.983  18.405  0.00  0.00    +0.000 A 
ATOM      8  C   UNL     1       2.189   4.593  19.500  0.00  0.00    +0.000 A 
ATOM      9  C   UNL     1       2.297   8.070  18.862  0.00  0.00    +0.000 C 
ATOM     10  O   UNL     1       2.214   8.940  18.017  0.00  0.00    +0.000 OA
ENDROOT
BRANCH   1  15
ATOM     11  C   UNL     1      -0.738  10.734  20.467  0.00  0.00    +0.000 A 
ATOM     12  C   UNL     1      -0.857  10.806  21.863  0.00  0.00    +0.000 A 
ATOM     13  C   UNL     1      -0.134   9.948  22.716  0.00  0.00    +0.000 A 
ATOM     14  C   UNL     1       0.723   8.968  22.197  0.00  0.00    +0.000 A 
ATOM     15  C   UNL     1       0.880   8.883  20.823  0.00  0.00    +0.000 A 
ATOM     16  C   UNL     1       0.155   9.769  20.011  0.00  0.00    +0.000 A 
BRANCH  11  19
ATOM     17  C   UNL     1      -0.968  12.760  18.651  0.00  0.00    +0.000 C 
ATOM     18  C   UNL     1      -1.806  13.073  19.879  0.00  0.00    +0.000 C 
ATOM     19  C   UNL     1      -1.524  11.643  19.536  0.00  0.00    +0.000 C 
BRANCH  17  25
ATOM     20  C   UNL     1      -0.053  15.801  18.851  0.00  0.00    +0.000 C 
ATOM     21  N   UNL     1       0.810  14.654  18.791  0.00  0.00    +0.000 N 
ATOM     22  C   UNL     1       2.170  14.687  18.728  0.00  0.00    +0.000 A 
ATOM     23  N   UNL     1       2.633  13.470  18.574  0.00  0.00    +0.000 NA
ATOM     24  N   UNL     1       1.552  12.621  18.537  0.00  0.00    +0.000 NA
ATOM     25  C   UNL     1       0.449  13.339  18.645  0.00  0.00    +0.000 A 
ENDBRANCH  17  25
ENDBRANCH  11  19
ENDBRANCH   1  15
BRANCH   8  26
ATOM     26  C   UNL     1       1.123   3.858  20.277  0.00  0.00    +0.000 C 
ATOM     27  F   UNL     1      -0.019   4.569  20.481  0.00  0.00    +0.000 F 
ATOM     28  F   UNL     1       0.719   2.738  19.609  0.00  0.00    +0.000 F 
ATOM     29  F   UNL     1       1.535   3.444  21.500  0.00  0.00    +0.000 F 
ENDBRANCH   8  26
BRANCH   6  30
ATOM     30  C   UNL     1       4.352   4.001  16.412  0.00  0.00    +0.000 C 
BRANCH  30  31
ATOM     31  N   UNL     1       5.789   4.026  16.680  0.00  0.00    +0.000 NA
ATOM     32  C   UNL     1       6.522   5.002  15.870  0.00  0.00    +0.000 C 
ATOM     33  C   UNL     1       7.183   5.984  16.822  0.00  0.00    +0.000 C 
ATOM     34  C   UNL     1       7.244   5.260  18.144  0.00  0.00    +0.000 C 
ATOM     35  F   UNL     1       8.423   4.590  18.237  0.00  0.00    +0.000 F 
ATOM     36  C   UNL     1       6.092   4.272  18.098  0.00  0.00    +0.000 C 
ENDBRANCH  30  31
ENDBRANCH   6  30
TORSDOF 6
ENDMDL
MODEL 6
REMARK VINA RESULT:      -9.4      3.507      9.863
REMARK  Name = 
REMARK  7 active torsions:
REMARK  status: ('A' for Active; 'I' for Inactive)
REMARK    1  A    between atoms: C_1  and  N_2
REMARK    2  A    between atoms: C_6  and  C_7
REMARK    3  A    between atoms: C_9  and  C_10
REMARK    4  A    between atoms: C_14  and  N_15
REMARK    5  A    between atoms: C_20  and  C_21
REMARK    6  A    between atoms: C_21  and  N_22
REMARK    7  A    between atoms: C_29  and  C_30
REMARK                            x       y       z     vdW  Elec       q    Type
REMARK                         _______ _______ _______ _____ _____    ______ ____
ROOT
ATOM      1  N   UNL     1       1.369   8.683  20.225  0.00  0.00    +0.000 N 
ATOM      2  C   UNL     1       1.124   9.509  19.071  0.00  0.00    +0.000 C 
ATOM      3  C   UNL     1       0.012  10.348  19.542  0.00  0.00    +0.000 A 
ATOM      4  C   UNL     1       0.143  10.508  20.915  0.00  0.00    +0.000 A 
ATOM      5  C   UNL     1      -0.544  11.504  21.594  0.00  0.00    +0.000 A 
ATOM      6  C   UNL     1      -1.470  12.263  20.860  0.00  0.00    +0.000 A 
ATOM      7  C   UNL     1      -1.813  11.846  19.540  0.00  0.00    +0.000 A 
ATOM      8  C   UNL     1      -1.106  10.828  18.894  0.00  0.00    +0.000 A 
ATOM      9  C   UNL     1       0.898   9.311  21.383  0.00  0.00    +0.000 C 
ATOM     10  O   UNL     1       0.963   8.957  22.544  0.00  0.00    +0.000 OA
ENDROOT
BRANCH   1  15
ATOM     11  C   UNL     1       3.001   5.869  18.421  0.00  0.00    +0.000 A 
ATOM     12  C   UNL     1       2.643   4.802  19.258  0.00  0.00    +0.000 A 
ATOM     13  C   UNL     1       1.900   5.002  20.439  0.00  0.00    +0.000 A 
ATOM     14  C   UNL     1       1.504   6.286  20.835  0.00  0.00    +0.000 A 
ATOM     15  C   UNL     1       1.823   7.360  20.021  0.00  0.00    +0.000 A 
ATOM     16  C   UNL     1       2.549   7.115  18.845  0.00  0.00    +0.000 A 
BRANCH  11  19
ATOM     17  C   UNL     1       5.328   5.457  17.054  0.00  0.00    +0.000 C 
ATOM     18  C   UNL     1       4.683   6.753  16.591  0.00  0.00    +0.000 C 
ATOM     19  C   UNL     1       3.816   5.669  17.153  0.00  0.00    +0.000 C 
BRANCH  17  25
ATOM     20  C   UNL     1       7.720   7.539  17.303  0.00  0.00    +0.000 C 
ATOM     21  N   UNL     1       7.358   6.539  18.268  0.00  0.00    +0.000 N 
ATOM     22  C   UNL     1       8.034   6.265  19.418  0.00  0.00    +0.000 A 
ATOM     23  N   UNL     1       7.495   5.224  20.007  0.00  0.00    +0.000 NA
ATOM     24  N   UNL     1       6.442   4.810  19.226  0.00  0.00    +0.000 NA
ATOM     25  C   UNL     1       6.373   5.591  18.164  0.00  0.00    +0.000 A 
ENDBRANCH  17  25
ENDBRANCH  11  19
ENDBRANCH   1  15
BRANCH   8  26
ATOM     26  C   UNL     1      -1.693  10.148  17.680  0.00  0.00    +0.000 C 
ATOM     27  F   UNL     1      -0.841   9.303  17.038  0.00  0.00    +0.000 F 
ATOM     28  F   UNL     1      -2.758   9.369  18.026  0.00  0.00    +0.000 F 
ATOM     29  F   UNL     1      -2.144  11.016  16.742  0.00  0.00    +0.000 F 
ENDBRANCH   8  26
BRANCH   6  30
ATOM     30  C   UNL     1      -2.141  13.499  21.416  0.00  0.00    +0.000 C 
BRANCH  30  31
ATOM     31  N   UNL     1      -3.557  13.293  21.715  0.00  0.00    +0.000 NA
ATOM     32  C   UNL     1      -3.813  12.890  23.101  0.00  0.00    +0.000 C 
ATOM     33  C   UNL     1      -4.702  13.949  23.729  0.00  0.00    +0.000 C 
ATOM     34  C   UNL     1      -5.351  14.652  22.562  0.00  0.00    +0.000 C 
ATOM     35  F   UNL     1      -6.527  14.039  22.264  0.00  0.00    +0.000 F 
ATOM     36  C   UNL     1      -4.374  14.478  21.412  0.00  0.00    +0.000 C 
ENDBRANCH  30  31
ENDBRANCH   6  30
TORSDOF 6
ENDMDL
MODEL 7
REMARK VINA RESULT:      -9.3      2.905      4.110
REMARK  Name = 
REMARK  7 active torsions:
REMARK  status: ('A' for Active; 'I' for Inactive)
REMARK    1  A    between atoms: C_1  and  N_2
REMARK    2  A    between atoms: C_6  and  C_7
REMARK    3  A    between atoms: C_9  and  C_10
REMARK    4  A    between atoms: C_14  and  N_15
REMARK    5  A    between atoms: C_20  and  C_21
REMARK    6  A    between atoms: C_21  and  N_22
REMARK    7  A    between atoms: C_29  and  C_30
REMARK                            x       y       z     vdW  Elec       q    Type
REMARK                         _______ _______ _______ _____ _____    ______ ____
ROOT
ATOM      1  N   UNL     1       2.732   7.331  19.078  0.00  0.00    +0.000 N 
ATOM      2  C   UNL     1       3.130   6.071  19.653  0.00  0.00    +0.000 C 
ATOM      3  C   UNL     1       3.571   5.332  18.461  0.00  0.00    +0.000 A 
ATOM      4  C   UNL     1       4.068   6.247  17.544  0.00  0.00    +0.000 A 
ATOM      5  C   UNL     1       4.856   5.844  16.476  0.00  0.00    +0.000 A 
ATOM      6  C   UNL     1       5.030   4.463  16.290  0.00  0.00    +0.000 A 
ATOM      7  C   UNL     1       4.234   3.557  17.052  0.00  0.00    +0.000 A 
ATOM      8  C   UNL     1       3.441   4.005  18.112  0.00  0.00    +0.000 A 
ATOM      9  C   UNL     1       3.377   7.532  17.852  0.00  0.00    +0.000 C 
ATOM     10  O   UNL     1       3.338   8.484  17.098  0.00  0.00    +0.000 OA
ENDROOT
BRANCH   1  15
ATOM     11  C   UNL     1       0.291  10.101  19.526  0.00  0.00    +0.000 A 
ATOM     12  C   UNL     1      -0.255   9.746  20.769  0.00  0.00    +0.000 A 
ATOM     13  C   UNL     1       0.143   8.577  21.449  0.00  0.00    +0.000 A 
ATOM     14  C   UNL     1       1.093   7.708  20.897  0.00  0.00    +0.000 A 
ATOM     15  C   UNL     1       1.667   8.038  19.680  0.00  0.00    +0.000 A 
ATOM     16  C   UNL     1       1.255   9.220  19.044  0.00  0.00    +0.000 A 
BRANCH  11  19
ATOM     17  C   UNL     1       0.529  12.724  18.808  0.00  0.00    +0.000 C 
ATOM     18  C   UNL     1      -0.822  12.491  19.465  0.00  0.00    +0.000 C 
ATOM     19  C   UNL     1      -0.142  11.349  18.775  0.00  0.00    +0.000 C 
BRANCH  17  25
ATOM     20  C   UNL     1       3.094  14.469  18.104  0.00  0.00    +0.000 C 
ATOM     21  N   UNL     1       2.712  14.004  19.409  0.00  0.00    +0.000 N 
ATOM     22  C   UNL     1       3.433  14.169  20.553  0.00  0.00    +0.000 A 
ATOM     23  N   UNL     1       2.848  13.530  21.537  0.00  0.00    +0.000 NA
ATOM     24  N   UNL     1       1.718  12.935  21.026  0.00  0.00    +0.000 NA
ATOM     25  C   UNL     1       1.648  13.204  19.735  0.00  0.00    +0.000 A 
ENDBRANCH  17  25
ENDBRANCH  11  19
ENDBRANCH   1  15
BRANCH   8  26
ATOM     26  C   UNL     1       2.341   3.128  18.660  0.00  0.00    +0.000 C 
ATOM     27  F   UNL     1       1.104   3.695  18.644  0.00  0.00    +0.000 F 
ATOM     28  F   UNL     1       2.210   1.991  17.917  0.00  0.00    +0.000 F 
ATOM     29  F   UNL     1       2.557   2.726  19.937  0.00  0.00    +0.000 F 
ENDBRANCH   8  26
BRANCH   6  30
ATOM     30  C   UNL     1       6.013   3.887  15.295  0.00  0.00    +0.000 C 
BRANCH  30  31
ATOM     31  N   UNL     1       5.719   4.270  13.915  0.00  0.00    +0.000 NA
ATOM     32  C   UNL     1       6.908   4.367  13.065  0.00  0.00    +0.000 C 
ATOM     33  C   UNL     1       6.744   3.369  11.932  0.00  0.00    +0.000 C 
ATOM     34  C   UNL     1       5.262   3.098  11.866  0.00  0.00    +0.000 C 
ATOM     35  F   UNL     1       4.683   3.968  10.997  0.00  0.00    +0.000 F 
ATOM     36  C   UNL     1       4.756   3.362  13.274  0.00  0.00    +0.000 C 
ENDBRANCH  30  31
ENDBRANCH   6  30
TORSDOF 6
ENDMDL
MODEL 8
REMARK VINA RESULT:      -9.3      1.007      1.433
REMARK  Name = 
REMARK  7 active torsions:
REMARK  status: ('A' for Active; 'I' for Inactive)
REMARK    1  A    between atoms: C_1  and  N_2
REMARK    2  A    between atoms: C_6  and  C_7
REMARK    3  A    between atoms: C_9  and  C_10
REMARK    4  A    between atoms: C_14  and  N_15
REMARK    5  A    between atoms: C_20  and  C_21
REMARK    6  A    between atoms: C_21  and  N_22
REMARK    7  A    between atoms: C_29  and  C_30
REMARK                            x       y       z     vdW  Elec       q    Type
REMARK                         _______ _______ _______ _____ _____    ______ ____
ROOT
ATOM      1  N   UNL     1       1.764   8.080  20.214  0.00  0.00    +0.000 N 
ATOM      2  C   UNL     1       2.211   6.890  20.891  0.00  0.00    +0.000 C 
ATOM      3  C   UNL     1       2.417   5.971  19.762  0.00  0.00    +0.000 A 
ATOM      4  C   UNL     1       2.780   6.723  18.653  0.00  0.00    +0.000 A 
ATOM      5  C   UNL     1       3.360   6.133  17.540  0.00  0.00    +0.000 A 
ATOM      6  C   UNL     1       3.453   4.732  17.529  0.00  0.00    +0.000 A 
ATOM      7  C   UNL     1       2.770   3.986  18.534  0.00  0.00    +0.000 A 
ATOM      8  C   UNL     1       2.185   4.619  19.634  0.00  0.00    +0.000 A 
ATOM      9  C   UNL     1       2.196   8.075  18.883  0.00  0.00    +0.000 C 
ATOM     10  O   UNL     1       2.061   8.916  18.016  0.00  0.00    +0.000 OA
ENDROOT
BRANCH   1  15
ATOM     11  C   UNL     1      -0.253  11.152  20.790  0.00  0.00    +0.000 A 
ATOM     12  C   UNL     1      -0.765  10.871  22.066  0.00  0.00    +0.000 A 
ATOM     13  C   UNL     1      -0.486   9.659  22.729  0.00  0.00    +0.000 A 
ATOM     14  C   UNL     1       0.303   8.671  22.126  0.00  0.00    +0.000 A 
ATOM     15  C   UNL     1       0.841   8.923  20.874  0.00  0.00    +0.000 A 
ATOM     16  C   UNL     1       0.553  10.150  20.257  0.00  0.00    +0.000 A 
BRANCH  11  19
ATOM     17  C   UNL     1      -1.548  12.644  18.906  0.00  0.00    +0.000 C 
ATOM     18  C   UNL     1      -0.047  12.717  18.678  0.00  0.00    +0.000 C 
ATOM     19  C   UNL     1      -0.561  12.448  20.058  0.00  0.00    +0.000 C 
BRANCH  17  25
ATOM     20  C   UNL     1      -4.667  12.027  18.815  0.00  0.00    +0.000 C 
ATOM     21  N   UNL     1      -3.646  11.367  18.049  0.00  0.00    +0.000 N 
ATOM     22  C   UNL     1      -3.839  10.309  17.214  0.00  0.00    +0.000 A 
ATOM     23  N   UNL     1      -2.682   9.887  16.764  0.00  0.00    +0.000 NA
ATOM     24  N   UNL     1      -1.710  10.689  17.315  0.00  0.00    +0.000 NA
ATOM     25  C   UNL     1      -2.291  11.569  18.109  0.00  0.00    +0.000 A 
ENDBRANCH  17  25
ENDBRANCH  11  19
ENDBRANCH   1  15
BRANCH   8  26
ATOM     26  C   UNL     1       1.165   3.889  20.476  0.00  0.00    +0.000 C 
ATOM     27  F   UNL     1      -0.008   4.556  20.648  0.00  0.00    +0.000 F 
ATOM     28  F   UNL     1       0.810   2.708  19.894  0.00  0.00    +0.000 F 
ATOM     29  F   UNL     1       1.613   3.582  21.718  0.00  0.00    +0.000 F 
ENDBRANCH   8  26
BRANCH   6  30
ATOM     30  C   UNL     1       4.233   3.971  16.480  0.00  0.00    +0.000 C 
BRANCH  30  31
ATOM     31  N   UNL     1       5.139   4.824  15.712  0.00  0.00    +0.000 NA
ATOM     32  C   UNL     1       6.305   5.279  16.474  0.00  0.00    +0.000 C 
ATOM     33  C   UNL     1       7.545   4.765  15.764  0.00  0.00    +0.000 C 
ATOM     34  C   UNL     1       7.093   4.475  14.354  0.00  0.00    +0.000 C 
ATOM     35  F   UNL     1       7.280   5.579  13.585  0.00  0.00    +0.000 F 
ATOM     36  C   UNL     1       5.608   4.177  14.477  0.00  0.00    +0.000 C 
ENDBRANCH  30  31
ENDBRANCH   6  30
TORSDOF 6
ENDMDL
MODEL 9
REMARK VINA RESULT:      -9.3      1.389      2.089
REMARK  Name = 
REMARK  7 active torsions:
REMARK  status: ('A' for Active; 'I' for Inactive)
REMARK    1  A    between atoms: C_1  and  N_2
REMARK    2  A    between atoms: C_6  and  C_7
REMARK    3  A    between atoms: C_9  and  C_10
REMARK    4  A    between atoms: C_14  and  N_15
REMARK    5  A    between atoms: C_20  and  C_21
REMARK    6  A    between atoms: C_21  and  N_22
REMARK    7  A    between atoms: C_29  and  C_30
REMARK                            x       y       z     vdW  Elec       q    Type
REMARK                         _______ _______ _______ _____ _____    ______ ____
ROOT
ATOM      1  N   UNL     1       1.505   8.737  19.342  0.00  0.00    +0.000 N 
ATOM      2  C   UNL     1       1.913   7.757  20.316  0.00  0.00    +0.000 C 
ATOM      3  C   UNL     1       2.410   6.676  19.452  0.00  0.00    +0.000 A 
ATOM      4  C   UNL     1       2.913   7.246  18.291  0.00  0.00    +0.000 A 
ATOM      5  C   UNL     1       3.744   6.534  17.439  0.00  0.00    +0.000 A 
ATOM      6  C   UNL     1       3.956   5.177  17.732  0.00  0.00    +0.000 A 
ATOM      7  C   UNL     1       3.158   4.554  18.737  0.00  0.00    +0.000 A 
ATOM      8  C   UNL     1       2.321   5.305  19.567  0.00  0.00    +0.000 A 
ATOM      9  C   UNL     1       2.183   8.537  18.134  0.00  0.00    +0.000 C 
ATOM     10  O   UNL     1       2.146   9.178  17.102  0.00  0.00    +0.000 OA
ENDROOT
BRANCH   1  15
ATOM     11  C   UNL     1      -1.405  10.946  18.647  0.00  0.00    +0.000 A 
ATOM     12  C   UNL     1      -1.675  11.409  19.943  0.00  0.00    +0.000 A 
ATOM     13  C   UNL     1      -0.933  10.971  21.058  0.00  0.00    +0.000 A 
ATOM     14  C   UNL     1       0.099  10.034  20.916  0.00  0.00    +0.000 A 
ATOM     15  C   UNL     1       0.405   9.571  19.647  0.00  0.00    +0.000 A 
ATOM     16  C   UNL     1      -0.347  10.046  18.562  0.00  0.00    +0.000 A 
BRANCH  11  19
ATOM     17  C   UNL     1      -3.709  11.698  17.389  0.00  0.00    +0.000 C 
ATOM     18  C   UNL     1      -3.128  10.470  16.708  0.00  0.00    +0.000 C 
ATOM     19  C   UNL     1      -2.209  11.399  17.439  0.00  0.00    +0.000 C 
BRANCH  17  25
ATOM     20  C   UNL     1      -4.370  13.392  20.000  0.00  0.00    +0.000 C 
ATOM     21  N   UNL     1      -5.057  12.211  19.554  0.00  0.00    +0.000 N 
ATOM     22  C   UNL     1      -6.058  11.575  20.224  0.00  0.00    +0.000 A 
ATOM     23  N   UNL     1      -6.381  10.474  19.589  0.00  0.00    +0.000 NA
ATOM     24  N   UNL     1      -5.575  10.389  18.477  0.00  0.00    +0.000 NA
ATOM     25  C   UNL     1      -4.759  11.428  18.469  0.00  0.00    +0.000 A 
ENDBRANCH  17  25
ENDBRANCH  11  19
ENDBRANCH   1  15
BRANCH   8  26
ATOM     26  C   UNL     1       1.225   4.627  20.353  0.00  0.00    +0.000 C 
ATOM     27  F   UNL     1       0.212   5.451  20.736  0.00  0.00    +0.000 F 
ATOM     28  F   UNL     1       0.621   3.657  19.609  0.00  0.00    +0.000 F 
ATOM     29  F   UNL     1       1.668   4.021  21.483  0.00  0.00    +0.000 F 
ENDBRANCH   8  26
BRANCH   6  30
ATOM     30  C   UNL     1       4.984   4.333  17.012  0.00  0.00    +0.000 C 
BRANCH  30  31
ATOM     31  N   UNL     1       6.339   4.521  17.528  0.00  0.00    +0.000 NA
ATOM     32  C   UNL     1       7.110   5.534  16.801  0.00  0.00    +0.000 C 
ATOM     33  C   UNL     1       7.489   6.619  17.793  0.00  0.00    +0.000 C 
ATOM     34  C   UNL     1       7.377   5.964  19.147  0.00  0.00    +0.000 C 
ATOM     35  F   UNL     1       8.579   5.428  19.488  0.00  0.00    +0.000 F 
ATOM     36  C   UNL     1       6.353   4.858  18.959  0.00  0.00    +0.000 C 
ENDBRANCH  30  31
ENDBRANCH   6  30
TORSDOF 6
ENDMDL
