MODEL 1
REMARK VINA RESULT:      -8.5      0.000      0.000
REMARK  Name = 
REMARK  8 active torsions:
REMARK  status: ('A' for Active; 'I' for Inactive)
REMARK    1  A    between atoms: C_1  and  C_2
REMARK    2  A    between atoms: C_2  and  S_3
REMARK    3  A    between atoms: C_2  and  C_10
REMARK    4  A    between atoms: S_3  and  C_4
REMARK    5  A    between atoms: N_8  and  C_9
REMARK    6  A    between atoms: C_14  and  N_15
REMARK    7  A    between atoms: C_22  and  C_23
REMARK    8  A    between atoms: C_23  and  C_24
REMARK                            x       y       z     vdW  Elec       q    Type
REMARK                         _______ _______ _______ _____ _____    ______ ____
ROOT
ATOM      1  C   UNL     1      -0.050  10.747  19.719  0.00  0.00    +0.000 A 
ATOM      2  C   UNL     1      -0.406  10.728  21.075  0.00  0.00    +0.000 A 
ATOM      3  C   UNL     1       0.118   9.767  21.939  0.00  0.00    +0.000 A 
ATOM      4  C   UNL     1       0.978   8.785  21.457  0.00  0.00    +0.000 A 
ATOM      5  C   UNL     1       1.334   8.755  20.110  0.00  0.00    +0.000 A 
ATOM      6  C   UNL     1       0.840   9.750  19.257  0.00  0.00    +0.000 A 
ENDROOT
BRANCH   5   7
ATOM      7  N   UNL     1       2.159   7.763  19.534  0.00  0.00    +0.000 N 
ATOM      8  C   UNL     1       2.272   6.453  19.930  0.00  0.00    +0.000 C 
ATOM      9  O   UNL     1       1.627   5.950  20.847  0.00  0.00    +0.000 OA
ATOM     10  N   UNL     1       3.182   5.685  19.217  0.00  0.00    +0.000 N 
ATOM     11  C   UNL     1       4.058   6.100  18.118  0.00  0.00    +0.000 C 
ATOM     12  C   UNL     1       4.263   4.976  17.089  0.00  0.00    +0.000 C 
ATOM     13  O   UNL     1       4.533   3.695  17.678  0.00  0.00    +0.000 OA
ATOM     14  C   UNL     1       3.569   3.311  18.687  0.00  0.00    +0.000 C 
ATOM     15  C   UNL     1       3.539   4.383  19.780  0.00  0.00    +0.000 C 
ATOM     16  H   UNL     1       2.636   8.044  18.700  0.00  0.00    +0.000 HD
BRANCH  14  17
ATOM     17  C   UNL     1       2.212   2.994  18.049  0.00  0.00    +0.000 C 
BRANCH  17  18
ATOM     18  C   UNL     1       1.162   2.497  19.017  0.00  0.00    +0.000 C 
ATOM     19  F   UNL     1       1.666   1.757  20.021  0.00  0.00    +0.000 F 
ATOM     20  F   UNL     1       0.475   3.531  19.552  0.00  0.00    +0.000 F 
ATOM     21  F   UNL     1       0.263   1.720  18.367  0.00  0.00    +0.000 F 
ENDBRANCH  17  18
ENDBRANCH  14  17
ENDBRANCH   5   7
BRANCH   1  23
ATOM     22  C   UNL     1      -0.169  13.208  19.006  0.00  0.00    +0.000 C 
ATOM     23  C   UNL     1      -0.613  11.764  18.723  0.00  0.00    +0.000 C 
BRANCH  23  24
ATOM     24  S   UNL     1      -2.450  11.643  18.740  0.00  0.00    +0.000 S 
BRANCH  24  25
ATOM     25  C   UNL     1      -2.816  10.959  17.201  0.00  0.00    +0.000 A 
ATOM     26  N   UNL     1      -2.053  10.192  16.458  0.00  0.00    +0.000 NA
ATOM     27  N   UNL     1      -2.737   9.940  15.284  0.00  0.00    +0.000 NA
ATOM     28  C   UNL     1      -3.900  10.548  15.361  0.00  0.00    +0.000 A 
ATOM     29  N   UNL     1      -4.003  11.177  16.565  0.00  0.00    +0.000 N 
ATOM     30  C   UNL     1      -5.142  11.919  17.044  0.00  0.00    +0.000 C 
ENDBRANCH  24  25
ENDBRANCH  23  24
ENDBRANCH   1  23
TORSDOF 6
ENDMDL
MODEL 2
REMARK VINA RESULT:      -8.2      4.686      8.868
REMARK  Name = 
REMARK  8 active torsions:
REMARK  status: ('A' for Active; 'I' for Inactive)
REMARK    1  A    between atoms: C_1  and  C_2
REMARK    2  A    between atoms: C_2  and  S_3
REMARK    3  A    between atoms: C_2  and  C_10
REMARK    4  A    between atoms: S_3  and  C_4
REMARK    5  A    between atoms: N_8  and  C_9
REMARK    6  A    between atoms: C_14  and  N_15
REMARK    7  A    between atoms: C_22  and  C_23
REMARK    8  A    between atoms: C_23  and  C_24
REMARK                            x       y       z     vdW  Elec       q    Type
REMARK                         _______ _______ _______ _____ _____    ______ ____
ROOT
ATOM      1  C   UNL     1       4.258   5.259  17.611  0.00  0.00    +0.000 A 
ATOM      2  C   UNL     1       3.853   3.961  17.955  0.00  0.00    +0.000 A 
ATOM      3  C   UNL     1       2.817   3.752  18.864  0.00  0.00    +0.000 A 
ATOM      4  C   UNL     1       2.192   4.835  19.475  0.00  0.00    +0.000 A 
ATOM      5  C   UNL     1       2.584   6.139  19.180  0.00  0.00    +0.000 A 
ATOM      6  C   UNL     1       3.595   6.342  18.231  0.00  0.00    +0.000 A 
ENDROOT
BRANCH   5   7
ATOM      7  N   UNL     1       2.035   7.287  19.794  0.00  0.00    +0.000 N 
ATOM      8  C   UNL     1       1.633   8.442  19.170  0.00  0.00    +0.000 C 
ATOM      9  O   UNL     1       1.671   8.620  17.955  0.00  0.00    +0.000 OA
ATOM     10  N   UNL     1       1.155   9.442  20.005  0.00  0.00    +0.000 N 
ATOM     11  C   UNL     1       1.055   9.435  21.467  0.00  0.00    +0.000 C 
ATOM     12  C   UNL     1      -0.172  10.217  21.964  0.00  0.00    +0.000 C 
ATOM     13  O   UNL     1      -0.352  11.484  21.313  0.00  0.00    +0.000 OA
ATOM     14  C   UNL     1      -0.337  11.396  19.868  0.00  0.00    +0.000 C 
ATOM     15  C   UNL     1       0.988  10.773  19.422  0.00  0.00    +0.000 C 
ATOM     16  H   UNL     1       1.850   7.193  20.773  0.00  0.00    +0.000 HD
BRANCH  14  17
ATOM     17  C   UNL     1      -1.596  10.688  19.355  0.00  0.00    +0.000 C 
BRANCH  17  18
ATOM     18  C   UNL     1      -1.847  10.848  17.872  0.00  0.00    +0.000 C 
ATOM     19  F   UNL     1      -1.509  12.062  17.399  0.00  0.00    +0.000 F 
ATOM     20  F   UNL     1      -1.172   9.913  17.167  0.00  0.00    +0.000 F 
ATOM     21  F   UNL     1      -3.162  10.672  17.603  0.00  0.00    +0.000 F 
ENDBRANCH  17  18
ENDBRANCH  14  17
ENDBRANCH   5   7
BRANCH   1  23
ATOM     22  C   UNL     1       5.158   6.770  15.744  0.00  0.00    +0.000 C 
ATOM     23  C   UNL     1       5.405   5.544  16.638  0.00  0.00    +0.000 C 
BRANCH  23  24
ATOM     24  S   UNL     1       5.684   4.044  15.607  0.00  0.00    +0.000 S 
BRANCH  24  25
ATOM     25  C   UNL     1       6.766   4.600  14.385  0.00  0.00    +0.000 A 
ATOM     26  N   UNL     1       7.780   5.420  14.520  0.00  0.00    +0.000 NA
ATOM     27  N   UNL     1       8.316   5.628  13.263  0.00  0.00    +0.000 NA
ATOM     28  C   UNL     1       7.617   4.913  12.409  0.00  0.00    +0.000 A 
ATOM     29  N   UNL     1       6.649   4.226  13.078  0.00  0.00    +0.000 N 
ATOM     30  C   UNL     1       5.705   3.303  12.501  0.00  0.00    +0.000 C 
ENDBRANCH  24  25
ENDBRANCH  23  24
ENDBRANCH   1  23
TORSDOF 6
ENDMDL
MODEL 3
REMARK VINA RESULT:      -8.1      4.729      9.058
REMARK  Name = 
REMARK  8 active torsions:
REMARK  status: ('A' for Active; 'I' for Inactive)
REMARK    1  A    between atoms: C_1  and  C_2
REMARK    2  A    between atoms: C_2  and  S_3
REMARK    3  A    between atoms: C_2  and  C_10
REMARK    4  A    between atoms: S_3  and  C_4
REMARK    5  A    between atoms: N_8  and  C_9
REMARK    6  A    between atoms: C_14  and  N_15
REMARK    7  A    between atoms: C_22  and  C_23
REMARK    8  A    between atoms: C_23  and  C_24
REMARK                            x       y       z     vdW  Elec       q    Type
REMARK                         _______ _______ _______ _____ _____    ______ ____
ROOT
ATOM      1  C   UNL     1       4.303   4.750  16.753  0.00  0.00    +0.000 A 
ATOM      2  C   UNL     1       3.721   3.485  16.920  0.00  0.00    +0.000 A 
ATOM      3  C   UNL     1       2.579   3.320  17.702  0.00  0.00    +0.000 A 
ATOM      4  C   UNL     1       2.018   4.408  18.362  0.00  0.00    +0.000 A 
ATOM      5  C   UNL     1       2.582   5.676  18.243  0.00  0.00    +0.000 A 
ATOM      6  C   UNL     1       3.703   5.844  17.419  0.00  0.00    +0.000 A 
ENDROOT
BRANCH   5   7
ATOM      7  N   UNL     1       2.104   6.820  18.920  0.00  0.00    +0.000 N 
ATOM      8  C   UNL     1       1.947   8.081  18.399  0.00  0.00    +0.000 C 
ATOM      9  O   UNL     1       2.179   8.379  17.230  0.00  0.00    +0.000 OA
ATOM     10  N   UNL     1       1.487   9.046  19.285  0.00  0.00    +0.000 N 
ATOM     11  C   UNL     1       1.180   8.899  20.711  0.00  0.00    +0.000 C 
ATOM     12  C   UNL     1       0.006   9.793  21.141  0.00  0.00    +0.000 C 
ATOM     13  O   UNL     1       0.085  11.134  20.636  0.00  0.00    +0.000 OA
ATOM     14  C   UNL     1       0.293  11.198  19.204  0.00  0.00    +0.000 C 
ATOM     15  C   UNL     1       1.577  10.441  18.855  0.00  0.00    +0.000 C 
ATOM     16  H   UNL     1       1.771   6.652  19.849  0.00  0.00    +0.000 HD
BRANCH  14  17
ATOM     17  C   UNL     1      -0.960  10.737  18.452  0.00  0.00    +0.000 C 
BRANCH  17  18
ATOM     18  C   UNL     1      -1.788  11.857  17.865  0.00  0.00    +0.000 C 
ATOM     19  F   UNL     1      -2.862  12.177  18.609  0.00  0.00    +0.000 F 
ATOM     20  F   UNL     1      -1.040  12.970  17.695  0.00  0.00    +0.000 F 
ATOM     21  F   UNL     1      -2.248  11.501  16.641  0.00  0.00    +0.000 F 
ENDBRANCH  17  18
ENDBRANCH  14  17
ENDBRANCH   5   7
BRANCH   1  23
ATOM     22  C   UNL     1       5.657   4.092  14.677  0.00  0.00    +0.000 C 
ATOM     23  C   UNL     1       5.570   4.983  15.926  0.00  0.00    +0.000 C 
BRANCH  23  24
ATOM     24  S   UNL     1       7.033   4.714  17.010  0.00  0.00    +0.000 S 
BRANCH  24  25
ATOM     25  C   UNL     1       7.480   6.313  17.475  0.00  0.00    +0.000 A 
ATOM     26  N   UNL     1       7.417   7.408  16.756  0.00  0.00    +0.000 NA
ATOM     27  N   UNL     1       7.941   8.435  17.518  0.00  0.00    +0.000 NA
ATOM     28  C   UNL     1       8.289   7.931  18.681  0.00  0.00    +0.000 A 
ATOM     29  N   UNL     1       7.989   6.602  18.707  0.00  0.00    +0.000 N 
ATOM     30  C   UNL     1       8.182   5.706  19.819  0.00  0.00    +0.000 C 
ENDBRANCH  24  25
ENDBRANCH  23  24
ENDBRANCH   1  23
TORSDOF 6
ENDMDL
MODEL 4
REMARK VINA RESULT:      -8.0      2.763      3.305
REMARK  Name = 
REMARK  8 active torsions:
REMARK  status: ('A' for Active; 'I' for Inactive)
REMARK    1  A    between atoms: C_1  and  C_2
REMARK    2  A    between atoms: C_2  and  S_3
REMARK    3  A    between atoms: C_2  and  C_10
REMARK    4  A    between atoms: S_3  and  C_4
REMARK    5  A    between atoms: N_8  and  C_9
REMARK    6  A    between atoms: C_14  and  N_15
REMARK    7  A    between atoms: C_22  and  C_23
REMARK    8  A    between atoms: C_23  and  C_24
REMARK                            x       y       z     vdW  Elec       q    Type
REMARK                         _______ _______ _______ _____ _____    ______ ____
ROOT
ATOM      1  C   UNL     1       0.215  10.539  20.110  0.00  0.00    +0.000 A 
ATOM      2  C   UNL     1       0.004  10.810  21.469  0.00  0.00    +0.000 A 
ATOM      3  C   UNL     1       0.444   9.924  22.452  0.00  0.00    +0.000 A 
ATOM      4  C   UNL     1       1.071   8.734  22.094  0.00  0.00    +0.000 A 
ATOM      5  C   UNL     1       1.274   8.417  20.752  0.00  0.00    +0.000 A 
ATOM      6  C   UNL     1       0.870   9.333  19.772  0.00  0.00    +0.000 A 
ENDROOT
BRANCH   5   7
ATOM      7  N   UNL     1       1.855   7.209  20.306  0.00  0.00    +0.000 N 
ATOM      8  C   UNL     1       2.632   7.032  19.188  0.00  0.00    +0.000 C 
ATOM      9  O   UNL     1       2.960   7.937  18.424  0.00  0.00    +0.000 OA
ATOM     10  N   UNL     1       3.057   5.732  18.949  0.00  0.00    +0.000 N 
ATOM     11  C   UNL     1       2.755   4.522  19.719  0.00  0.00    +0.000 C 
ATOM     12  C   UNL     1       3.933   3.534  19.721  0.00  0.00    +0.000 C 
ATOM     13  O   UNL     1       4.530   3.343  18.430  0.00  0.00    +0.000 OA
ATOM     14  C   UNL     1       4.889   4.582  17.773  0.00  0.00    +0.000 C 
ATOM     15  C   UNL     1       3.636   5.452  17.636  0.00  0.00    +0.000 C 
ATOM     16  H   UNL     1       1.746   6.434  20.930  0.00  0.00    +0.000 HD
BRANCH  14  17
ATOM     17  C   UNL     1       6.072   5.250  18.482  0.00  0.00    +0.000 C 
BRANCH  17  18
ATOM     18  C   UNL     1       7.328   5.356  17.647  0.00  0.00    +0.000 C 
ATOM     19  F   UNL     1       7.085   5.479  16.329  0.00  0.00    +0.000 F 
ATOM     20  F   UNL     1       8.079   6.408  18.042  0.00  0.00    +0.000 F 
ATOM     21  F   UNL     1       8.087   4.246  17.807  0.00  0.00    +0.000 F 
ENDBRANCH  17  18
ENDBRANCH  14  17
ENDBRANCH   5   7
BRANCH   1  23
ATOM     22  C   UNL     1       0.619  12.705  18.796  0.00  0.00    +0.000 C 
ATOM     23  C   UNL     1      -0.269  11.465  18.990  0.00  0.00    +0.000 C 
BRANCH  23  24
ATOM     24  S   UNL     1      -2.002  11.967  19.356  0.00  0.00    +0.000 S 
BRANCH  24  25
ATOM     25  C   UNL     1      -2.852  11.526  17.922  0.00  0.00    +0.000 A 
ATOM     26  N   UNL     1      -2.352  11.079  16.795  0.00  0.00    +0.000 NA
ATOM     27  N   UNL     1      -3.402  10.922  15.909  0.00  0.00    +0.000 NA
ATOM     28  C   UNL     1      -4.506  11.265  16.535  0.00  0.00    +0.000 A 
ATOM     29  N   UNL     1      -4.209  11.623  17.815  0.00  0.00    +0.000 N 
ATOM     30  C   UNL     1      -5.151  12.023  18.829  0.00  0.00    +0.000 C 
ENDBRANCH  24  25
ENDBRANCH  23  24
ENDBRANCH   1  23
TORSDOF 6
ENDMDL
MODEL 5
REMARK VINA RESULT:      -7.9      2.510      3.613
REMARK  Name = 
REMARK  8 active torsions:
REMARK  status: ('A' for Active; 'I' for Inactive)
REMARK    1  A    between atoms: C_1  and  C_2
REMARK    2  A    between atoms: C_2  and  S_3
REMARK    3  A    between atoms: C_2  and  C_10
REMARK    4  A    between atoms: S_3  and  C_4
REMARK    5  A    between atoms: N_8  and  C_9
REMARK    6  A    between atoms: C_14  and  N_15
REMARK    7  A    between atoms: C_22  and  C_23
REMARK    8  A    between atoms: C_23  and  C_24
REMARK                            x       y       z     vdW  Elec       q    Type
REMARK                         _______ _______ _______ _____ _____    ______ ____
ROOT
ATOM      1  C   UNL     1      -0.046  10.587  20.278  0.00  0.00    +0.000 A 
ATOM      2  C   UNL     1      -0.332  10.469  21.646  0.00  0.00    +0.000 A 
ATOM      3  C   UNL     1       0.240   9.455  22.412  0.00  0.00    +0.000 A 
ATOM      4  C   UNL     1       1.080   8.517  21.819  0.00  0.00    +0.000 A 
ATOM      5  C   UNL     1       1.366   8.584  20.457  0.00  0.00    +0.000 A 
ATOM      6  C   UNL     1       0.824   9.633  19.702  0.00  0.00    +0.000 A 
ENDROOT
BRANCH   5   7
ATOM      7  N   UNL     1       2.166   7.643  19.771  0.00  0.00    +0.000 N 
ATOM      8  C   UNL     1       2.302   6.309  20.063  0.00  0.00    +0.000 C 
ATOM      9  O   UNL     1       1.702   5.735  20.969  0.00  0.00    +0.000 OA
ATOM     10  N   UNL     1       3.179   5.601  19.253  0.00  0.00    +0.000 N 
ATOM     11  C   UNL     1       4.001   6.102  18.148  0.00  0.00    +0.000 C 
ATOM     12  C   UNL     1       4.160   5.058  17.030  0.00  0.00    +0.000 C 
ATOM     13  O   UNL     1       4.462   3.739  17.509  0.00  0.00    +0.000 OA
ATOM     14  C   UNL     1       3.547   3.275  18.531  0.00  0.00    +0.000 C 
ATOM     15  C   UNL     1       3.567   4.263  19.700  0.00  0.00    +0.000 C 
ATOM     16  H   UNL     1       2.602   7.988  18.938  0.00  0.00    +0.000 HD
BRANCH  14  17
ATOM     17  C   UNL     1       2.163   2.998  17.936  0.00  0.00    +0.000 C 
BRANCH  17  18
ATOM     18  C   UNL     1       1.167   2.406  18.908  0.00  0.00    +0.000 C 
ATOM     19  F   UNL     1       0.193   1.696  18.312  0.00  0.00    +0.000 F 
ATOM     20  F   UNL     1       1.788   1.609  19.806  0.00  0.00    +0.000 F 
ATOM     21  F   UNL     1       0.562   3.394  19.610  0.00  0.00    +0.000 F 
ENDBRANCH  17  18
ENDBRANCH  14  17
ENDBRANCH   5   7
BRANCH   1  23
ATOM     22  C   UNL     1      -1.442  11.098  18.188  0.00  0.00    +0.000 C 
ATOM     23  C   UNL     1      -0.666  11.666  19.387  0.00  0.00    +0.000 C 
BRANCH  23  24
ATOM     24  S   UNL     1       0.675  12.788  18.809  0.00  0.00    +0.000 S 
BRANCH  24  25
ATOM     25  C   UNL     1       1.051  13.711  20.216  0.00  0.00    +0.000 A 
ATOM     26  N   UNL     1       1.956  13.453  21.131  0.00  0.00    +0.000 NA
ATOM     27  N   UNL     1       1.855  14.431  22.102  0.00  0.00    +0.000 NA
ATOM     28  C   UNL     1       0.903  15.260  21.735  0.00  0.00    +0.000 A 
ATOM     29  N   UNL     1       0.390  14.860  20.537  0.00  0.00    +0.000 N 
ATOM     30  C   UNL     1      -0.641  15.529  19.786  0.00  0.00    +0.000 C 
ENDBRANCH  24  25
ENDBRANCH  23  24
ENDBRANCH   1  23
TORSDOF 6
ENDMDL
MODEL 6
REMARK VINA RESULT:      -7.9      1.889      2.648
REMARK  Name = 
REMARK  8 active torsions:
REMARK  status: ('A' for Active; 'I' for Inactive)
REMARK    1  A    between atoms: C_1  and  C_2
REMARK    2  A    between atoms: C_2  and  S_3
REMARK    3  A    between atoms: C_2  and  C_10
REMARK    4  A    between atoms: S_3  and  C_4
REMARK    5  A    between atoms: N_8  and  C_9
REMARK    6  A    between atoms: C_14  and  N_15
REMARK    7  A    between atoms: C_22  and  C_23
REMARK    8  A    between atoms: C_23  and  C_24
REMARK                            x       y       z     vdW  Elec       q    Type
REMARK                         _______ _______ _______ _____ _____    ______ ____
ROOT
ATOM      1  C   UNL     1      -0.855  10.740  18.288  0.00  0.00    +0.000 A 
ATOM      2  C   UNL     1      -0.311  11.984  18.635  0.00  0.00    +0.000 A 
ATOM      3  C   UNL     1       1.066  12.151  18.770  0.00  0.00    +0.000 A 
ATOM      4  C   UNL     1       1.924  11.069  18.597  0.00  0.00    +0.000 A 
ATOM      5  C   UNL     1       1.420   9.810  18.277  0.00  0.00    +0.000 A 
ATOM      6  C   UNL     1       0.038   9.660  18.099  0.00  0.00    +0.000 A 
ENDROOT
BRANCH   5   7
ATOM      7  N   UNL     1       2.218   8.653  18.135  0.00  0.00    +0.000 N 
ATOM      8  C   UNL     1       2.316   7.607  19.018  0.00  0.00    +0.000 C 
ATOM      9  O   UNL     1       1.679   7.524  20.066  0.00  0.00    +0.000 OA
ATOM     10  N   UNL     1       3.200   6.598  18.661  0.00  0.00    +0.000 N 
ATOM     11  C   UNL     1       4.064   6.523  17.479  0.00  0.00    +0.000 C 
ATOM     12  C   UNL     1       4.231   5.078  16.980  0.00  0.00    +0.000 C 
ATOM     13  O   UNL     1       4.491   4.131  18.027  0.00  0.00    +0.000 OA
ATOM     14  C   UNL     1       3.538   4.201  19.115  0.00  0.00    +0.000 C 
ATOM     15  C   UNL     1       3.546   5.620  19.692  0.00  0.00    +0.000 C 
ATOM     16  H   UNL     1       2.685   8.569  17.253  0.00  0.00    +0.000 HD
BRANCH  14  17
ATOM     17  C   UNL     1       2.165   3.687  18.669  0.00  0.00    +0.000 C 
BRANCH  17  18
ATOM     18  C   UNL     1       1.255   3.261  19.799  0.00  0.00    +0.000 C 
ATOM     19  F   UNL     1       1.886   2.563  20.761  0.00  0.00    +0.000 F 
ATOM     20  F   UNL     1       0.663   4.333  20.370  0.00  0.00    +0.000 F 
ATOM     21  F   UNL     1       0.264   2.470  19.323  0.00  0.00    +0.000 F 
ENDBRANCH  17  18
ENDBRANCH  14  17
ENDBRANCH   5   7
BRANCH   1  23
ATOM     22  C   UNL     1      -2.764   9.915  16.786  0.00  0.00    +0.000 C 
ATOM     23  C   UNL     1      -2.361  10.496  18.151  0.00  0.00    +0.000 C 
BRANCH  23  24
ATOM     24  S   UNL     1      -3.240  12.084  18.458  0.00  0.00    +0.000 S 
BRANCH  24  25
ATOM     25  C   UNL     1      -4.870  11.588  18.722  0.00  0.00    +0.000 A 
ATOM     26  N   UNL     1      -5.638  10.885  17.923  0.00  0.00    +0.000 NA
ATOM     27  N   UNL     1      -6.880  10.788  18.521  0.00  0.00    +0.000 NA
ATOM     28  C   UNL     1      -6.819  11.421  19.671  0.00  0.00    +0.000 A 
ATOM     29  N   UNL     1      -5.562  11.915  19.851  0.00  0.00    +0.000 N 
ATOM     30  C   UNL     1      -5.086  12.634  21.005  0.00  0.00    +0.000 C 
ENDBRANCH  24  25
ENDBRANCH  23  24
ENDBRANCH   1  23
TORSDOF 6
ENDMDL
MODEL 7
REMARK VINA RESULT:      -7.8      2.511      3.453
REMARK  Name = 
REMARK  8 active torsions:
REMARK  status: ('A' for Active; 'I' for Inactive)
REMARK    1  A    between atoms: C_1  and  C_2
REMARK    2  A    between atoms: C_2  and  S_3
REMARK    3  A    between atoms: C_2  and  C_10
REMARK    4  A    between atoms: S_3  and  C_4
REMARK    5  A    between atoms: N_8  and  C_9
REMARK    6  A    between atoms: C_14  and  N_15
REMARK    7  A    between atoms: C_22  and  C_23
REMARK    8  A    between atoms: C_23  and  C_24
REMARK                            x       y       z     vdW  Elec       q    Type
REMARK                         _______ _______ _______ _____ _____    ______ ____
ROOT
ATOM      1  C   UNL     1      -0.282  10.994  18.573  0.00  0.00    +0.000 A 
ATOM      2  C   UNL     1       0.387  12.225  18.545  0.00  0.00    +0.000 A 
ATOM      3  C   UNL     1       1.756  12.290  18.290  0.00  0.00    +0.000 A 
ATOM      4  C   UNL     1       2.489  11.123  18.095  0.00  0.00    +0.000 A 
ATOM      5  C   UNL     1       1.864   9.879  18.141  0.00  0.00    +0.000 A 
ATOM      6  C   UNL     1       0.480   9.824  18.353  0.00  0.00    +0.000 A 
ENDROOT
BRANCH   5   7
ATOM      7  N   UNL     1       2.545   8.648  18.005  0.00  0.00    +0.000 N 
ATOM      8  C   UNL     1       2.527   7.594  18.885  0.00  0.00    +0.000 C 
ATOM      9  O   UNL     1       1.870   7.572  19.923  0.00  0.00    +0.000 OA
ATOM     10  N   UNL     1       3.310   6.503  18.535  0.00  0.00    +0.000 N 
ATOM     11  C   UNL     1       4.178   6.346  17.364  0.00  0.00    +0.000 C 
ATOM     12  C   UNL     1       4.207   4.893  16.861  0.00  0.00    +0.000 C 
ATOM     13  O   UNL     1       4.357   3.922  17.907  0.00  0.00    +0.000 OA
ATOM     14  C   UNL     1       3.401   4.084  18.983  0.00  0.00    +0.000 C 
ATOM     15  C   UNL     1       3.543   5.493  19.565  0.00  0.00    +0.000 C 
ATOM     16  H   UNL     1       3.013   8.520  17.129  0.00  0.00    +0.000 HD
BRANCH  14  17
ATOM     17  C   UNL     1       1.990   3.711  18.516  0.00  0.00    +0.000 C 
BRANCH  17  18
ATOM     18  C   UNL     1       1.101   3.137  19.597  0.00  0.00    +0.000 C 
ATOM     19  F   UNL     1       1.759   2.356  20.473  0.00  0.00    +0.000 F 
ATOM     20  F   UNL     1       0.484   4.123  20.284  0.00  0.00    +0.000 F 
ATOM     21  F   UNL     1       0.128   2.375  19.041  0.00  0.00    +0.000 F 
ENDBRANCH  17  18
ENDBRANCH  14  17
ENDBRANCH   5   7
BRANCH   1  23
ATOM     22  C   UNL     1      -2.621  10.518  17.634  0.00  0.00    +0.000 C 
ATOM     23  C   UNL     1      -1.779  10.865  18.871  0.00  0.00    +0.000 C 
BRANCH  23  24
ATOM     24  S   UNL     1      -2.362  12.439  19.625  0.00  0.00    +0.000 S 
BRANCH  24  25
ATOM     25  C   UNL     1      -2.084  12.199  21.309  0.00  0.00    +0.000 A 
ATOM     26  N   UNL     1      -0.971  11.827  21.896  0.00  0.00    +0.000 NA
ATOM     27  N   UNL     1      -1.237  11.703  23.248  0.00  0.00    +0.000 NA
ATOM     28  C   UNL     1      -2.498  12.022  23.436  0.00  0.00    +0.000 A 
ATOM     29  N   UNL     1      -3.061  12.370  22.245  0.00  0.00    +0.000 N 
ATOM     30  C   UNL     1      -4.415  12.818  22.041  0.00  0.00    +0.000 C 
ENDBRANCH  24  25
ENDBRANCH  23  24
ENDBRANCH   1  23
TORSDOF 6
ENDMDL
MODEL 8
REMARK VINA RESULT:      -7.8      4.336      8.590
REMARK  Name = 
REMARK  8 active torsions:
REMARK  status: ('A' for Active; 'I' for Inactive)
REMARK    1  A    between atoms: C_1  and  C_2
REMARK    2  A    between atoms: C_2  and  S_3
REMARK    3  A    between atoms: C_2  and  C_10
REMARK    4  A    between atoms: S_3  and  C_4
REMARK    5  A    between atoms: N_8  and  C_9
REMARK    6  A    between atoms: C_14  and  N_15
REMARK    7  A    between atoms: C_22  and  C_23
REMARK    8  A    between atoms: C_23  and  C_24
REMARK                            x       y       z     vdW  Elec       q    Type
REMARK                         _______ _______ _______ _____ _____    ______ ____
ROOT
ATOM      1  C   UNL     1       3.609   4.761  19.086  0.00  0.00    +0.000 A 
ATOM      2  C   UNL     1       2.897   3.562  19.234  0.00  0.00    +0.000 A 
ATOM      3  C   UNL     1       1.683   3.531  19.920  0.00  0.00    +0.000 A 
ATOM      4  C   UNL     1       1.177   4.689  20.502  0.00  0.00    +0.000 A 
ATOM      5  C   UNL     1       1.869   5.894  20.400  0.00  0.00    +0.000 A 
ATOM      6  C   UNL     1       3.065   5.927  19.670  0.00  0.00    +0.000 A 
ENDROOT
BRANCH   5   7
ATOM      7  N   UNL     1       1.449   7.100  21.004  0.00  0.00    +0.000 N 
ATOM      8  C   UNL     1       1.410   8.343  20.424  0.00  0.00    +0.000 C 
ATOM      9  O   UNL     1       1.716   8.570  19.255  0.00  0.00    +0.000 OA
ATOM     10  N   UNL     1       0.986   9.379  21.245  0.00  0.00    +0.000 N 
ATOM     11  C   UNL     1       0.607   9.320  22.659  0.00  0.00    +0.000 C 
ATOM     12  C   UNL     1      -0.515  10.317  22.996  0.00  0.00    +0.000 C 
ATOM     13  O   UNL     1      -0.313  11.624  22.438  0.00  0.00    +0.000 OA
ATOM     14  C   UNL     1      -0.038  11.607  21.017  0.00  0.00    +0.000 C 
ATOM     15  C   UNL     1       1.200  10.742  20.761  0.00  0.00    +0.000 C 
ATOM     16  H   UNL     1       1.064   6.999  21.923  0.00  0.00    +0.000 HD
BRANCH  14  17
ATOM     17  C   UNL     1      -1.287  11.205  20.226  0.00  0.00    +0.000 C 
BRANCH  17  18
ATOM     18  C   UNL     1      -1.165  11.373  18.728  0.00  0.00    +0.000 C 
ATOM     19  F   UNL     1      -0.317  12.353  18.366  0.00  0.00    +0.000 F 
ATOM     20  F   UNL     1      -0.760  10.222  18.148  0.00  0.00    +0.000 F 
ATOM     21  F   UNL     1      -2.373  11.679  18.196  0.00  0.00    +0.000 F 
ENDBRANCH  17  18
ENDBRANCH  14  17
ENDBRANCH   5   7
BRANCH   1  23
ATOM     22  C   UNL     1       6.133   5.160  19.302  0.00  0.00    +0.000 C 
ATOM     23  C   UNL     1       4.957   4.846  18.364  0.00  0.00    +0.000 C 
BRANCH  23  24
ATOM     24  S   UNL     1       4.832   6.122  17.043  0.00  0.00    +0.000 S 
BRANCH  24  25
ATOM     25  C   UNL     1       6.084   5.677  15.944  0.00  0.00    +0.000 A 
ATOM     26  N   UNL     1       7.316   6.125  15.903  0.00  0.00    +0.000 NA
ATOM     27  N   UNL     1       7.936   5.535  14.818  0.00  0.00    +0.000 NA
ATOM     28  C   UNL     1       7.063   4.734  14.247  0.00  0.00    +0.000 A 
ATOM     29  N   UNL     1       5.892   4.771  14.943  0.00  0.00    +0.000 N 
ATOM     30  C   UNL     1       4.707   4.003  14.657  0.00  0.00    +0.000 C 
ENDBRANCH  24  25
ENDBRANCH  23  24
ENDBRANCH   1  23
TORSDOF 6
ENDMDL
MODEL 9
REMARK VINA RESULT:      -7.8      4.335      8.576
REMARK  Name = 
REMARK  8 active torsions:
REMARK  status: ('A' for Active; 'I' for Inactive)
REMARK    1  A    between atoms: C_1  and  C_2
REMARK    2  A    between atoms: C_2  and  S_3
REMARK    3  A    between atoms: C_2  and  C_10
REMARK    4  A    between atoms: S_3  and  C_4
REMARK    5  A    between atoms: N_8  and  C_9
REMARK    6  A    between atoms: C_14  and  N_15
REMARK    7  A    between atoms: C_22  and  C_23
REMARK    8  A    between atoms: C_23  and  C_24
REMARK                            x       y       z     vdW  Elec       q    Type
REMARK                         _______ _______ _______ _____ _____    ______ ____
ROOT
ATOM      1  C   UNL     1       5.027   4.942  19.079  0.00  0.00    +0.000 A 
ATOM      2  C   UNL     1       4.521   3.696  19.476  0.00  0.00    +0.000 A 
ATOM      3  C   UNL     1       3.247   3.585  20.030  0.00  0.00    +0.000 A 
ATOM      4  C   UNL     1       2.468   4.720  20.233  0.00  0.00    +0.000 A 
ATOM      5  C   UNL     1       2.947   5.979  19.877  0.00  0.00    +0.000 A 
ATOM      6  C   UNL     1       4.210   6.079  19.278  0.00  0.00    +0.000 A 
ENDROOT
BRANCH   5   7
ATOM      7  N   UNL     1       2.241   7.184  20.097  0.00  0.00    +0.000 N 
ATOM      8  C   UNL     1       1.859   8.099  19.148  0.00  0.00    +0.000 C 
ATOM      9  O   UNL     1       2.059   7.970  17.942  0.00  0.00    +0.000 OA
ATOM     10  N   UNL     1       1.201   9.224  19.627  0.00  0.00    +0.000 N 
ATOM     11  C   UNL     1       0.892   9.573  21.017  0.00  0.00    +0.000 C 
ATOM     12  C   UNL     1      -0.442  10.328  21.137  0.00  0.00    +0.000 C 
ATOM     13  O   UNL     1      -0.609  11.366  20.160  0.00  0.00    +0.000 OA
ATOM     14  C   UNL     1      -0.381  10.921  18.802  0.00  0.00    +0.000 C 
ATOM     15  C   UNL     1       1.033  10.342  18.700  0.00  0.00    +0.000 C 
ATOM     16  H   UNL     1       1.924   7.321  21.036  0.00  0.00    +0.000 HD
BRANCH  14  17
ATOM     17  C   UNL     1      -1.503   9.984  18.342  0.00  0.00    +0.000 C 
BRANCH  17  18
ATOM     18  C   UNL     1      -2.619  10.665  17.582  0.00  0.00    +0.000 C 
ATOM     19  F   UNL     1      -3.324   9.828  16.799  0.00  0.00    +0.000 F 
ATOM     20  F   UNL     1      -3.475  11.277  18.430  0.00  0.00    +0.000 F 
ATOM     21  F   UNL     1      -2.111  11.626  16.773  0.00  0.00    +0.000 F 
ENDBRANCH  17  18
ENDBRANCH  14  17
ENDBRANCH   5   7
BRANCH   1  23
ATOM     22  C   UNL     1       7.480   5.543  19.527  0.00  0.00    +0.000 C 
ATOM     23  C   UNL     1       6.427   5.124  18.488  0.00  0.00    +0.000 C 
BRANCH  23  24
ATOM     24  S   UNL     1       6.333   6.366  17.133  0.00  0.00    +0.000 S 
BRANCH  24  25
ATOM     25  C   UNL     1       6.541   5.415  15.710  0.00  0.00    +0.000 A 
ATOM     26  N   UNL     1       7.560   5.414  14.884  0.00  0.00    +0.000 NA
ATOM     27  N   UNL     1       7.259   4.542  13.854  0.00  0.00    +0.000 NA
ATOM     28  C   UNL     1       6.074   4.030  14.100  0.00  0.00    +0.000 A 
ATOM     29  N   UNL     1       5.598   4.530  15.275  0.00  0.00    +0.000 N 
ATOM     30  C   UNL     1       4.351   4.184  15.906  0.00  0.00    +0.000 C 
ENDBRANCH  24  25
ENDBRANCH  23  24
ENDBRANCH   1  23
TORSDOF 6
ENDMDL
