MODEL 1
REMARK VINA RESULT:      -9.0      0.000      0.000
REMARK  Name = 
REMARK  8 active torsions:
REMARK  status: ('A' for Active; 'I' for Inactive)
REMARK    1  A    between atoms: C_1  and  C_2
REMARK    2  A    between atoms: C_2  and  C_3
REMARK    3  A    between atoms: C_2  and  C_10
REMARK    4  A    between atoms: C_3  and  C_4
REMARK    5  A    between atoms: N_8  and  C_9
REMARK    6  A    between atoms: C_14  and  N_15
REMARK    7  A    between atoms: C_16  and  C_18
REMARK    8  A    between atoms: C_20  and  C_21
REMARK                            x       y       z     vdW  Elec       q    Type
REMARK                         _______ _______ _______ _____ _____    ______ ____
ROOT
ATOM      1  N   UNL     1       2.008   8.330  19.506  0.00  0.00    +0.000 N 
ATOM      2  C   UNL     1       2.490   8.417  18.215  0.00  0.00    +0.000 C 
ATOM      3  O   UNL     1       2.247   9.306  17.402  0.00  0.00    +0.000 OA
ATOM      4  H   UNL     1       2.425   7.606  20.085  0.00  0.00    +0.000 HD
ENDROOT
BRANCH   1   9
ATOM      5  C   UNL     1      -0.539  11.024  19.782  0.00  0.00    +0.000 A 
ATOM      6  C   UNL     1      -0.879  10.924  21.141  0.00  0.00    +0.000 A 
ATOM      7  C   UNL     1      -0.252   9.997  21.964  0.00  0.00    +0.000 A 
ATOM      8  C   UNL     1       0.705   9.136  21.435  0.00  0.00    +0.000 A 
ATOM      9  C   UNL     1       1.042   9.183  20.080  0.00  0.00    +0.000 A 
ATOM     10  C   UNL     1       0.420  10.134  19.260  0.00  0.00    +0.000 A 
BRANCH   5  12
ATOM     11  C   UNL     1      -1.042  13.477  19.449  0.00  0.00    +0.000 C 
ATOM     12  C   UNL     1      -1.197  12.060  18.871  0.00  0.00    +0.000 C 
BRANCH  12  13
ATOM     13  C   UNL     1      -2.663  11.657  18.607  0.00  0.00    +0.000 C 
BRANCH  13  14
ATOM     14  C   UNL     1      -2.919  11.110  17.242  0.00  0.00    +0.000 A 
ATOM     15  N   UNL     1      -2.122  10.344  16.523  0.00  0.00    +0.000 NA
ATOM     16  N   UNL     1      -2.755  10.056  15.335  0.00  0.00    +0.000 NA
ATOM     17  C   UNL     1      -3.933  10.632  15.360  0.00  0.00    +0.000 A 
ATOM     18  N   UNL     1      -4.081  11.299  16.535  0.00  0.00    +0.000 N 
ATOM     19  C   UNL     1      -5.249  12.031  16.956  0.00  0.00    +0.000 C 
ENDBRANCH  13  14
ENDBRANCH  12  13
ENDBRANCH   5  12
ENDBRANCH   1   9
BRANCH   2  20
ATOM     20  C   UNL     1       3.442   7.344  17.808  0.00  0.00    +0.000 A 
ATOM     21  C   UNL     1       3.566   6.260  18.663  0.00  0.00    +0.000 A 
ATOM     22  C   UNL     1       4.259   5.145  18.233  0.00  0.00    +0.000 A 
ATOM     23  C   UNL     1       4.964   5.228  17.031  0.00  0.00    +0.000 A 
ATOM     24  C   UNL     1       4.860   6.393  16.278  0.00  0.00    +0.000 A 
ATOM     25  N   UNL     1       4.079   7.447  16.616  0.00  0.00    +0.000 NA
BRANCH  22  26
ATOM     26  C   UNL     1       4.353   3.921  19.073  0.00  0.00    +0.000 C 
ATOM     27  O   UNL     1       5.487   3.578  19.409  0.00  0.00    +0.000 OA
ATOM     28  N   UNL     1       3.213   3.229  19.482  0.00  0.00    +0.000 N 
ATOM     29  C   UNL     1       3.333   2.254  20.569  0.00  0.00    +0.000 C 
ATOM     30  C   UNL     1       2.384   2.635  21.724  0.00  0.00    +0.000 C 
ATOM     31  N   UNL     1       0.979   2.796  21.297  0.00  0.00    +0.000 NA
ATOM     32  C   UNL     1       0.882   3.728  20.157  0.00  0.00    +0.000 C 
ATOM     33  C   UNL     1       1.827   3.341  18.996  0.00  0.00    +0.000 C 
ATOM     34  H   UNL     1       0.434   3.166  22.077  0.00  0.00    +0.000 HD
ENDBRANCH  22  26
ENDBRANCH   2  20
TORSDOF 6
ENDMDL
MODEL 2
REMARK VINA RESULT:      -8.9      3.550      5.263
REMARK  Name = 
REMARK  8 active torsions:
REMARK  status: ('A' for Active; 'I' for Inactive)
REMARK    1  A    between atoms: C_1  and  C_2
REMARK    2  A    between atoms: C_2  and  C_3
REMARK    3  A    between atoms: C_2  and  C_10
REMARK    4  A    between atoms: C_3  and  C_4
REMARK    5  A    between atoms: N_8  and  C_9
REMARK    6  A    between atoms: C_14  and  N_15
REMARK    7  A    between atoms: C_16  and  C_18
REMARK    8  A    between atoms: C_20  and  C_21
REMARK                            x       y       z     vdW  Elec       q    Type
REMARK                         _______ _______ _______ _____ _____    ______ ____
ROOT
ATOM      1  N   UNL     1       1.007   9.670  19.245  0.00  0.00    +0.000 N 
ATOM      2  C   UNL     1       1.768   8.893  18.394  0.00  0.00    +0.000 C 
ATOM      3  O   UNL     1       2.235   9.238  17.311  0.00  0.00    +0.000 OA
ATOM      4  H   UNL     1       0.826   9.272  20.162  0.00  0.00    +0.000 HD
ENDROOT
BRANCH   1   9
ATOM      5  C   UNL     1       0.996  13.341  18.661  0.00  0.00    +0.000 A 
ATOM      6  C   UNL     1      -0.369  13.563  18.410  0.00  0.00    +0.000 A 
ATOM      7  C   UNL     1      -1.280  12.515  18.463  0.00  0.00    +0.000 A 
ATOM      8  C   UNL     1      -0.837  11.225  18.740  0.00  0.00    +0.000 A 
ATOM      9  C   UNL     1       0.519  10.962  18.959  0.00  0.00    +0.000 A 
ATOM     10  C   UNL     1       1.428  12.027  18.923  0.00  0.00    +0.000 A 
BRANCH   5  12
ATOM     11  C   UNL     1       3.327  14.070  19.303  0.00  0.00    +0.000 C 
ATOM     12  C   UNL     1       2.005  14.489  18.636  0.00  0.00    +0.000 C 
BRANCH  12  13
ATOM     13  C   UNL     1       1.370  15.748  19.261  0.00  0.00    +0.000 C 
BRANCH  13  14
ATOM     14  C   UNL     1       1.260  16.912  18.333  0.00  0.00    +0.000 A 
ATOM     15  N   UNL     1       2.218  17.444  17.598  0.00  0.00    +0.000 NA
ATOM     16  N   UNL     1       1.680  18.487  16.878  0.00  0.00    +0.000 NA
ATOM     17  C   UNL     1       0.404  18.559  17.169  0.00  0.00    +0.000 A 
ATOM     18  N   UNL     1       0.096  17.590  18.072  0.00  0.00    +0.000 N 
ATOM     19  C   UNL     1      -1.211  17.321  18.616  0.00  0.00    +0.000 C 
ENDBRANCH  13  14
ENDBRANCH  12  13
ENDBRANCH   5  12
ENDBRANCH   1   9
BRANCH   2  20
ATOM     20  C   UNL     1       2.089   7.523  18.885  0.00  0.00    +0.000 A 
ATOM     21  C   UNL     1       2.642   6.644  17.968  0.00  0.00    +0.000 A 
ATOM     22  C   UNL     1       3.158   5.444  18.419  0.00  0.00    +0.000 A 
ATOM     23  C   UNL     1       2.933   5.086  19.750  0.00  0.00    +0.000 A 
ATOM     24  C   UNL     1       2.282   5.992  20.581  0.00  0.00    +0.000 A 
ATOM     25  N   UNL     1       1.887   7.228  20.193  0.00  0.00    +0.000 NA
BRANCH  22  26
ATOM     26  C   UNL     1       3.840   4.499  17.495  0.00  0.00    +0.000 C 
ATOM     27  O   UNL     1       3.126   3.646  16.966  0.00  0.00    +0.000 OA
ATOM     28  N   UNL     1       5.204   4.603  17.222  0.00  0.00    +0.000 N 
ATOM     29  C   UNL     1       5.749   3.885  16.068  0.00  0.00    +0.000 C 
ATOM     30  C   UNL     1       6.425   4.879  15.101  0.00  0.00    +0.000 C 
ATOM     31  N   UNL     1       7.456   5.715  15.751  0.00  0.00    +0.000 NA
ATOM     32  C   UNL     1       6.912   6.377  16.951  0.00  0.00    +0.000 C 
ATOM     33  C   UNL     1       6.241   5.380  17.924  0.00  0.00    +0.000 C 
ATOM     34  H   UNL     1       7.771   6.427  15.091  0.00  0.00    +0.000 HD
ENDBRANCH  22  26
ENDBRANCH   2  20
TORSDOF 6
ENDMDL
MODEL 3
REMARK VINA RESULT:      -8.9      6.799      9.293
REMARK  Name = 
REMARK  8 active torsions:
REMARK  status: ('A' for Active; 'I' for Inactive)
REMARK    1  A    between atoms: C_1  and  C_2
REMARK    2  A    between atoms: C_2  and  C_3
REMARK    3  A    between atoms: C_2  and  C_10
REMARK    4  A    between atoms: C_3  and  C_4
REMARK    5  A    between atoms: N_8  and  C_9
REMARK    6  A    between atoms: C_14  and  N_15
REMARK    7  A    between atoms: C_16  and  C_18
REMARK    8  A    between atoms: C_20  and  C_21
REMARK                            x       y       z     vdW  Elec       q    Type
REMARK                         _______ _______ _______ _____ _____    ______ ____
ROOT
ATOM      1  N   UNL     1       7.786   8.883  17.858  0.00  0.00    +0.000 N 
ATOM      2  C   UNL     1       7.849   7.541  18.173  0.00  0.00    +0.000 C 
ATOM      3  O   UNL     1       8.575   7.020  19.016  0.00  0.00    +0.000 OA
ATOM      4  H   UNL     1       7.028   9.156  17.239  0.00  0.00    +0.000 HD
ENDROOT
BRANCH   1   9
ATOM      5  C   UNL     1       9.724  12.052  18.027  0.00  0.00    +0.000 A 
ATOM      6  C   UNL     1      10.339  11.916  19.282  0.00  0.00    +0.000 A 
ATOM      7  C   UNL     1      10.139  10.776  20.052  0.00  0.00    +0.000 A 
ATOM      8  C   UNL     1       9.299   9.767  19.590  0.00  0.00    +0.000 A 
ATOM      9  C   UNL     1       8.642   9.884  18.362  0.00  0.00    +0.000 A 
ATOM     10  C   UNL     1       8.864  11.028  17.583  0.00  0.00    +0.000 A 
BRANCH   5  12
ATOM     11  C   UNL     1      11.429  13.375  16.717  0.00  0.00    +0.000 C 
ATOM     12  C   UNL     1       9.958  13.285  17.155  0.00  0.00    +0.000 C 
BRANCH  12  13
ATOM     13  C   UNL     1       9.455  14.542  17.895  0.00  0.00    +0.000 C 
BRANCH  13  14
ATOM     14  C   UNL     1      10.394  15.702  17.854  0.00  0.00    +0.000 A 
ATOM     15  N   UNL     1      10.509  16.607  16.901  0.00  0.00    +0.000 NA
ATOM     16  N   UNL     1      11.482  17.505  17.273  0.00  0.00    +0.000 NA
ATOM     17  C   UNL     1      11.928  17.147  18.453  0.00  0.00    +0.000 A 
ATOM     18  N   UNL     1      11.273  16.026  18.857  0.00  0.00    +0.000 N 
ATOM     19  C   UNL     1      11.455  15.341  20.112  0.00  0.00    +0.000 C 
ENDBRANCH  13  14
ENDBRANCH  12  13
ENDBRANCH   5  12
ENDBRANCH   1   9
BRANCH   2  20
ATOM     20  C   UNL     1       6.892   6.661  17.443  0.00  0.00    +0.000 A 
ATOM     21  C   UNL     1       5.695   6.374  18.080  0.00  0.00    +0.000 A 
ATOM     22  C   UNL     1       4.690   5.752  17.365  0.00  0.00    +0.000 A 
ATOM     23  C   UNL     1       4.986   5.272  16.088  0.00  0.00    +0.000 A 
ATOM     24  C   UNL     1       6.248   5.522  15.560  0.00  0.00    +0.000 A 
ATOM     25  N   UNL     1       7.204   6.245  16.190  0.00  0.00    +0.000 NA
BRANCH  22  26
ATOM     26  C   UNL     1       3.355   5.495  17.970  0.00  0.00    +0.000 C 
ATOM     27  O   UNL     1       2.509   6.375  17.813  0.00  0.00    +0.000 OA
ATOM     28  N   UNL     1       3.078   4.305  18.642  0.00  0.00    +0.000 N 
ATOM     29  C   UNL     1       1.681   3.957  18.913  0.00  0.00    +0.000 C 
ATOM     30  C   UNL     1       1.345   2.592  18.278  0.00  0.00    +0.000 C 
ATOM     31  N   UNL     1       2.261   1.511  18.700  0.00  0.00    +0.000 NA
ATOM     32  C   UNL     1       3.667   1.903  18.485  0.00  0.00    +0.000 C 
ATOM     33  C   UNL     1       4.005   3.267  19.129  0.00  0.00    +0.000 C 
ATOM     34  H   UNL     1       2.061   0.673  18.152  0.00  0.00    +0.000 HD
ENDBRANCH  22  26
ENDBRANCH   2  20
TORSDOF 6
ENDMDL
MODEL 4
REMARK VINA RESULT:      -8.9      2.736      3.961
REMARK  Name = 
REMARK  8 active torsions:
REMARK  status: ('A' for Active; 'I' for Inactive)
REMARK    1  A    between atoms: C_1  and  C_2
REMARK    2  A    between atoms: C_2  and  C_3
REMARK    3  A    between atoms: C_2  and  C_10
REMARK    4  A    between atoms: C_3  and  C_4
REMARK    5  A    between atoms: N_8  and  C_9
REMARK    6  A    between atoms: C_14  and  N_15
REMARK    7  A    between atoms: C_16  and  C_18
REMARK    8  A    between atoms: C_20  and  C_21
REMARK                            x       y       z     vdW  Elec       q    Type
REMARK                         _______ _______ _______ _____ _____    ______ ____
ROOT
ATOM      1  N   UNL     1       1.959   8.228  18.852  0.00  0.00    +0.000 N 
ATOM      2  C   UNL     1       2.826   8.376  17.788  0.00  0.00    +0.000 C 
ATOM      3  O   UNL     1       2.956   9.376  17.085  0.00  0.00    +0.000 OA
ATOM      4  H   UNL     1       2.086   7.388  19.410  0.00  0.00    +0.000 HD
ENDROOT
BRANCH   1   9
ATOM      5  C   UNL     1      -0.143  10.365  21.051  0.00  0.00    +0.000 A 
ATOM      6  C   UNL     1      -0.971  10.984  20.100  0.00  0.00    +0.000 A 
ATOM      7  C   UNL     1      -0.857  10.675  18.750  0.00  0.00    +0.000 A 
ATOM      8  C   UNL     1       0.106   9.764  18.327  0.00  0.00    +0.000 A 
ATOM      9  C   UNL     1       0.972   9.157  19.241  0.00  0.00    +0.000 A 
ATOM     10  C   UNL     1       0.838   9.458  20.603  0.00  0.00    +0.000 A 
BRANCH   5  12
ATOM     11  C   UNL     1      -0.134   9.388  23.380  0.00  0.00    +0.000 C 
ATOM     12  C   UNL     1      -0.277  10.670  22.543  0.00  0.00    +0.000 C 
BRANCH  12  13
ATOM     13  C   UNL     1      -1.596  11.430  22.797  0.00  0.00    +0.000 C 
BRANCH  13  14
ATOM     14  C   UNL     1      -1.420  12.849  23.225  0.00  0.00    +0.000 A 
ATOM     15  N   UNL     1      -0.320  13.574  23.165  0.00  0.00    +0.000 NA
ATOM     16  N   UNL     1      -0.604  14.832  23.647  0.00  0.00    +0.000 NA
ATOM     17  C   UNL     1      -1.875  14.858  23.972  0.00  0.00    +0.000 A 
ATOM     18  N   UNL     1      -2.425  13.641  23.721  0.00  0.00    +0.000 N 
ATOM     19  C   UNL     1      -3.807  13.278  23.914  0.00  0.00    +0.000 C 
ENDBRANCH  13  14
ENDBRANCH  12  13
ENDBRANCH   5  12
ENDBRANCH   1   9
BRANCH   2  20
ATOM     20  C   UNL     1       3.722   7.216  17.519  0.00  0.00    +0.000 A 
ATOM     21  C   UNL     1       3.780   6.231  18.492  0.00  0.00    +0.000 A 
ATOM     22  C   UNL     1       4.416   5.039  18.200  0.00  0.00    +0.000 A 
ATOM     23  C   UNL     1       5.135   4.948  17.007  0.00  0.00    +0.000 A 
ATOM     24  C   UNL     1       5.101   6.024  16.127  0.00  0.00    +0.000 A 
ATOM     25  N   UNL     1       4.375   7.149  16.332  0.00  0.00    +0.000 NA
BRANCH  22  26
ATOM     26  C   UNL     1       4.436   3.915  19.174  0.00  0.00    +0.000 C 
ATOM     27  O   UNL     1       5.531   3.644  19.669  0.00  0.00    +0.000 OA
ATOM     28  N   UNL     1       3.270   3.236  19.527  0.00  0.00    +0.000 N 
ATOM     29  C   UNL     1       3.282   2.386  20.719  0.00  0.00    +0.000 C 
ATOM     30  C   UNL     1       2.202   2.858  21.714  0.00  0.00    +0.000 C 
ATOM     31  N   UNL     1       0.851   2.930  21.118  0.00  0.00    +0.000 NA
ATOM     32  C   UNL     1       0.868   3.732  19.880  0.00  0.00    +0.000 C 
ATOM     33  C   UNL     1       1.946   3.253  18.879  0.00  0.00    +0.000 C 
ATOM     34  H   UNL     1       0.215   3.363  21.787  0.00  0.00    +0.000 HD
ENDBRANCH  22  26
ENDBRANCH   2  20
TORSDOF 6
ENDMDL
MODEL 5
REMARK VINA RESULT:      -8.8      2.866      4.806
REMARK  Name = 
REMARK  8 active torsions:
REMARK  status: ('A' for Active; 'I' for Inactive)
REMARK    1  A    between atoms: C_1  and  C_2
REMARK    2  A    between atoms: C_2  and  C_3
REMARK    3  A    between atoms: C_2  and  C_10
REMARK    4  A    between atoms: C_3  and  C_4
REMARK    5  A    between atoms: N_8  and  C_9
REMARK    6  A    between atoms: C_14  and  N_15
REMARK    7  A    between atoms: C_16  and  C_18
REMARK    8  A    between atoms: C_20  and  C_21
REMARK                            x       y       z     vdW  Elec       q    Type
REMARK                         _______ _______ _______ _____ _____    ______ ____
ROOT
ATOM      1  N   UNL     1       1.207   9.075  19.548  0.00  0.00    +0.000 N 
ATOM      2  C   UNL     1       1.856   8.360  18.561  0.00  0.00    +0.000 C 
ATOM      3  O   UNL     1       2.145   8.763  17.437  0.00  0.00    +0.000 OA
ATOM      4  H   UNL     1       1.179   8.635  20.465  0.00  0.00    +0.000 HD
ENDROOT
BRANCH   1   9
ATOM      5  C   UNL     1      -1.365  11.754  19.394  0.00  0.00    +0.000 A 
ATOM      6  C   UNL     1      -0.565  12.869  19.096  0.00  0.00    +0.000 A 
ATOM      7  C   UNL     1       0.807  12.732  18.918  0.00  0.00    +0.000 A 
ATOM      8  C   UNL     1       1.403  11.482  19.063  0.00  0.00    +0.000 A 
ATOM      9  C   UNL     1       0.642  10.358  19.395  0.00  0.00    +0.000 A 
ATOM     10  C   UNL     1      -0.743  10.500  19.553  0.00  0.00    +0.000 A 
BRANCH   5  12
ATOM     11  C   UNL     1      -3.585  11.878  18.195  0.00  0.00    +0.000 C 
ATOM     12  C   UNL     1      -2.879  11.883  19.562  0.00  0.00    +0.000 C 
BRANCH  12  13
ATOM     13  C   UNL     1      -3.199  13.127  20.417  0.00  0.00    +0.000 C 
BRANCH  13  14
ATOM     14  C   UNL     1      -3.644  12.823  21.809  0.00  0.00    +0.000 A 
ATOM     15  N   UNL     1      -4.863  12.523  22.213  0.00  0.00    +0.000 NA
ATOM     16  N   UNL     1      -4.826  12.301  23.570  0.00  0.00    +0.000 NA
ATOM     17  C   UNL     1      -3.585  12.448  23.967  0.00  0.00    +0.000 A 
ATOM     18  N   UNL     1      -2.810  12.771  22.897  0.00  0.00    +0.000 N 
ATOM     19  C   UNL     1      -1.384  12.983  22.914  0.00  0.00    +0.000 C 
ENDBRANCH  13  14
ENDBRANCH  12  13
ENDBRANCH   5  12
ENDBRANCH   1   9
BRANCH   2  20
ATOM     20  C   UNL     1       2.290   6.985  18.939  0.00  0.00    +0.000 A 
ATOM     21  C   UNL     1       2.815   6.195  17.929  0.00  0.00    +0.000 A 
ATOM     22  C   UNL     1       3.430   5.004  18.263  0.00  0.00    +0.000 A 
ATOM     23  C   UNL     1       3.333   4.556  19.582  0.00  0.00    +0.000 A 
ATOM     24  C   UNL     1       2.703   5.372  20.516  0.00  0.00    +0.000 A 
ATOM     25  N   UNL     1       2.211   6.603  20.238  0.00  0.00    +0.000 NA
BRANCH  22  26
ATOM     26  C   UNL     1       4.086   4.156  17.232  0.00  0.00    +0.000 C 
ATOM     27  O   UNL     1       3.366   3.332  16.667  0.00  0.00    +0.000 OA
ATOM     28  N   UNL     1       5.432   4.317  16.904  0.00  0.00    +0.000 N 
ATOM     29  C   UNL     1       5.935   3.711  15.670  0.00  0.00    +0.000 C 
ATOM     30  C   UNL     1       6.542   4.798  14.759  0.00  0.00    +0.000 C 
ATOM     31  N   UNL     1       7.585   5.604  15.427  0.00  0.00    +0.000 NA
ATOM     32  C   UNL     1       7.086   6.151  16.703  0.00  0.00    +0.000 C 
ATOM     33  C   UNL     1       6.486   5.060  17.620  0.00  0.00    +0.000 C 
ATOM     34  H   UNL     1       7.852   6.376  14.815  0.00  0.00    +0.000 HD
ENDBRANCH  22  26
ENDBRANCH   2  20
TORSDOF 6
ENDMDL
MODEL 6
REMARK VINA RESULT:      -8.8      1.795      3.590
REMARK  Name = 
REMARK  8 active torsions:
REMARK  status: ('A' for Active; 'I' for Inactive)
REMARK    1  A    between atoms: C_1  and  C_2
REMARK    2  A    between atoms: C_2  and  C_3
REMARK    3  A    between atoms: C_2  and  C_10
REMARK    4  A    between atoms: C_3  and  C_4
REMARK    5  A    between atoms: N_8  and  C_9
REMARK    6  A    between atoms: C_14  and  N_15
REMARK    7  A    between atoms: C_16  and  C_18
REMARK    8  A    between atoms: C_20  and  C_21
REMARK                            x       y       z     vdW  Elec       q    Type
REMARK                         _______ _______ _______ _____ _____    ______ ____
ROOT
ATOM      1  N   UNL     1       1.080   7.482  21.245  0.00  0.00    +0.000 N 
ATOM      2  C   UNL     1       1.861   7.159  20.153  0.00  0.00    +0.000 C 
ATOM      3  O   UNL     1       2.235   7.926  19.269  0.00  0.00    +0.000 OA
ATOM      4  H   UNL     1       0.987   6.755  21.950  0.00  0.00    +0.000 HD
ENDROOT
BRANCH   1   9
ATOM      5  C   UNL     1      -0.434  10.802  20.534  0.00  0.00    +0.000 A 
ATOM      6  C   UNL     1      -0.753  11.227  21.834  0.00  0.00    +0.000 A 
ATOM      7  C   UNL     1      -0.444  10.439  22.936  0.00  0.00    +0.000 A 
ATOM      8  C   UNL     1       0.164   9.201  22.753  0.00  0.00    +0.000 A 
ATOM      9  C   UNL     1       0.463   8.729  21.472  0.00  0.00    +0.000 A 
ATOM     10  C   UNL     1       0.166   9.538  20.367  0.00  0.00    +0.000 A 
BRANCH   5  12
ATOM     11  C   UNL     1       0.309  12.786  19.159  0.00  0.00    +0.000 C 
ATOM     12  C   UNL     1      -0.739  11.671  19.314  0.00  0.00    +0.000 C 
BRANCH  12  13
ATOM     13  C   UNL     1      -2.188  12.193  19.403  0.00  0.00    +0.000 C 
BRANCH  13  14
ATOM     14  C   UNL     1      -3.064  11.786  18.266  0.00  0.00    +0.000 A 
ATOM     15  N   UNL     1      -2.687  11.337  17.084  0.00  0.00    +0.000 NA
ATOM     16  N   UNL     1      -3.815  11.065  16.345  0.00  0.00    +0.000 NA
ATOM     17  C   UNL     1      -4.859  11.331  17.094  0.00  0.00    +0.000 A 
ATOM     18  N   UNL     1      -4.436  11.781  18.305  0.00  0.00    +0.000 N 
ATOM     19  C   UNL     1      -5.278  12.148  19.416  0.00  0.00    +0.000 C 
ENDBRANCH  13  14
ENDBRANCH  12  13
ENDBRANCH   5  12
ENDBRANCH   1   9
BRANCH   2  20
ATOM     20  C   UNL     1       2.330   5.745  20.090  0.00  0.00    +0.000 A 
ATOM     21  C   UNL     1       3.039   5.371  18.960  0.00  0.00    +0.000 A 
ATOM     22  C   UNL     1       3.682   4.148  18.948  0.00  0.00    +0.000 A 
ATOM     23  C   UNL     1       3.436   3.262  19.998  0.00  0.00    +0.000 A 
ATOM     24  C   UNL     1       2.632   3.685  21.051  0.00  0.00    +0.000 A 
ATOM     25  N   UNL     1       2.100   4.928  21.147  0.00  0.00    +0.000 NA
BRANCH  22  26
ATOM     26  C   UNL     1       4.527   3.729  17.798  0.00  0.00    +0.000 C 
ATOM     27  O   UNL     1       4.051   2.868  17.059  0.00  0.00    +0.000 OA
ATOM     28  N   UNL     1       5.772   4.313  17.558  0.00  0.00    +0.000 N 
ATOM     29  C   UNL     1       6.400   4.120  16.249  0.00  0.00    +0.000 C 
ATOM     30  C   UNL     1       6.669   5.487  15.588  0.00  0.00    +0.000 C 
ATOM     31  N   UNL     1       7.462   6.401  16.437  0.00  0.00    +0.000 NA
ATOM     32  C   UNL     1       6.855   6.530  17.775  0.00  0.00    +0.000 C 
ATOM     33  C   UNL     1       6.593   5.160  18.441  0.00  0.00    +0.000 C 
ATOM     34  H   UNL     1       7.496   7.320  15.996  0.00  0.00    +0.000 HD
ENDBRANCH  22  26
ENDBRANCH   2  20
TORSDOF 6
ENDMDL
MODEL 7
REMARK VINA RESULT:      -8.6      1.911      3.674
REMARK  Name = 
REMARK  8 active torsions:
REMARK  status: ('A' for Active; 'I' for Inactive)
REMARK    1  A    between atoms: C_1  and  C_2
REMARK    2  A    between atoms: C_2  and  C_3
REMARK    3  A    between atoms: C_2  and  C_10
REMARK    4  A    between atoms: C_3  and  C_4
REMARK    5  A    between atoms: N_8  and  C_9
REMARK    6  A    between atoms: C_14  and  N_15
REMARK    7  A    between atoms: C_16  and  C_18
REMARK    8  A    between atoms: C_20  and  C_21
REMARK                            x       y       z     vdW  Elec       q    Type
REMARK                         _______ _______ _______ _____ _____    ______ ____
ROOT
ATOM      1  N   UNL     1       1.597   8.441  18.854  0.00  0.00    +0.000 N 
ATOM      2  C   UNL     1       1.749   7.794  20.064  0.00  0.00    +0.000 C 
ATOM      3  O   UNL     1       1.591   8.284  21.180  0.00  0.00    +0.000 OA
ATOM      4  H   UNL     1       1.626   7.847  18.029  0.00  0.00    +0.000 HD
ENDROOT
BRANCH   1   9
ATOM      5  C   UNL     1      -0.251  11.661  18.668  0.00  0.00    +0.000 A 
ATOM      6  C   UNL     1       0.795  12.546  18.358  0.00  0.00    +0.000 A 
ATOM      7  C   UNL     1       2.092  12.079  18.183  0.00  0.00    +0.000 A 
ATOM      8  C   UNL     1       2.368  10.724  18.342  0.00  0.00    +0.000 A 
ATOM      9  C   UNL     1       1.358   9.821  18.686  0.00  0.00    +0.000 A 
ATOM     10  C   UNL     1       0.050  10.296  18.841  0.00  0.00    +0.000 A 
BRANCH   5  12
ATOM     11  C   UNL     1      -1.890  12.802  20.214  0.00  0.00    +0.000 C 
ATOM     12  C   UNL     1      -1.688  12.155  18.833  0.00  0.00    +0.000 C 
BRANCH  12  13
ATOM     13  C   UNL     1      -2.668  10.998  18.544  0.00  0.00    +0.000 C 
BRANCH  13  14
ATOM     14  C   UNL     1      -2.950  10.774  17.095  0.00  0.00    +0.000 A 
ATOM     15  N   UNL     1      -2.222  10.090  16.234  0.00  0.00    +0.000 NA
ATOM     16  N   UNL     1      -2.856  10.122  15.012  0.00  0.00    +0.000 NA
ATOM     17  C   UNL     1      -3.967  10.804  15.155  0.00  0.00    +0.000 A 
ATOM     18  N   UNL     1      -4.069  11.227  16.443  0.00  0.00    +0.000 N 
ATOM     19  C   UNL     1      -5.162  11.979  17.006  0.00  0.00    +0.000 C 
ENDBRANCH  13  14
ENDBRANCH  12  13
ENDBRANCH   5  12
ENDBRANCH   1   9
BRANCH   2  20
ATOM     20  C   UNL     1       2.084   6.344  19.983  0.00  0.00    +0.000 A 
ATOM     21  C   UNL     1       2.613   5.890  18.785  0.00  0.00    +0.000 A 
ATOM     22  C   UNL     1       3.143   4.615  18.729  0.00  0.00    +0.000 A 
ATOM     23  C   UNL     1       2.955   3.772  19.825  0.00  0.00    +0.000 A 
ATOM     24  C   UNL     1       2.327   4.282  20.956  0.00  0.00    +0.000 A 
ATOM     25  N   UNL     1       1.919   5.568  21.083  0.00  0.00    +0.000 NA
BRANCH  22  26
ATOM     26  C   UNL     1       3.799   4.104  17.496  0.00  0.00    +0.000 C 
ATOM     27  O   UNL     1       3.075   3.496  16.706  0.00  0.00    +0.000 OA
ATOM     28  N   UNL     1       5.150   4.337  17.240  0.00  0.00    +0.000 N 
ATOM     29  C   UNL     1       5.659   4.120  15.884  0.00  0.00    +0.000 C 
ATOM     30  C   UNL     1       6.287   5.421  15.342  0.00  0.00    +0.000 C 
ATOM     31  N   UNL     1       7.333   5.976  16.227  0.00  0.00    +0.000 NA
ATOM     32  C   UNL     1       6.827   6.125  17.605  0.00  0.00    +0.000 C 
ATOM     33  C   UNL     1       6.205   4.818  18.151  0.00  0.00    +0.000 C 
ATOM     34  H   UNL     1       7.614   6.892  15.875  0.00  0.00    +0.000 HD
ENDBRANCH  22  26
ENDBRANCH   2  20
TORSDOF 6
ENDMDL
MODEL 8
REMARK VINA RESULT:      -8.6      1.696      3.488
REMARK  Name = 
REMARK  8 active torsions:
REMARK  status: ('A' for Active; 'I' for Inactive)
REMARK    1  A    between atoms: C_1  and  C_2
REMARK    2  A    between atoms: C_2  and  C_3
REMARK    3  A    between atoms: C_2  and  C_10
REMARK    4  A    between atoms: C_3  and  C_4
REMARK    5  A    between atoms: N_8  and  C_9
REMARK    6  A    between atoms: C_14  and  N_15
REMARK    7  A    between atoms: C_16  and  C_18
REMARK    8  A    between atoms: C_20  and  C_21
REMARK                            x       y       z     vdW  Elec       q    Type
REMARK                         _______ _______ _______ _____ _____    ______ ____
ROOT
ATOM      1  N   UNL     1       1.061   7.622  21.012  0.00  0.00    +0.000 N 
ATOM      2  C   UNL     1       1.896   7.267  19.972  0.00  0.00    +0.000 C 
ATOM      3  O   UNL     1       2.334   8.013  19.098  0.00  0.00    +0.000 OA
ATOM      4  H   UNL     1       0.914   6.910  21.722  0.00  0.00    +0.000 HD
ENDROOT
BRANCH   1   9
ATOM      5  C   UNL     1      -0.857  10.704  20.209  0.00  0.00    +0.000 A 
ATOM      6  C   UNL     1      -0.774  11.390  21.432  0.00  0.00    +0.000 A 
ATOM      7  C   UNL     1      -0.065  10.854  22.501  0.00  0.00    +0.000 A 
ATOM      8  C   UNL     1       0.546   9.610  22.372  0.00  0.00    +0.000 A 
ATOM      9  C   UNL     1       0.453   8.883  21.182  0.00  0.00    +0.000 A 
ATOM     10  C   UNL     1      -0.246   9.439  20.103  0.00  0.00    +0.000 A 
BRANCH   5  12
ATOM     11  C   UNL     1      -2.265  12.633  19.388  0.00  0.00    +0.000 C 
ATOM     12  C   UNL     1      -1.606  11.294  19.015  0.00  0.00    +0.000 C 
BRANCH  12  13
ATOM     13  C   UNL     1      -2.599  10.251  18.461  0.00  0.00    +0.000 C 
BRANCH  13  14
ATOM     14  C   UNL     1      -2.859  10.360  16.995  0.00  0.00    +0.000 A 
ATOM     15  N   UNL     1      -2.168   9.808  16.016  0.00  0.00    +0.000 NA
ATOM     16  N   UNL     1      -2.762  10.151  14.823  0.00  0.00    +0.000 NA
ATOM     17  C   UNL     1      -3.814  10.886  15.095  0.00  0.00    +0.000 A 
ATOM     18  N   UNL     1      -3.915  11.039  16.442  0.00  0.00    +0.000 N 
ATOM     19  C   UNL     1      -4.955  11.753  17.141  0.00  0.00    +0.000 C 
ENDBRANCH  13  14
ENDBRANCH  12  13
ENDBRANCH   5  12
ENDBRANCH   1   9
BRANCH   2  20
ATOM     20  C   UNL     1       2.344   5.845  19.959  0.00  0.00    +0.000 A 
ATOM     21  C   UNL     1       3.095   5.435  18.869  0.00  0.00    +0.000 A 
ATOM     22  C   UNL     1       3.716   4.202  18.912  0.00  0.00    +0.000 A 
ATOM     23  C   UNL     1       3.410   3.343  19.969  0.00  0.00    +0.000 A 
ATOM     24  C   UNL     1       2.568   3.802  20.976  0.00  0.00    +0.000 A 
ATOM     25  N   UNL     1       2.055   5.054  21.023  0.00  0.00    +0.000 NA
BRANCH  22  26
ATOM     26  C   UNL     1       4.603   3.744  17.809  0.00  0.00    +0.000 C 
ATOM     27  O   UNL     1       4.168   2.833  17.104  0.00  0.00    +0.000 OA
ATOM     28  N   UNL     1       5.840   4.345  17.571  0.00  0.00    +0.000 N 
ATOM     29  C   UNL     1       6.509   4.099  16.292  0.00  0.00    +0.000 C 
ATOM     30  C   UNL     1       6.764   5.436  15.567  0.00  0.00    +0.000 C 
ATOM     31  N   UNL     1       7.512   6.412  16.387  0.00  0.00    +0.000 NA
ATOM     32  C   UNL     1       6.864   6.597  17.699  0.00  0.00    +0.000 C 
ATOM     33  C   UNL     1       6.616   5.257  18.430  0.00  0.00    +0.000 C 
ATOM     34  H   UNL     1       7.537   7.308  15.898  0.00  0.00    +0.000 HD
ENDBRANCH  22  26
ENDBRANCH   2  20
TORSDOF 6
ENDMDL
MODEL 9
REMARK VINA RESULT:      -8.6      3.585      6.057
REMARK  Name = 
REMARK  8 active torsions:
REMARK  status: ('A' for Active; 'I' for Inactive)
REMARK    1  A    between atoms: C_1  and  C_2
REMARK    2  A    between atoms: C_2  and  C_3
REMARK    3  A    between atoms: C_2  and  C_10
REMARK    4  A    between atoms: C_3  and  C_4
REMARK    5  A    between atoms: N_8  and  C_9
REMARK    6  A    between atoms: C_14  and  N_15
REMARK    7  A    between atoms: C_16  and  C_18
REMARK    8  A    between atoms: C_20  and  C_21
REMARK                            x       y       z     vdW  Elec       q    Type
REMARK                         _______ _______ _______ _____ _____    ______ ____
ROOT
ATOM      1  N   UNL     1       0.988   9.605  19.273  0.00  0.00    +0.000 N 
ATOM      2  C   UNL     1       1.771   8.848  18.425  0.00  0.00    +0.000 C 
ATOM      3  O   UNL     1       2.253   9.212  17.355  0.00  0.00    +0.000 OA
ATOM      4  H   UNL     1       0.795   9.192  20.182  0.00  0.00    +0.000 HD
ENDROOT
BRANCH   1   9
ATOM      5  C   UNL     1       0.809  13.316  19.149  0.00  0.00    +0.000 A 
ATOM      6  C   UNL     1      -0.423  13.498  18.499  0.00  0.00    +0.000 A 
ATOM      7  C   UNL     1      -1.200  12.405  18.132  0.00  0.00    +0.000 A 
ATOM      8  C   UNL     1      -0.745  11.115  18.385  0.00  0.00    +0.000 A 
ATOM      9  C   UNL     1       0.492  10.897  18.998  0.00  0.00    +0.000 A 
ATOM     10  C   UNL     1       1.262  12.003  19.382  0.00  0.00    +0.000 A 
BRANCH   5  12
ATOM     11  C   UNL     1       1.467  15.700  18.634  0.00  0.00    +0.000 C 
ATOM     12  C   UNL     1       1.661  14.508  19.586  0.00  0.00    +0.000 C 
BRANCH  12  13
ATOM     13  C   UNL     1       3.132  14.065  19.729  0.00  0.00    +0.000 C 
BRANCH  13  14
ATOM     14  C   UNL     1       3.783  14.479  21.007  0.00  0.00    +0.000 A 
ATOM     15  N   UNL     1       3.452  14.112  22.230  0.00  0.00    +0.000 NA
ATOM     16  N   UNL     1       4.322  14.713  23.111  0.00  0.00    +0.000 NA
ATOM     17  C   UNL     1       5.179  15.417  22.411  0.00  0.00    +0.000 A 
ATOM     18  N   UNL     1       4.882  15.296  21.089  0.00  0.00    +0.000 N 
ATOM     19  C   UNL     1       5.610  15.893  19.997  0.00  0.00    +0.000 C 
ENDBRANCH  13  14
ENDBRANCH  12  13
ENDBRANCH   5  12
ENDBRANCH   1   9
BRANCH   2  20
ATOM     20  C   UNL     1       2.096   7.473  18.901  0.00  0.00    +0.000 A 
ATOM     21  C   UNL     1       2.677   6.614  17.983  0.00  0.00    +0.000 A 
ATOM     22  C   UNL     1       3.197   5.413  18.427  0.00  0.00    +0.000 A 
ATOM     23  C   UNL     1       2.948   5.032  19.747  0.00  0.00    +0.000 A 
ATOM     24  C   UNL     1       2.271   5.918  20.578  0.00  0.00    +0.000 A 
ATOM     25  N   UNL     1       1.870   7.156  20.201  0.00  0.00    +0.000 NA
BRANCH  22  26
ATOM     26  C   UNL     1       3.907   4.489  17.503  0.00  0.00    +0.000 C 
ATOM     27  O   UNL     1       3.215   3.631  16.954  0.00  0.00    +0.000 OA
ATOM     28  N   UNL     1       5.273   4.619  17.250  0.00  0.00    +0.000 N 
ATOM     29  C   UNL     1       5.846   3.922  16.096  0.00  0.00    +0.000 C 
ATOM     30  C   UNL     1       6.519   4.937  15.150  0.00  0.00    +0.000 C 
ATOM     31  N   UNL     1       7.527   5.784  15.823  0.00  0.00    +0.000 NA
ATOM     32  C   UNL     1       6.955   6.424  17.022  0.00  0.00    +0.000 C 
ATOM     33  C   UNL     1       6.287   5.406  17.975  0.00  0.00    +0.000 C 
ATOM     34  H   UNL     1       7.840   6.508  15.176  0.00  0.00    +0.000 HD
ENDBRANCH  22  26
ENDBRANCH   2  20
TORSDOF 6
ENDMDL
