MODEL 1
REMARK VINA RESULT:      -8.6      0.000      0.000
REMARK  Name = 
REMARK  7 active torsions:
REMARK  status: ('A' for Active; 'I' for Inactive)
REMARK    1  A    between atoms: C_1  and  C_2
REMARK    2  A    between atoms: C_2  and  S_3
REMARK    3  A    between atoms: C_2  and  C_10
REMARK    4  A    between atoms: S_3  and  C_4
REMARK    5  A    between atoms: N_8  and  C_9
REMARK    6  A    between atoms: C_14  and  N_15
REMARK    7  A    between atoms: C_21  and  C_22
REMARK                            x       y       z     vdW  Elec       q    Type
REMARK                         _______ _______ _______ _____ _____    ______ ____
ROOT
ATOM      1  C   UNL     1       4.244   5.669  17.340  0.00  0.00    +0.000 A 
ATOM      2  C   UNL     1       4.797   4.622  16.586  0.00  0.00    +0.000 A 
ATOM      3  C   UNL     1       6.095   4.705  16.092  0.00  0.00    +0.000 A 
ATOM      4  C   UNL     1       6.859   5.848  16.320  0.00  0.00    +0.000 A 
ATOM      5  C   UNL     1       6.337   6.926  17.031  0.00  0.00    +0.000 A 
ATOM      6  C   UNL     1       5.038   6.820  17.557  0.00  0.00    +0.000 A 
ENDROOT
BRANCH   5   7
ATOM      7  N   UNL     1       7.059   8.122  17.258  0.00  0.00    +0.000 N 
ATOM      8  C   UNL     1       8.075   8.298  18.170  0.00  0.00    +0.000 C 
ATOM      9  O   UNL     1       8.559   7.408  18.868  0.00  0.00    +0.000 OA
ATOM     10  N   UNL     1       8.555   9.584  18.284  0.00  0.00    +0.000 N 
ATOM     11  C   UNL     1       8.154  10.790  17.582  0.00  0.00    +0.000 C 
ATOM     12  C   UNL     1       9.274  11.782  17.872  0.00  0.00    +0.000 C 
ATOM     13  C   UNL     1       9.773  11.392  19.268  0.00  0.00    +0.000 C 
ATOM     14  C   UNL     1       9.564   9.872  19.295  0.00  0.00    +0.000 C 
ATOM     15  H   UNL     1       6.896   8.874  16.609  0.00  0.00    +0.000 HD
BRANCH  13  16
ATOM     16  C   UNL     1       9.081  12.177  20.368  0.00  0.00    +0.000 A 
ATOM     17  C   UNL     1       8.650  13.502  20.208  0.00  0.00    +0.000 A 
ATOM     18  C   UNL     1       7.985  14.166  21.241  0.00  0.00    +0.000 A 
ATOM     19  C   UNL     1       7.754  13.521  22.454  0.00  0.00    +0.000 A 
ATOM     20  C   UNL     1       8.196  12.214  22.639  0.00  0.00    +0.000 A 
ATOM     21  C   UNL     1       8.858  11.548  21.605  0.00  0.00    +0.000 A 
ENDBRANCH  13  16
ENDBRANCH   5   7
BRANCH   1  23
ATOM     22  C   UNL     1       2.728   6.076  19.375  0.00  0.00    +0.000 C 
ATOM     23  C   UNL     1       2.825   5.603  17.915  0.00  0.00    +0.000 C 
BRANCH  23  24
ATOM     24  S   UNL     1       2.203   3.878  17.764  0.00  0.00    +0.000 S 
BRANCH  24  25
ATOM     25  C   UNL     1       2.002   3.394  19.405  0.00  0.00    +0.000 A 
ATOM     26  N   UNL     1       0.909   3.441  20.132  0.00  0.00    +0.000 NA
ATOM     27  N   UNL     1       1.234   3.011  21.401  0.00  0.00    +0.000 NA
ATOM     28  C   UNL     1       2.511   2.701  21.403  0.00  0.00    +0.000 A 
ATOM     29  N   UNL     1       3.028   2.901  20.159  0.00  0.00    +0.000 N 
ATOM     30  C   UNL     1       4.383   2.644  19.751  0.00  0.00    +0.000 C 
ENDBRANCH  24  25
ENDBRANCH  23  24
ENDBRANCH   1  23
TORSDOF 5
ENDMDL
MODEL 2
REMARK VINA RESULT:      -8.1      0.563      1.137
REMARK  Name = 
REMARK  7 active torsions:
REMARK  status: ('A' for Active; 'I' for Inactive)
REMARK    1  A    between atoms: C_1  and  C_2
REMARK    2  A    between atoms: C_2  and  S_3
REMARK    3  A    between atoms: C_2  and  C_10
REMARK    4  A    between atoms: S_3  and  C_4
REMARK    5  A    between atoms: N_8  and  C_9
REMARK    6  A    between atoms: C_14  and  N_15
REMARK    7  A    between atoms: C_21  and  C_22
REMARK                            x       y       z     vdW  Elec       q    Type
REMARK                         _______ _______ _______ _____ _____    ______ ____
ROOT
ATOM      1  C   UNL     1       4.460   5.663  17.222  0.00  0.00    +0.000 A 
ATOM      2  C   UNL     1       5.052   4.644  16.460  0.00  0.00    +0.000 A 
ATOM      3  C   UNL     1       6.358   4.766  15.994  0.00  0.00    +0.000 A 
ATOM      4  C   UNL     1       7.089   5.922  16.258  0.00  0.00    +0.000 A 
ATOM      5  C   UNL     1       6.528   6.974  16.977  0.00  0.00    +0.000 A 
ATOM      6  C   UNL     1       5.222   6.828  17.475  0.00  0.00    +0.000 A 
ENDROOT
BRANCH   5   7
ATOM      7  N   UNL     1       7.216   8.183  17.241  0.00  0.00    +0.000 N 
ATOM      8  C   UNL     1       8.183   8.375  18.202  0.00  0.00    +0.000 C 
ATOM      9  O   UNL     1       8.648   7.492  18.922  0.00  0.00    +0.000 OA
ATOM     10  N   UNL     1       8.634   9.669  18.340  0.00  0.00    +0.000 N 
ATOM     11  C   UNL     1       8.248  10.869  17.620  0.00  0.00    +0.000 C 
ATOM     12  C   UNL     1       9.334  11.880  17.965  0.00  0.00    +0.000 C 
ATOM     13  C   UNL     1       9.770  11.497  19.384  0.00  0.00    +0.000 C 
ATOM     14  C   UNL     1       9.587   9.973  19.400  0.00  0.00    +0.000 C 
ATOM     15  H   UNL     1       7.072   8.932  16.585  0.00  0.00    +0.000 HD
BRANCH  13  16
ATOM     16  C   UNL     1       9.011  12.268  20.448  0.00  0.00    +0.000 A 
ATOM     17  C   UNL     1       8.545  13.577  20.259  0.00  0.00    +0.000 A 
ATOM     18  C   UNL     1       7.819  14.227  21.260  0.00  0.00    +0.000 A 
ATOM     19  C   UNL     1       7.561  13.586  22.468  0.00  0.00    +0.000 A 
ATOM     20  C   UNL     1       8.037  12.295  22.683  0.00  0.00    +0.000 A 
ATOM     21  C   UNL     1       8.759  11.642  21.682  0.00  0.00    +0.000 A 
ENDBRANCH  13  16
ENDBRANCH   5   7
BRANCH   1  23
ATOM     22  C   UNL     1       2.868   6.119  19.187  0.00  0.00    +0.000 C 
ATOM     23  C   UNL     1       3.031   5.553  17.767  0.00  0.00    +0.000 C 
BRANCH  23  24
ATOM     24  S   UNL     1       2.513   3.788  17.723  0.00  0.00    +0.000 S 
BRANCH  24  25
ATOM     25  C   UNL     1       2.996   3.204  19.270  0.00  0.00    +0.000 A 
ATOM     26  N   UNL     1       4.196   2.835  19.654  0.00  0.00    +0.000 NA
ATOM     27  N   UNL     1       4.098   2.381  20.951  0.00  0.00    +0.000 NA
ATOM     28  C   UNL     1       2.843   2.502  21.323  0.00  0.00    +0.000 A 
ATOM     29  N   UNL     1       2.119   3.042  20.303  0.00  0.00    +0.000 N 
ATOM     30  C   UNL     1       0.717   3.360  20.333  0.00  0.00    +0.000 C 
ENDBRANCH  24  25
ENDBRANCH  23  24
ENDBRANCH   1  23
TORSDOF 5
ENDMDL
MODEL 3
REMARK VINA RESULT:      -7.9      3.826      9.197
REMARK  Name = 
REMARK  7 active torsions:
REMARK  status: ('A' for Active; 'I' for Inactive)
REMARK    1  A    between atoms: C_1  and  C_2
REMARK    2  A    between atoms: C_2  and  S_3
REMARK    3  A    between atoms: C_2  and  C_10
REMARK    4  A    between atoms: S_3  and  C_4
REMARK    5  A    between atoms: N_8  and  C_9
REMARK    6  A    between atoms: C_14  and  N_15
REMARK    7  A    between atoms: C_21  and  C_22
REMARK                            x       y       z     vdW  Elec       q    Type
REMARK                         _______ _______ _______ _____ _____    ______ ____
ROOT
ATOM      1  C   UNL     1       9.475  12.219  21.328  0.00  0.00    +0.000 A 
ATOM      2  C   UNL     1      10.484  12.861  20.594  0.00  0.00    +0.000 A 
ATOM      3  C   UNL     1      10.985  12.298  19.424  0.00  0.00    +0.000 A 
ATOM      4  C   UNL     1      10.507  11.069  18.978  0.00  0.00    +0.000 A 
ATOM      5  C   UNL     1       9.532  10.379  19.696  0.00  0.00    +0.000 A 
ATOM      6  C   UNL     1       9.005  10.971  20.856  0.00  0.00    +0.000 A 
ENDROOT
BRANCH   5   7
ATOM      7  N   UNL     1       9.038   9.111  19.304  0.00  0.00    +0.000 N 
ATOM      8  C   UNL     1       8.255   8.849  18.203  0.00  0.00    +0.000 C 
ATOM      9  O   UNL     1       7.937   9.675  17.349  0.00  0.00    +0.000 OA
ATOM     10  N   UNL     1       7.810   7.550  18.088  0.00  0.00    +0.000 N 
ATOM     11  C   UNL     1       8.044   6.408  18.951  0.00  0.00    +0.000 C 
ATOM     12  C   UNL     1       7.606   5.210  18.117  0.00  0.00    +0.000 C 
ATOM     13  C   UNL     1       6.477   5.756  17.236  0.00  0.00    +0.000 C 
ATOM     14  C   UNL     1       6.897   7.213  17.002  0.00  0.00    +0.000 C 
ATOM     15  H   UNL     1       9.395   8.317  19.808  0.00  0.00    +0.000 HD
BRANCH  13  16
ATOM     16  C   UNL     1       5.108   5.552  17.860  0.00  0.00    +0.000 A 
ATOM     17  C   UNL     1       4.801   4.467  18.695  0.00  0.00    +0.000 A 
ATOM     18  C   UNL     1       3.536   4.347  19.273  0.00  0.00    +0.000 A 
ATOM     19  C   UNL     1       2.554   5.301  19.015  0.00  0.00    +0.000 A 
ATOM     20  C   UNL     1       2.833   6.371  18.170  0.00  0.00    +0.000 A 
ATOM     21  C   UNL     1       4.100   6.494  17.594  0.00  0.00    +0.000 A 
ENDBRANCH  13  16
ENDBRANCH   5   7
BRANCH   1  23
ATOM     22  C   UNL     1       8.263  11.775  23.551  0.00  0.00    +0.000 C 
ATOM     23  C   UNL     1       8.886  12.820  22.610  0.00  0.00    +0.000 C 
BRANCH  23  24
ATOM     24  S   UNL     1       7.635  14.088  22.151  0.00  0.00    +0.000 S 
BRANCH  24  25
ATOM     25  C   UNL     1       6.627  14.161  23.547  0.00  0.00    +0.000 A 
ATOM     26  N   UNL     1       5.442  13.622  23.714  0.00  0.00    +0.000 NA
ATOM     27  N   UNL     1       4.987  13.993  24.961  0.00  0.00    +0.000 NA
ATOM     28  C   UNL     1       5.917  14.734  25.521  0.00  0.00    +0.000 A 
ATOM     29  N   UNL     1       6.980  14.843  24.675  0.00  0.00    +0.000 N 
ATOM     30  C   UNL     1       8.206  15.545  24.939  0.00  0.00    +0.000 C 
ENDBRANCH  24  25
ENDBRANCH  23  24
ENDBRANCH   1  23
TORSDOF 5
ENDMDL
MODEL 4
REMARK VINA RESULT:      -7.9      5.270      7.933
REMARK  Name = 
REMARK  7 active torsions:
REMARK  status: ('A' for Active; 'I' for Inactive)
REMARK    1  A    between atoms: C_1  and  C_2
REMARK    2  A    between atoms: C_2  and  S_3
REMARK    3  A    between atoms: C_2  and  C_10
REMARK    4  A    between atoms: S_3  and  C_4
REMARK    5  A    between atoms: N_8  and  C_9
REMARK    6  A    between atoms: C_14  and  N_15
REMARK    7  A    between atoms: C_21  and  C_22
REMARK                            x       y       z     vdW  Elec       q    Type
REMARK                         _______ _______ _______ _____ _____    ______ ____
ROOT
ATOM      1  C   UNL     1       5.116   4.614  17.296  0.00  0.00    +0.000 A 
ATOM      2  C   UNL     1       4.321   3.496  17.590  0.00  0.00    +0.000 A 
ATOM      3  C   UNL     1       3.005   3.647  18.017  0.00  0.00    +0.000 A 
ATOM      4  C   UNL     1       2.465   4.919  18.184  0.00  0.00    +0.000 A 
ATOM      5  C   UNL     1       3.231   6.058  17.940  0.00  0.00    +0.000 A 
ATOM      6  C   UNL     1       4.547   5.897  17.475  0.00  0.00    +0.000 A 
ENDROOT
BRANCH   5   7
ATOM      7  N   UNL     1       2.741   7.372  18.129  0.00  0.00    +0.000 N 
ATOM      8  C   UNL     1       2.052   7.833  19.229  0.00  0.00    +0.000 C 
ATOM      9  O   UNL     1       1.834   7.181  20.249  0.00  0.00    +0.000 OA
ATOM     10  N   UNL     1       1.584   9.125  19.137  0.00  0.00    +0.000 N 
ATOM     11  C   UNL     1       1.710  10.084  18.055  0.00  0.00    +0.000 C 
ATOM     12  C   UNL     1       1.316  11.415  18.684  0.00  0.00    +0.000 C 
ATOM     13  C   UNL     1       0.285  11.037  19.753  0.00  0.00    +0.000 C 
ATOM     14  C   UNL     1       0.764   9.655  20.219  0.00  0.00    +0.000 C 
ATOM     15  H   UNL     1       3.030   8.059  17.453  0.00  0.00    +0.000 HD
BRANCH  13  16
ATOM     16  C   UNL     1      -1.139  11.106  19.231  0.00  0.00    +0.000 A 
ATOM     17  C   UNL     1      -2.073  12.052  19.676  0.00  0.00    +0.000 A 
ATOM     18  C   UNL     1      -3.360  12.094  19.134  0.00  0.00    +0.000 A 
ATOM     19  C   UNL     1      -3.736  11.183  18.151  0.00  0.00    +0.000 A 
ATOM     20  C   UNL     1      -2.830  10.221  17.715  0.00  0.00    +0.000 A 
ATOM     21  C   UNL     1      -1.542  10.180  18.253  0.00  0.00    +0.000 A 
ENDBRANCH  13  16
ENDBRANCH   5   7
BRANCH   1  23
ATOM     22  C   UNL     1       7.609   4.667  17.918  0.00  0.00    +0.000 C 
ATOM     23  C   UNL     1       6.563   4.484  16.806  0.00  0.00    +0.000 C 
BRANCH  23  24
ATOM     24  S   UNL     1       6.845   5.706  15.460  0.00  0.00    +0.000 S 
BRANCH  24  25
ATOM     25  C   UNL     1       6.635   4.765  14.032  0.00  0.00    +0.000 A 
ATOM     26  N   UNL     1       5.730   3.842  13.801  0.00  0.00    +0.000 NA
ATOM     27  N   UNL     1       5.983   3.314  12.553  0.00  0.00    +0.000 NA
ATOM     28  C   UNL     1       7.025   3.943  12.056  0.00  0.00    +0.000 A 
ATOM     29  N   UNL     1       7.451   4.884  12.944  0.00  0.00    +0.000 N 
ATOM     30  C   UNL     1       8.543   5.799  12.752  0.00  0.00    +0.000 C 
ENDBRANCH  24  25
ENDBRANCH  23  24
ENDBRANCH   1  23
TORSDOF 5
ENDMDL
MODEL 5
REMARK VINA RESULT:      -7.9      4.156     10.479
REMARK  Name = 
REMARK  7 active torsions:
REMARK  status: ('A' for Active; 'I' for Inactive)
REMARK    1  A    between atoms: C_1  and  C_2
REMARK    2  A    between atoms: C_2  and  S_3
REMARK    3  A    between atoms: C_2  and  C_10
REMARK    4  A    between atoms: S_3  and  C_4
REMARK    5  A    between atoms: N_8  and  C_9
REMARK    6  A    between atoms: C_14  and  N_15
REMARK    7  A    between atoms: C_21  and  C_22
REMARK                            x       y       z     vdW  Elec       q    Type
REMARK                         _______ _______ _______ _____ _____    ______ ____
ROOT
ATOM      1  C   UNL     1      10.157  12.589  18.904  0.00  0.00    +0.000 A 
ATOM      2  C   UNL     1      10.138  12.985  20.251  0.00  0.00    +0.000 A 
ATOM      3  C   UNL     1       9.743  12.100  21.250  0.00  0.00    +0.000 A 
ATOM      4  C   UNL     1       9.333  10.811  20.921  0.00  0.00    +0.000 A 
ATOM      5  C   UNL     1       9.301  10.388  19.593  0.00  0.00    +0.000 A 
ATOM      6  C   UNL     1       9.735  11.275  18.594  0.00  0.00    +0.000 A 
ENDROOT
BRANCH   5   7
ATOM      7  N   UNL     1       8.859   9.101  19.204  0.00  0.00    +0.000 N 
ATOM      8  C   UNL     1       8.216   8.782  18.029  0.00  0.00    +0.000 C 
ATOM      9  O   UNL     1       8.004   9.566  17.105  0.00  0.00    +0.000 OA
ATOM     10  N   UNL     1       7.789   7.477  17.922  0.00  0.00    +0.000 N 
ATOM     11  C   UNL     1       7.917   6.377  18.861  0.00  0.00    +0.000 C 
ATOM     12  C   UNL     1       7.585   5.139  18.037  0.00  0.00    +0.000 C 
ATOM     13  C   UNL     1       6.571   5.636  17.000  0.00  0.00    +0.000 C 
ATOM     14  C   UNL     1       7.016   7.083  16.750  0.00  0.00    +0.000 C 
ATOM     15  H   UNL     1       9.152   8.333  19.785  0.00  0.00    +0.000 HD
BRANCH  13  16
ATOM     16  C   UNL     1       5.137   5.453  17.461  0.00  0.00    +0.000 A 
ATOM     17  C   UNL     1       4.305   6.523  17.820  0.00  0.00    +0.000 A 
ATOM     18  C   UNL     1       2.980   6.300  18.202  0.00  0.00    +0.000 A 
ATOM     19  C   UNL     1       2.472   5.005  18.247  0.00  0.00    +0.000 A 
ATOM     20  C   UNL     1       3.290   3.928  17.918  0.00  0.00    +0.000 A 
ATOM     21  C   UNL     1       4.614   4.150  17.531  0.00  0.00    +0.000 A 
ENDBRANCH  13  16
ENDBRANCH   5   7
BRANCH   1  23
ATOM     22  C   UNL     1      11.535  12.867  16.753  0.00  0.00    +0.000 C 
ATOM     23  C   UNL     1      10.605  13.531  17.780  0.00  0.00    +0.000 C 
BRANCH  23  24
ATOM     24  S   UNL     1      11.427  14.998  18.528  0.00  0.00    +0.000 S 
BRANCH  24  25
ATOM     25  C   UNL     1      10.211  16.215  18.432  0.00  0.00    +0.000 A 
ATOM     26  N   UNL     1       8.936  16.105  18.727  0.00  0.00    +0.000 NA
ATOM     27  N   UNL     1       8.337  17.312  18.439  0.00  0.00    +0.000 NA
ATOM     28  C   UNL     1       9.269  18.124  17.991  0.00  0.00    +0.000 A 
ATOM     29  N   UNL     1      10.470  17.482  17.996  0.00  0.00    +0.000 N 
ATOM     30  C   UNL     1      11.735  18.045  17.609  0.00  0.00    +0.000 C 
ENDBRANCH  24  25
ENDBRANCH  23  24
ENDBRANCH   1  23
TORSDOF 5
ENDMDL
MODEL 6
REMARK VINA RESULT:      -7.9      0.917      1.207
REMARK  Name = 
REMARK  7 active torsions:
REMARK  status: ('A' for Active; 'I' for Inactive)
REMARK    1  A    between atoms: C_1  and  C_2
REMARK    2  A    between atoms: C_2  and  S_3
REMARK    3  A    between atoms: C_2  and  C_10
REMARK    4  A    between atoms: S_3  and  C_4
REMARK    5  A    between atoms: N_8  and  C_9
REMARK    6  A    between atoms: C_14  and  N_15
REMARK    7  A    between atoms: C_21  and  C_22
REMARK                            x       y       z     vdW  Elec       q    Type
REMARK                         _______ _______ _______ _____ _____    ______ ____
ROOT
ATOM      1  C   UNL     1       4.258   6.009  17.338  0.00  0.00    +0.000 A 
ATOM      2  C   UNL     1       4.794   4.921  16.631  0.00  0.00    +0.000 A 
ATOM      3  C   UNL     1       6.112   4.939  16.185  0.00  0.00    +0.000 A 
ATOM      4  C   UNL     1       6.913   6.055  16.413  0.00  0.00    +0.000 A 
ATOM      5  C   UNL     1       6.410   7.172  17.077  0.00  0.00    +0.000 A 
ATOM      6  C   UNL     1       5.090   7.132  17.556  0.00  0.00    +0.000 A 
ENDROOT
BRANCH   5   7
ATOM      7  N   UNL     1       7.171   8.344  17.302  0.00  0.00    +0.000 N 
ATOM      8  C   UNL     1       8.182   8.492  18.225  0.00  0.00    +0.000 C 
ATOM      9  O   UNL     1       8.625   7.592  18.937  0.00  0.00    +0.000 OA
ATOM     10  N   UNL     1       8.706   9.761  18.332  0.00  0.00    +0.000 N 
ATOM     11  C   UNL     1       8.358  10.974  17.614  0.00  0.00    +0.000 C 
ATOM     12  C   UNL     1       9.510  11.928  17.908  0.00  0.00    +0.000 C 
ATOM     13  C   UNL     1       9.977  11.535  19.315  0.00  0.00    +0.000 C 
ATOM     14  C   UNL     1       9.713  10.023  19.353  0.00  0.00    +0.000 C 
ATOM     15  H   UNL     1       7.044   9.094  16.644  0.00  0.00    +0.000 HD
BRANCH  13  16
ATOM     16  C   UNL     1       9.300  12.355  20.398  0.00  0.00    +0.000 A 
ATOM     17  C   UNL     1       9.034  13.725  20.266  0.00  0.00    +0.000 A 
ATOM     18  C   UNL     1       8.375  14.425  21.280  0.00  0.00    +0.000 A 
ATOM     19  C   UNL     1       7.986  13.769  22.445  0.00  0.00    +0.000 A 
ATOM     20  C   UNL     1       8.263  12.414  22.603  0.00  0.00    +0.000 A 
ATOM     21  C   UNL     1       8.919  11.713  21.589  0.00  0.00    +0.000 A 
ENDBRANCH  13  16
ENDBRANCH   5   7
BRANCH   1  23
ATOM     22  C   UNL     1       2.200   7.421  17.954  0.00  0.00    +0.000 C 
ATOM     23  C   UNL     1       2.816   6.015  17.861  0.00  0.00    +0.000 C 
BRANCH  23  24
ATOM     24  S   UNL     1       2.778   5.194  19.507  0.00  0.00    +0.000 S 
BRANCH  24  25
ATOM     25  C   UNL     1       1.841   3.779  19.213  0.00  0.00    +0.000 A 
ATOM     26  N   UNL     1       1.202   3.449  18.114  0.00  0.00    +0.000 NA
ATOM     27  N   UNL     1       0.539   2.265  18.357  0.00  0.00    +0.000 NA
ATOM     28  C   UNL     1       0.808   1.903  19.591  0.00  0.00    +0.000 A 
ATOM     29  N   UNL     1       1.647   2.814  20.159  0.00  0.00    +0.000 N 
ATOM     30  C   UNL     1       2.195   2.752  21.486  0.00  0.00    +0.000 C 
ENDBRANCH  24  25
ENDBRANCH  23  24
ENDBRANCH   1  23
TORSDOF 5
ENDMDL
MODEL 7
REMARK VINA RESULT:      -7.9      3.952      9.948
REMARK  Name = 
REMARK  7 active torsions:
REMARK  status: ('A' for Active; 'I' for Inactive)
REMARK    1  A    between atoms: C_1  and  C_2
REMARK    2  A    between atoms: C_2  and  S_3
REMARK    3  A    between atoms: C_2  and  C_10
REMARK    4  A    between atoms: S_3  and  C_4
REMARK    5  A    between atoms: N_8  and  C_9
REMARK    6  A    between atoms: C_14  and  N_15
REMARK    7  A    between atoms: C_21  and  C_22
REMARK                            x       y       z     vdW  Elec       q    Type
REMARK                         _______ _______ _______ _____ _____    ______ ____
ROOT
ATOM      1  C   UNL     1       9.962  12.540  18.703  0.00  0.00    +0.000 A 
ATOM      2  C   UNL     1      10.090  12.936  20.043  0.00  0.00    +0.000 A 
ATOM      3  C   UNL     1       9.852  12.038  21.079  0.00  0.00    +0.000 A 
ATOM      4  C   UNL     1       9.456  10.733  20.798  0.00  0.00    +0.000 A 
ATOM      5  C   UNL     1       9.279  10.308  19.482  0.00  0.00    +0.000 A 
ATOM      6  C   UNL     1       9.557  11.210  18.441  0.00  0.00    +0.000 A 
ENDROOT
BRANCH   5   7
ATOM      7  N   UNL     1       8.844   9.004  19.145  0.00  0.00    +0.000 N 
ATOM      8  C   UNL     1       8.191   8.638  17.989  0.00  0.00    +0.000 C 
ATOM      9  O   UNL     1       7.963   9.387  17.040  0.00  0.00    +0.000 OA
ATOM     10  N   UNL     1       7.773   7.327  17.934  0.00  0.00    +0.000 N 
ATOM     11  C   UNL     1       7.919   6.263  18.910  0.00  0.00    +0.000 C 
ATOM     12  C   UNL     1       7.588   4.994  18.135  0.00  0.00    +0.000 C 
ATOM     13  C   UNL     1       6.559   5.445  17.092  0.00  0.00    +0.000 C 
ATOM     14  C   UNL     1       6.990   6.886  16.786  0.00  0.00    +0.000 C 
ATOM     15  H   UNL     1       9.149   8.260  19.749  0.00  0.00    +0.000 HD
BRANCH  13  16
ATOM     16  C   UNL     1       5.132   5.268  17.576  0.00  0.00    +0.000 A 
ATOM     17  C   UNL     1       4.329   6.337  18.001  0.00  0.00    +0.000 A 
ATOM     18  C   UNL     1       3.008   6.122  18.402  0.00  0.00    +0.000 A 
ATOM     19  C   UNL     1       2.475   4.835  18.399  0.00  0.00    +0.000 A 
ATOM     20  C   UNL     1       3.265   3.759  18.003  0.00  0.00    +0.000 A 
ATOM     21  C   UNL     1       4.584   3.973  17.598  0.00  0.00    +0.000 A 
ENDBRANCH  13  16
ENDBRANCH   5   7
BRANCH   1  23
ATOM     22  C   UNL     1      11.530  13.181  16.769  0.00  0.00    +0.000 C 
ATOM     23  C   UNL     1      10.235  13.497  17.536  0.00  0.00    +0.000 C 
BRANCH  23  24
ATOM     24  S   UNL     1      10.282  15.220  18.181  0.00  0.00    +0.000 S 
BRANCH  24  25
ATOM     25  C   UNL     1       8.614  15.643  18.275  0.00  0.00    +0.000 A 
ATOM     26  N   UNL     1       7.573  14.856  18.134  0.00  0.00    +0.000 NA
ATOM     27  N   UNL     1       6.443  15.639  18.227  0.00  0.00    +0.000 NA
ATOM     28  C   UNL     1       6.831  16.878  18.437  0.00  0.00    +0.000 A 
ATOM     29  N   UNL     1       8.191  16.921  18.502  0.00  0.00    +0.000 N 
ATOM     30  C   UNL     1       8.992  18.089  18.752  0.00  0.00    +0.000 C 
ENDBRANCH  24  25
ENDBRANCH  23  24
ENDBRANCH   1  23
TORSDOF 5
ENDMDL
MODEL 8
REMARK VINA RESULT:      -7.8      0.786      1.470
REMARK  Name = 
REMARK  7 active torsions:
REMARK  status: ('A' for Active; 'I' for Inactive)
REMARK    1  A    between atoms: C_1  and  C_2
REMARK    2  A    between atoms: C_2  and  S_3
REMARK    3  A    between atoms: C_2  and  C_10
REMARK    4  A    between atoms: S_3  and  C_4
REMARK    5  A    between atoms: N_8  and  C_9
REMARK    6  A    between atoms: C_14  and  N_15
REMARK    7  A    between atoms: C_21  and  C_22
REMARK                            x       y       z     vdW  Elec       q    Type
REMARK                         _______ _______ _______ _____ _____    ______ ____
ROOT
ATOM      1  C   UNL     1       4.751   5.281  17.390  0.00  0.00    +0.000 A 
ATOM      2  C   UNL     1       5.139   4.518  16.278  0.00  0.00    +0.000 A 
ATOM      3  C   UNL     1       6.222   4.899  15.492  0.00  0.00    +0.000 A 
ATOM      4  C   UNL     1       6.923   6.066  15.785  0.00  0.00    +0.000 A 
ATOM      5  C   UNL     1       6.549   6.874  16.857  0.00  0.00    +0.000 A 
ATOM      6  C   UNL     1       5.478   6.463  17.668  0.00  0.00    +0.000 A 
ENDROOT
BRANCH   5   7
ATOM      7  N   UNL     1       7.207   8.086  17.176  0.00  0.00    +0.000 N 
ATOM      8  C   UNL     1       8.165   8.261  18.149  0.00  0.00    +0.000 C 
ATOM      9  O   UNL     1       8.649   7.359  18.832  0.00  0.00    +0.000 OA
ATOM     10  N   UNL     1       8.583   9.558  18.344  0.00  0.00    +0.000 N 
ATOM     11  C   UNL     1       8.170  10.778  17.675  0.00  0.00    +0.000 C 
ATOM     12  C   UNL     1       9.229  11.800  18.068  0.00  0.00    +0.000 C 
ATOM     13  C   UNL     1       9.670  11.367  19.471  0.00  0.00    +0.000 C 
ATOM     14  C   UNL     1       9.524   9.840  19.420  0.00  0.00    +0.000 C 
ATOM     15  H   UNL     1       7.046   8.859  16.552  0.00  0.00    +0.000 HD
BRANCH  13  16
ATOM     16  C   UNL     1       8.888  12.073  20.564  0.00  0.00    +0.000 A 
ATOM     17  C   UNL     1       8.560  11.465  21.785  0.00  0.00    +0.000 A 
ATOM     18  C   UNL     1       7.871  12.174  22.772  0.00  0.00    +0.000 A 
ATOM     19  C   UNL     1       7.486  13.493  22.548  0.00  0.00    +0.000 A 
ATOM     20  C   UNL     1       7.782  14.104  21.333  0.00  0.00    +0.000 A 
ATOM     21  C   UNL     1       8.475  13.399  20.347  0.00  0.00    +0.000 A 
ENDBRANCH  13  16
ENDBRANCH   5   7
BRANCH   1  23
ATOM     22  C   UNL     1       3.564   5.601  19.647  0.00  0.00    +0.000 C 
ATOM     23  C   UNL     1       3.576   4.880  18.289  0.00  0.00    +0.000 C 
BRANCH  23  24
ATOM     24  S   UNL     1       3.614   3.057  18.538  0.00  0.00    +0.000 S 
BRANCH  24  25
ATOM     25  C   UNL     1       2.870   2.861  20.079  0.00  0.00    +0.000 A 
ATOM     26  N   UNL     1       3.456   2.696  21.242  0.00  0.00    +0.000 NA
ATOM     27  N   UNL     1       2.468   2.519  22.186  0.00  0.00    +0.000 NA
ATOM     28  C   UNL     1       1.309   2.597  21.571  0.00  0.00    +0.000 A 
ATOM     29  N   UNL     1       1.515   2.839  20.246  0.00  0.00    +0.000 N 
ATOM     30  C   UNL     1       0.497   3.022  19.248  0.00  0.00    +0.000 C 
ENDBRANCH  24  25
ENDBRANCH  23  24
ENDBRANCH   1  23
TORSDOF 5
ENDMDL
MODEL 9
REMARK VINA RESULT:      -7.7      4.351      6.628
REMARK  Name = 
REMARK  7 active torsions:
REMARK  status: ('A' for Active; 'I' for Inactive)
REMARK    1  A    between atoms: C_1  and  C_2
REMARK    2  A    between atoms: C_2  and  S_3
REMARK    3  A    between atoms: C_2  and  C_10
REMARK    4  A    between atoms: S_3  and  C_4
REMARK    5  A    between atoms: N_8  and  C_9
REMARK    6  A    between atoms: C_14  and  N_15
REMARK    7  A    between atoms: C_21  and  C_22
REMARK                            x       y       z     vdW  Elec       q    Type
REMARK                         _______ _______ _______ _____ _____    ______ ____
ROOT
ATOM      1  C   UNL     1       5.362   4.848  19.018  0.00  0.00    +0.000 A 
ATOM      2  C   UNL     1       4.916   3.571  19.389  0.00  0.00    +0.000 A 
ATOM      3  C   UNL     1       3.647   3.386  19.931  0.00  0.00    +0.000 A 
ATOM      4  C   UNL     1       2.809   4.479  20.138  0.00  0.00    +0.000 A 
ATOM      5  C   UNL     1       3.226   5.770  19.819  0.00  0.00    +0.000 A 
ATOM      6  C   UNL     1       4.493   5.944  19.239  0.00  0.00    +0.000 A 
ENDROOT
BRANCH   5   7
ATOM      7  N   UNL     1       2.426   6.916  20.043  0.00  0.00    +0.000 N 
ATOM      8  C   UNL     1       1.969   7.789  19.081  0.00  0.00    +0.000 C 
ATOM      9  O   UNL     1       2.125   7.649  17.869  0.00  0.00    +0.000 OA
ATOM     10  N   UNL     1       1.294   8.892  19.554  0.00  0.00    +0.000 N 
ATOM     11  C   UNL     1       0.985   9.278  20.919  0.00  0.00    +0.000 C 
ATOM     12  C   UNL     1      -0.067  10.370  20.772  0.00  0.00    +0.000 C 
ATOM     13  C   UNL     1       0.287  11.060  19.449  0.00  0.00    +0.000 C 
ATOM     14  C   UNL     1       0.862   9.913  18.607  0.00  0.00    +0.000 C 
ATOM     15  H   UNL     1       2.058   7.031  20.972  0.00  0.00    +0.000 HD
BRANCH  13  16
ATOM     16  C   UNL     1       1.197  12.258  19.648  0.00  0.00    +0.000 A 
ATOM     17  C   UNL     1       1.234  13.002  20.836  0.00  0.00    +0.000 A 
ATOM     18  C   UNL     1       2.118  14.074  20.980  0.00  0.00    +0.000 A 
ATOM     19  C   UNL     1       2.968  14.426  19.935  0.00  0.00    +0.000 A 
ATOM     20  C   UNL     1       2.928  13.714  18.739  0.00  0.00    +0.000 A 
ATOM     21  C   UNL     1       2.047  12.640  18.596  0.00  0.00    +0.000 A 
ENDBRANCH  13  16
ENDBRANCH   5   7
BRANCH   1  23
ATOM     22  C   UNL     1       7.809   5.522  19.422  0.00  0.00    +0.000 C 
ATOM     23  C   UNL     1       6.745   5.085  18.401  0.00  0.00    +0.000 C 
BRANCH  23  24
ATOM     24  S   UNL     1       6.592   6.342  17.066  0.00  0.00    +0.000 S 
BRANCH  24  25
ATOM     25  C   UNL     1       6.664   5.392  15.630  0.00  0.00    +0.000 A 
ATOM     26  N   UNL     1       7.642   5.325  14.756  0.00  0.00    +0.000 NA
ATOM     27  N   UNL     1       7.236   4.488  13.740  0.00  0.00    +0.000 NA
ATOM     28  C   UNL     1       6.028   4.059  14.034  0.00  0.00    +0.000 A 
ATOM     29  N   UNL     1       5.640   4.583  15.230  0.00  0.00    +0.000 N 
ATOM     30  C   UNL     1       4.399   4.325  15.907  0.00  0.00    +0.000 C 
ENDBRANCH  24  25
ENDBRANCH  23  24
ENDBRANCH   1  23
TORSDOF 5
ENDMDL
