MODEL 1
REMARK VINA RESULT:      -9.8      0.000      0.000
REMARK  Name = 
REMARK  7 active torsions:
REMARK  status: ('A' for Active; 'I' for Inactive)
REMARK    1  A    between atoms: C_1  and  N_2
REMARK    2  A    between atoms: C_6  and  C_7
REMARK    3  A    between atoms: C_7  and  C_8
REMARK    4  A    between atoms: C_8  and  C_9
REMARK    5  A    between atoms: C_8  and  C_29
REMARK    6  A    between atoms: C_13  and  N_14
REMARK    7  A    between atoms: C_21  and  C_22
REMARK                            x       y       z     vdW  Elec       q    Type
REMARK                         _______ _______ _______ _____ _____    ______ ____
ROOT
ATOM      1  C   UNL     1       4.658   5.368  18.090  0.00  0.00    +0.000 A 
ATOM      2  C   UNL     1       4.077   4.197  18.577  0.00  0.00    +0.000 A 
ATOM      3  C   UNL     1       2.782   4.230  19.118  0.00  0.00    +0.000 A 
ATOM      4  C   UNL     1       2.077   5.437  19.247  0.00  0.00    +0.000 A 
ATOM      5  C   UNL     1       2.682   6.631  18.873  0.00  0.00    +0.000 A 
ATOM      6  C   UNL     1       3.947   6.561  18.252  0.00  0.00    +0.000 A 
ENDROOT
BRANCH   5   7
ATOM      7  N   UNL     1       2.142   7.913  19.152  0.00  0.00    +0.000 N 
ATOM      8  C   UNL     1       1.563   8.140  20.462  0.00  0.00    +0.000 C 
ATOM      9  C   UNL     1       0.859   9.432  20.331  0.00  0.00    +0.000 A 
ATOM     10  C   UNL     1       1.101   9.977  19.072  0.00  0.00    +0.000 A 
ATOM     11  C   UNL     1       0.607  11.211  18.722  0.00  0.00    +0.000 A 
ATOM     12  C   UNL     1      -0.155  11.898  19.674  0.00  0.00    +0.000 A 
ATOM     13  C   UNL     1      -0.439  11.328  20.936  0.00  0.00    +0.000 A 
ATOM     14  C   UNL     1       0.059  10.065  21.280  0.00  0.00    +0.000 A 
ATOM     15  C   UNL     1       1.893   8.986  18.295  0.00  0.00    +0.000 C 
ATOM     16  O   UNL     1       2.199   9.148  17.120  0.00  0.00    +0.000 OA
BRANCH  14  17
ATOM     17  C   UNL     1      -0.279   9.417  22.599  0.00  0.00    +0.000 C 
ATOM     18  F   UNL     1      -0.880   8.199  22.477  0.00  0.00    +0.000 F 
ATOM     19  F   UNL     1       0.813   9.207  23.380  0.00  0.00    +0.000 F 
ATOM     20  F   UNL     1      -1.139  10.170  23.340  0.00  0.00    +0.000 F 
ENDBRANCH  14  17
ENDBRANCH   5   7
BRANCH   1  21
ATOM     21  C   UNL     1       5.991   5.431  17.350  0.00  0.00    +0.000 C 
BRANCH  21  22
ATOM     22  C   UNL     1       7.234   5.450  18.249  0.00  0.00    +0.000 C 
ATOM     23  F   UNL     1       7.979   6.567  18.063  0.00  0.00    +0.000 F 
ATOM     24  F   UNL     1       6.874   5.438  19.557  0.00  0.00    +0.000 F 
ATOM     25  F   UNL     1       8.057   4.398  18.054  0.00  0.00    +0.000 F 
ENDBRANCH  21  22
BRANCH  21  26
ATOM     26  C   UNL     1       6.097   4.321  16.285  0.00  0.00    +0.000 C 
BRANCH  26  32
ATOM     27  C   UNL     1       5.342   3.510  13.343  0.00  0.00    +0.000 C 
ATOM     28  N   UNL     1       6.432   4.352  13.754  0.00  0.00    +0.000 N 
ATOM     29  C   UNL     1       7.395   4.857  12.935  0.00  0.00    +0.000 A 
ATOM     30  N   UNL     1       8.195   5.633  13.626  0.00  0.00    +0.000 NA
ATOM     31  N   UNL     1       7.781   5.594  14.936  0.00  0.00    +0.000 NA
ATOM     32  C   UNL     1       6.742   4.786  15.018  0.00  0.00    +0.000 A 
ENDBRANCH  26  32
ENDBRANCH  21  26
ENDBRANCH   1  21
TORSDOF 6
ENDMDL
MODEL 2
REMARK VINA RESULT:      -8.9      2.279      2.804
REMARK  Name = 
REMARK  7 active torsions:
REMARK  status: ('A' for Active; 'I' for Inactive)
REMARK    1  A    between atoms: C_1  and  N_2
REMARK    2  A    between atoms: C_6  and  C_7
REMARK    3  A    between atoms: C_7  and  C_8
REMARK    4  A    between atoms: C_8  and  C_9
REMARK    5  A    between atoms: C_8  and  C_29
REMARK    6  A    between atoms: C_13  and  N_14
REMARK    7  A    between atoms: C_21  and  C_22
REMARK                            x       y       z     vdW  Elec       q    Type
REMARK                         _______ _______ _______ _____ _____    ______ ____
ROOT
ATOM      1  C   UNL     1       4.613   4.504  17.108  0.00  0.00    +0.000 A 
ATOM      2  C   UNL     1       3.996   3.267  16.929  0.00  0.00    +0.000 A 
ATOM      3  C   UNL     1       2.661   3.085  17.324  0.00  0.00    +0.000 A 
ATOM      4  C   UNL     1       1.946   4.109  17.966  0.00  0.00    +0.000 A 
ATOM      5  C   UNL     1       2.579   5.312  18.257  0.00  0.00    +0.000 A 
ATOM      6  C   UNL     1       3.890   5.500  17.772  0.00  0.00    +0.000 A 
ENDROOT
BRANCH   5   7
ATOM      7  N   UNL     1       2.015   6.323  19.078  0.00  0.00    +0.000 N 
ATOM      8  C   UNL     1       1.735   7.613  18.478  0.00  0.00    +0.000 C 
ATOM      9  C   UNL     1       1.436   8.492  19.627  0.00  0.00    +0.000 A 
ATOM     10  C   UNL     1       1.430   7.747  20.804  0.00  0.00    +0.000 A 
ATOM     11  C   UNL     1       1.116   8.324  22.012  0.00  0.00    +0.000 A 
ATOM     12  C   UNL     1       0.809   9.689  22.018  0.00  0.00    +0.000 A 
ATOM     13  C   UNL     1       0.857  10.457  20.831  0.00  0.00    +0.000 A 
ATOM     14  C   UNL     1       1.190   9.863  19.607  0.00  0.00    +0.000 A 
ATOM     15  C   UNL     1       1.841   6.359  20.462  0.00  0.00    +0.000 C 
ATOM     16  O   UNL     1       2.002   5.484  21.304  0.00  0.00    +0.000 OA
BRANCH  14  17
ATOM     17  C   UNL     1       1.301  10.676  18.341  0.00  0.00    +0.000 C 
ATOM     18  F   UNL     1       1.135  12.017  18.531  0.00  0.00    +0.000 F 
ATOM     19  F   UNL     1       2.508  10.542  17.731  0.00  0.00    +0.000 F 
ATOM     20  F   UNL     1       0.364  10.325  17.417  0.00  0.00    +0.000 F 
ENDBRANCH  14  17
ENDBRANCH   5   7
BRANCH   1  21
ATOM     21  C   UNL     1       6.002   4.864  16.588  0.00  0.00    +0.000 C 
BRANCH  21  22
ATOM     22  C   UNL     1       7.086   4.999  17.666  0.00  0.00    +0.000 C 
ATOM     23  F   UNL     1       7.612   6.247  17.703  0.00  0.00    +0.000 F 
ATOM     24  F   UNL     1       6.563   4.762  18.895  0.00  0.00    +0.000 F 
ATOM     25  F   UNL     1       8.119   4.146  17.502  0.00  0.00    +0.000 F 
ENDBRANCH  21  22
BRANCH  21  26
ATOM     26  C   UNL     1       6.451   3.901  15.471  0.00  0.00    +0.000 C 
BRANCH  26  32
ATOM     27  C   UNL     1       5.861   3.359  12.431  0.00  0.00    +0.000 C 
ATOM     28  N   UNL     1       6.809   4.293  12.974  0.00  0.00    +0.000 N 
ATOM     29  C   UNL     1       7.698   5.030  12.251  0.00  0.00    +0.000 A 
ATOM     30  N   UNL     1       8.366   5.822  13.055  0.00  0.00    +0.000 NA
ATOM     31  N   UNL     1       7.946   5.562  14.337  0.00  0.00    +0.000 NA
ATOM     32  C   UNL     1       7.037   4.607  14.290  0.00  0.00    +0.000 A 
ENDBRANCH  26  32
ENDBRANCH  21  26
ENDBRANCH   1  21
TORSDOF 6
ENDMDL
MODEL 3
REMARK VINA RESULT:      -8.8      3.121      4.354
REMARK  Name = 
REMARK  7 active torsions:
REMARK  status: ('A' for Active; 'I' for Inactive)
REMARK    1  A    between atoms: C_1  and  N_2
REMARK    2  A    between atoms: C_6  and  C_7
REMARK    3  A    between atoms: C_7  and  C_8
REMARK    4  A    between atoms: C_8  and  C_9
REMARK    5  A    between atoms: C_8  and  C_29
REMARK    6  A    between atoms: C_13  and  N_14
REMARK    7  A    between atoms: C_21  and  C_22
REMARK                            x       y       z     vdW  Elec       q    Type
REMARK                         _______ _______ _______ _____ _____    ______ ____
ROOT
ATOM      1  C   UNL     1       2.943   6.367  19.152  0.00  0.00    +0.000 A 
ATOM      2  C   UNL     1       3.295   6.784  17.869  0.00  0.00    +0.000 A 
ATOM      3  C   UNL     1       2.953   8.074  17.432  0.00  0.00    +0.000 A 
ATOM      4  C   UNL     1       2.194   8.938  18.239  0.00  0.00    +0.000 A 
ATOM      5  C   UNL     1       1.735   8.500  19.475  0.00  0.00    +0.000 A 
ATOM      6  C   UNL     1       2.167   7.234  19.927  0.00  0.00    +0.000 A 
ENDROOT
BRANCH   5   7
ATOM      7  N   UNL     1       0.799   9.211  20.268  0.00  0.00    +0.000 N 
ATOM      8  C   UNL     1      -0.299   9.878  19.596  0.00  0.00    +0.000 C 
ATOM      9  C   UNL     1      -0.902  10.733  20.640  0.00  0.00    +0.000 A 
ATOM     10  C   UNL     1      -0.275  10.500  21.862  0.00  0.00    +0.000 A 
ATOM     11  C   UNL     1      -0.694  11.129  23.010  0.00  0.00    +0.000 A 
ATOM     12  C   UNL     1      -1.770  12.017  22.906  0.00  0.00    +0.000 A 
ATOM     13  C   UNL     1      -2.379  12.289  21.659  0.00  0.00    +0.000 A 
ATOM     14  C   UNL     1      -1.937  11.653  20.493  0.00  0.00    +0.000 A 
ATOM     15  C   UNL     1       0.846   9.551  21.621  0.00  0.00    +0.000 C 
ATOM     16  O   UNL     1       1.633   9.211  22.496  0.00  0.00    +0.000 OA
BRANCH  14  17
ATOM     17  C   UNL     1      -2.538  11.971  19.146  0.00  0.00    +0.000 C 
ATOM     18  F   UNL     1      -1.683  12.613  18.299  0.00  0.00    +0.000 F 
ATOM     19  F   UNL     1      -2.949  10.862  18.475  0.00  0.00    +0.000 F 
ATOM     20  F   UNL     1      -3.626  12.784  19.243  0.00  0.00    +0.000 F 
ENDBRANCH  14  17
ENDBRANCH   5   7
BRANCH   1  21
ATOM     21  C   UNL     1       3.386   5.052  19.788  0.00  0.00    +0.000 C 
BRANCH  21  22
ATOM     22  C   UNL     1       2.258   4.220  20.414  0.00  0.00    +0.000 C 
ATOM     23  F   UNL     1       1.128   4.254  19.668  0.00  0.00    +0.000 F 
ATOM     24  F   UNL     1       2.625   2.917  20.505  0.00  0.00    +0.000 F 
ATOM     25  F   UNL     1       1.916   4.624  21.656  0.00  0.00    +0.000 F 
ENDBRANCH  21  22
BRANCH  21  26
ATOM     26  C   UNL     1       4.216   4.203  18.805  0.00  0.00    +0.000 C 
BRANCH  26  32
ATOM     27  C   UNL     1       6.050   4.165  16.251  0.00  0.00    +0.000 C 
ATOM     28  N   UNL     1       6.429   4.557  17.581  0.00  0.00    +0.000 N 
ATOM     29  C   UNL     1       7.690   4.877  17.983  0.00  0.00    +0.000 A 
ATOM     30  N   UNL     1       7.668   5.247  19.241  0.00  0.00    +0.000 NA
ATOM     31  N   UNL     1       6.376   5.115  19.690  0.00  0.00    +0.000 NA
ATOM     32  C   UNL     1       5.637   4.657  18.697  0.00  0.00    +0.000 A 
ENDBRANCH  26  32
ENDBRANCH  21  26
ENDBRANCH   1  21
TORSDOF 6
ENDMDL
MODEL 4
REMARK VINA RESULT:      -8.8      4.053      8.736
REMARK  Name = 
REMARK  7 active torsions:
REMARK  status: ('A' for Active; 'I' for Inactive)
REMARK    1  A    between atoms: C_1  and  N_2
REMARK    2  A    between atoms: C_6  and  C_7
REMARK    3  A    between atoms: C_7  and  C_8
REMARK    4  A    between atoms: C_8  and  C_9
REMARK    5  A    between atoms: C_8  and  C_29
REMARK    6  A    between atoms: C_13  and  N_14
REMARK    7  A    between atoms: C_21  and  C_22
REMARK                            x       y       z     vdW  Elec       q    Type
REMARK                         _______ _______ _______ _____ _____    ______ ____
ROOT
ATOM      1  C   UNL     1      -0.263  10.464  20.410  0.00  0.00    +0.000 A 
ATOM      2  C   UNL     1      -0.239  10.555  21.802  0.00  0.00    +0.000 A 
ATOM      3  C   UNL     1       0.584   9.696  22.546  0.00  0.00    +0.000 A 
ATOM      4  C   UNL     1       1.339   8.689  21.923  0.00  0.00    +0.000 A 
ATOM      5  C   UNL     1       1.241   8.506  20.549  0.00  0.00    +0.000 A 
ATOM      6  C   UNL     1       0.477   9.438  19.814  0.00  0.00    +0.000 A 
ENDROOT
BRANCH   5   7
ATOM      7  N   UNL     1       1.795   7.399  19.857  0.00  0.00    +0.000 N 
ATOM      8  C   UNL     1       1.701   6.091  20.476  0.00  0.00    +0.000 C 
ATOM      9  C   UNL     1       2.595   5.238  19.664  0.00  0.00    +0.000 A 
ATOM     10  C   UNL     1       3.088   5.965  18.583  0.00  0.00    +0.000 A 
ATOM     11  C   UNL     1       3.896   5.378  17.638  0.00  0.00    +0.000 A 
ATOM     12  C   UNL     1       4.212   4.025  17.806  0.00  0.00    +0.000 A 
ATOM     13  C   UNL     1       3.749   3.298  18.927  0.00  0.00    +0.000 A 
ATOM     14  C   UNL     1       2.936   3.907  19.890  0.00  0.00    +0.000 A 
ATOM     15  C   UNL     1       2.608   7.366  18.723  0.00  0.00    +0.000 C 
ATOM     16  O   UNL     1       2.940   8.265  17.961  0.00  0.00    +0.000 OA
BRANCH  14  17
ATOM     17  C   UNL     1       2.478   3.162  21.120  0.00  0.00    +0.000 C 
ATOM     18  F   UNL     1       2.368   3.947  22.230  0.00  0.00    +0.000 F 
ATOM     19  F   UNL     1       1.258   2.582  20.963  0.00  0.00    +0.000 F 
ATOM     20  F   UNL     1       3.334   2.163  21.469  0.00  0.00    +0.000 F 
ENDBRANCH  14  17
ENDBRANCH   5   7
BRANCH   1  21
ATOM     21  C   UNL     1      -1.000  11.434  19.490  0.00  0.00    +0.000 C 
BRANCH  21  22
ATOM     22  C   UNL     1      -0.249  12.737  19.184  0.00  0.00    +0.000 C 
ATOM     23  F   UNL     1       1.080  12.625  19.423  0.00  0.00    +0.000 F 
ATOM     24  F   UNL     1      -0.382  13.064  17.874  0.00  0.00    +0.000 F 
ATOM     25  F   UNL     1      -0.686  13.792  19.903  0.00  0.00    +0.000 F 
ENDBRANCH  21  22
BRANCH  21  26
ATOM     26  C   UNL     1      -1.454  10.741  18.191  0.00  0.00    +0.000 C 
BRANCH  26  32
ATOM     27  C   UNL     1      -2.828  10.372  15.386  0.00  0.00    +0.000 C 
ATOM     28  N   UNL     1      -3.409  10.959  16.563  0.00  0.00    +0.000 N 
ATOM     29  C   UNL     1      -4.630  11.559  16.627  0.00  0.00    +0.000 A 
ATOM     30  N   UNL     1      -4.872  11.926  17.862  0.00  0.00    +0.000 NA
ATOM     31  N   UNL     1      -3.766  11.611  18.614  0.00  0.00    +0.000 NA
ATOM     32  C   UNL     1      -2.866  11.066  17.818  0.00  0.00    +0.000 A 
ENDBRANCH  26  32
ENDBRANCH  21  26
ENDBRANCH   1  21
TORSDOF 6
ENDMDL
MODEL 5
REMARK VINA RESULT:      -8.7      2.245      2.831
REMARK  Name = 
REMARK  7 active torsions:
REMARK  status: ('A' for Active; 'I' for Inactive)
REMARK    1  A    between atoms: C_1  and  N_2
REMARK    2  A    between atoms: C_6  and  C_7
REMARK    3  A    between atoms: C_7  and  C_8
REMARK    4  A    between atoms: C_8  and  C_9
REMARK    5  A    between atoms: C_8  and  C_29
REMARK    6  A    between atoms: C_13  and  N_14
REMARK    7  A    between atoms: C_21  and  C_22
REMARK                            x       y       z     vdW  Elec       q    Type
REMARK                         _______ _______ _______ _____ _____    ______ ____
ROOT
ATOM      1  C   UNL     1       4.699   4.783  17.064  0.00  0.00    +0.000 A 
ATOM      2  C   UNL     1       4.096   3.548  16.830  0.00  0.00    +0.000 A 
ATOM      3  C   UNL     1       2.755   3.342  17.192  0.00  0.00    +0.000 A 
ATOM      4  C   UNL     1       2.020   4.337  17.857  0.00  0.00    +0.000 A 
ATOM      5  C   UNL     1       2.636   5.534  18.203  0.00  0.00    +0.000 A 
ATOM      6  C   UNL     1       3.955   5.750  17.749  0.00  0.00    +0.000 A 
ENDROOT
BRANCH   5   7
ATOM      7  N   UNL     1       2.049   6.510  19.048  0.00  0.00    +0.000 N 
ATOM      8  C   UNL     1       1.741   7.808  18.481  0.00  0.00    +0.000 C 
ATOM      9  C   UNL     1       1.420   8.651  19.651  0.00  0.00    +0.000 A 
ATOM     10  C   UNL     1       1.430   7.876  20.809  0.00  0.00    +0.000 A 
ATOM     11  C   UNL     1       1.101   8.415  22.030  0.00  0.00    +0.000 A 
ATOM     12  C   UNL     1       0.762   9.772  22.070  0.00  0.00    +0.000 A 
ATOM     13  C   UNL     1       0.795  10.571  20.904  0.00  0.00    +0.000 A 
ATOM     14  C   UNL     1       1.143  10.017  19.666  0.00  0.00    +0.000 A 
ATOM     15  C   UNL     1       1.872   6.507  20.432  0.00  0.00    +0.000 C 
ATOM     16  O   UNL     1       2.052   5.614  21.251  0.00  0.00    +0.000 OA
BRANCH  14  17
ATOM     17  C   UNL     1       1.237  10.864  18.421  0.00  0.00    +0.000 C 
ATOM     18  F   UNL     1       0.318  10.542  17.465  0.00  0.00    +0.000 F 
ATOM     19  F   UNL     1       1.056  12.188  18.668  0.00  0.00    +0.000 F 
ATOM     20  F   UNL     1       2.448  10.751  17.808  0.00  0.00    +0.000 F 
ENDBRANCH  14  17
ENDBRANCH   5   7
BRANCH   1  21
ATOM     21  C   UNL     1       6.094   5.172  16.584  0.00  0.00    +0.000 C 
BRANCH  21  22
ATOM     22  C   UNL     1       7.100   5.493  17.697  0.00  0.00    +0.000 C 
ATOM     23  F   UNL     1       8.032   4.518  17.835  0.00  0.00    +0.000 F 
ATOM     24  F   UNL     1       7.774   6.636  17.413  0.00  0.00    +0.000 F 
ATOM     25  F   UNL     1       6.529   5.658  18.909  0.00  0.00    +0.000 F 
ENDBRANCH  21  22
BRANCH  21  26
ATOM     26  C   UNL     1       6.666   4.124  15.608  0.00  0.00    +0.000 C 
BRANCH  26  32
ATOM     27  C   UNL     1       5.677   3.379  12.718  0.00  0.00    +0.000 C 
ATOM     28  N   UNL     1       6.713   4.314  13.063  0.00  0.00    +0.000 N 
ATOM     29  C   UNL     1       7.523   4.959  12.178  0.00  0.00    +0.000 A 
ATOM     30  N   UNL     1       8.310   5.783  12.827  0.00  0.00    +0.000 NA
ATOM     31  N   UNL     1       8.050   5.637  14.168  0.00  0.00    +0.000 NA
ATOM     32  C   UNL     1       7.115   4.717  14.311  0.00  0.00    +0.000 A 
ENDBRANCH  26  32
ENDBRANCH  21  26
ENDBRANCH   1  21
TORSDOF 6
ENDMDL
MODEL 6
REMARK VINA RESULT:      -8.7      2.479      3.270
REMARK  Name = 
REMARK  7 active torsions:
REMARK  status: ('A' for Active; 'I' for Inactive)
REMARK    1  A    between atoms: C_1  and  N_2
REMARK    2  A    between atoms: C_6  and  C_7
REMARK    3  A    between atoms: C_7  and  C_8
REMARK    4  A    between atoms: C_8  and  C_9
REMARK    5  A    between atoms: C_8  and  C_29
REMARK    6  A    between atoms: C_13  and  N_14
REMARK    7  A    between atoms: C_21  and  C_22
REMARK                            x       y       z     vdW  Elec       q    Type
REMARK                         _______ _______ _______ _____ _____    ______ ____
ROOT
ATOM      1  C   UNL     1       3.330   4.222  19.219  0.00  0.00    +0.000 A 
ATOM      2  C   UNL     1       2.636   3.350  20.058  0.00  0.00    +0.000 A 
ATOM      3  C   UNL     1       1.524   3.809  20.781  0.00  0.00    +0.000 A 
ATOM      4  C   UNL     1       1.132   5.157  20.736  0.00  0.00    +0.000 A 
ATOM      5  C   UNL     1       1.878   6.067  19.996  0.00  0.00    +0.000 A 
ATOM      6  C   UNL     1       2.936   5.564  19.209  0.00  0.00    +0.000 A 
ENDROOT
BRANCH   5   7
ATOM      7  N   UNL     1       1.690   7.471  20.050  0.00  0.00    +0.000 N 
ATOM      8  C   UNL     1       1.112   8.038  21.253  0.00  0.00    +0.000 C 
ATOM      9  C   UNL     1       0.797   9.434  20.884  0.00  0.00    +0.000 A 
ATOM     10  C   UNL     1       1.260   9.699  19.596  0.00  0.00    +0.000 A 
ATOM     11  C   UNL     1       1.144  10.951  19.040  0.00  0.00    +0.000 A 
ATOM     12  C   UNL     1       0.539  11.949  19.812  0.00  0.00    +0.000 A 
ATOM     13  C   UNL     1       0.029  11.671  21.101  0.00  0.00    +0.000 A 
ATOM     14  C   UNL     1       0.140  10.390  21.655  0.00  0.00    +0.000 A 
ATOM     15  C   UNL     1       1.800   8.429  19.040  0.00  0.00    +0.000 C 
ATOM     16  O   UNL     1       2.213   8.325  17.892  0.00  0.00    +0.000 OA
BRANCH  14  17
ATOM     17  C   UNL     1      -0.446  10.061  23.006  0.00  0.00    +0.000 C 
ATOM     18  F   UNL     1       0.485   9.714  23.941  0.00  0.00    +0.000 F 
ATOM     19  F   UNL     1      -1.137  11.098  23.548  0.00  0.00    +0.000 F 
ATOM     20  F   UNL     1      -1.311   9.010  22.952  0.00  0.00    +0.000 F 
ENDBRANCH  14  17
ENDBRANCH   5   7
BRANCH   1  21
ATOM     21  C   UNL     1       4.455   3.806  18.275  0.00  0.00    +0.000 C 
BRANCH  21  22
ATOM     22  C   UNL     1       4.035   2.866  17.137  0.00  0.00    +0.000 C 
ATOM     23  F   UNL     1       2.819   3.190  16.634  0.00  0.00    +0.000 F 
ATOM     24  F   UNL     1       4.914   2.947  16.107  0.00  0.00    +0.000 F 
ATOM     25  F   UNL     1       3.971   1.569  17.505  0.00  0.00    +0.000 F 
ENDBRANCH  21  22
BRANCH  21  26
ATOM     26  C   UNL     1       5.211   5.032  17.728  0.00  0.00    +0.000 C 
BRANCH  26  32
ATOM     27  C   UNL     1       7.305   7.312  17.177  0.00  0.00    +0.000 C 
ATOM     28  N   UNL     1       7.279   6.415  18.300  0.00  0.00    +0.000 N 
ATOM     29  C   UNL     1       8.233   6.332  19.269  0.00  0.00    +0.000 A 
ATOM     30  N   UNL     1       7.864   5.457  20.173  0.00  0.00    +0.000 NA
ATOM     31  N   UNL     1       6.670   4.914  19.761  0.00  0.00    +0.000 NA
ATOM     32  C   UNL     1       6.341   5.463  18.608  0.00  0.00    +0.000 A 
ENDBRANCH  26  32
ENDBRANCH  21  26
ENDBRANCH   1  21
TORSDOF 6
ENDMDL
MODEL 7
REMARK VINA RESULT:      -8.7      2.147      2.825
REMARK  Name = 
REMARK  7 active torsions:
REMARK  status: ('A' for Active; 'I' for Inactive)
REMARK    1  A    between atoms: C_1  and  N_2
REMARK    2  A    between atoms: C_6  and  C_7
REMARK    3  A    between atoms: C_7  and  C_8
REMARK    4  A    between atoms: C_8  and  C_9
REMARK    5  A    between atoms: C_8  and  C_29
REMARK    6  A    between atoms: C_13  and  N_14
REMARK    7  A    between atoms: C_21  and  C_22
REMARK                            x       y       z     vdW  Elec       q    Type
REMARK                         _______ _______ _______ _____ _____    ______ ____
ROOT
ATOM      1  C   UNL     1       4.202   5.206  18.362  0.00  0.00    +0.000 A 
ATOM      2  C   UNL     1       3.887   4.178  19.249  0.00  0.00    +0.000 A 
ATOM      3  C   UNL     1       2.828   4.335  20.157  0.00  0.00    +0.000 A 
ATOM      4  C   UNL     1       2.116   5.542  20.243  0.00  0.00    +0.000 A 
ATOM      5  C   UNL     1       2.488   6.619  19.448  0.00  0.00    +0.000 A 
ATOM      6  C   UNL     1       3.496   6.407  18.483  0.00  0.00    +0.000 A 
ENDROOT
BRANCH   5   7
ATOM      7  N   UNL     1       1.973   7.932  19.603  0.00  0.00    +0.000 N 
ATOM      8  C   UNL     1       1.370   8.284  20.874  0.00  0.00    +0.000 C 
ATOM      9  C   UNL     1       0.702   9.576  20.616  0.00  0.00    +0.000 A 
ATOM     10  C   UNL     1       0.987  10.006  19.322  0.00  0.00    +0.000 A 
ATOM     11  C   UNL     1       0.532  11.216  18.856  0.00  0.00    +0.000 A 
ATOM     12  C   UNL     1      -0.234  11.999  19.726  0.00  0.00    +0.000 A 
ATOM     13  C   UNL     1      -0.562  11.546  21.025  0.00  0.00    +0.000 A 
ATOM     14  C   UNL     1      -0.104  10.305  21.487  0.00  0.00    +0.000 A 
ATOM     15  C   UNL     1       1.771   8.934  18.652  0.00  0.00    +0.000 C 
ATOM     16  O   UNL     1       2.108   8.988  17.476  0.00  0.00    +0.000 OA
BRANCH  14  17
ATOM     17  C   UNL     1      -0.488   9.780  22.848  0.00  0.00    +0.000 C 
ATOM     18  F   UNL     1       0.569   9.613  23.693  0.00  0.00    +0.000 F 
ATOM     19  F   UNL     1      -1.353  10.598  23.505  0.00  0.00    +0.000 F 
ATOM     20  F   UNL     1      -1.092   8.561  22.781  0.00  0.00    +0.000 F 
ENDBRANCH  14  17
ENDBRANCH   5   7
BRANCH   1  21
ATOM     21  C   UNL     1       5.228   5.097  17.237  0.00  0.00    +0.000 C 
BRANCH  21  22
ATOM     22  C   UNL     1       4.881   4.085  16.137  0.00  0.00    +0.000 C 
ATOM     23  F   UNL     1       5.058   4.602  14.897  0.00  0.00    +0.000 F 
ATOM     24  F   UNL     1       5.688   2.997  16.222  0.00  0.00    +0.000 F 
ATOM     25  F   UNL     1       3.608   3.641  16.194  0.00  0.00    +0.000 F 
ENDBRANCH  21  22
BRANCH  21  26
ATOM     26  C   UNL     1       5.550   6.479  16.634  0.00  0.00    +0.000 C 
BRANCH  26  32
ATOM     27  C   UNL     1       7.725   5.130  18.462  0.00  0.00    +0.000 C 
ATOM     28  N   UNL     1       7.627   6.523  18.118  0.00  0.00    +0.000 N 
ATOM     29  C   UNL     1       8.407   7.519  18.623  0.00  0.00    +0.000 A 
ATOM     30  N   UNL     1       8.091   8.655  18.049  0.00  0.00    +0.000 NA
ATOM     31  N   UNL     1       7.047   8.410  17.191  0.00  0.00    +0.000 NA
ATOM     32  C   UNL     1       6.739   7.129  17.266  0.00  0.00    +0.000 A 
ENDBRANCH  26  32
ENDBRANCH  21  26
ENDBRANCH   1  21
TORSDOF 6
ENDMDL
MODEL 8
REMARK VINA RESULT:      -8.7      3.444      8.735
REMARK  Name = 
REMARK  7 active torsions:
REMARK  status: ('A' for Active; 'I' for Inactive)
REMARK    1  A    between atoms: C_1  and  N_2
REMARK    2  A    between atoms: C_6  and  C_7
REMARK    3  A    between atoms: C_7  and  C_8
REMARK    4  A    between atoms: C_8  and  C_9
REMARK    5  A    between atoms: C_8  and  C_29
REMARK    6  A    between atoms: C_13  and  N_14
REMARK    7  A    between atoms: C_21  and  C_22
REMARK                            x       y       z     vdW  Elec       q    Type
REMARK                         _______ _______ _______ _____ _____    ______ ____
ROOT
ATOM      1  C   UNL     1       0.363   9.985  19.574  0.00  0.00    +0.000 A 
ATOM      2  C   UNL     1       0.073  10.121  20.931  0.00  0.00    +0.000 A 
ATOM      3  C   UNL     1       0.670   9.261  21.866  0.00  0.00    +0.000 A 
ATOM      4  C   UNL     1       1.507   8.210  21.457  0.00  0.00    +0.000 A 
ATOM      5  C   UNL     1       1.718   7.985  20.102  0.00  0.00    +0.000 A 
ATOM      6  C   UNL     1       1.179   8.917  19.189  0.00  0.00    +0.000 A 
ENDROOT
BRANCH   5   7
ATOM      7  N   UNL     1       2.372   6.838  19.583  0.00  0.00    +0.000 N 
ATOM      8  C   UNL     1       3.382   7.030  18.561  0.00  0.00    +0.000 C 
ATOM      9  C   UNL     1       3.649   5.670  18.051  0.00  0.00    +0.000 A 
ATOM     10  C   UNL     1       2.932   4.736  18.796  0.00  0.00    +0.000 A 
ATOM     11  C   UNL     1       3.056   3.388  18.559  0.00  0.00    +0.000 A 
ATOM     12  C   UNL     1       3.924   2.986  17.537  0.00  0.00    +0.000 A 
ATOM     13  C   UNL     1       4.619   3.934  16.751  0.00  0.00    +0.000 A 
ATOM     14  C   UNL     1       4.478   5.306  16.992  0.00  0.00    +0.000 A 
ATOM     15  C   UNL     1       2.078   5.484  19.757  0.00  0.00    +0.000 C 
ATOM     16  O   UNL     1       1.274   4.938  20.501  0.00  0.00    +0.000 OA
BRANCH  14  17
ATOM     17  C   UNL     1       5.168   6.333  16.129  0.00  0.00    +0.000 C 
ATOM     18  F   UNL     1       4.328   7.279  15.619  0.00  0.00    +0.000 F 
ATOM     19  F   UNL     1       6.130   7.023  16.795  0.00  0.00    +0.000 F 
ATOM     20  F   UNL     1       5.778   5.774  15.047  0.00  0.00    +0.000 F 
ENDBRANCH  14  17
ENDBRANCH   5   7
BRANCH   1  21
ATOM     21  C   UNL     1      -0.106  10.947  18.486  0.00  0.00    +0.000 C 
BRANCH  21  22
ATOM     22  C   UNL     1      -1.417  10.556  17.793  0.00  0.00    +0.000 C 
ATOM     23  F   UNL     1      -2.385  10.232  18.683  0.00  0.00    +0.000 F 
ATOM     24  F   UNL     1      -1.895  11.595  17.061  0.00  0.00    +0.000 F 
ATOM     25  F   UNL     1      -1.292   9.505  16.956  0.00  0.00    +0.000 F 
ENDBRANCH  21  22
BRANCH  21  26
ATOM     26  C   UNL     1      -0.167  12.397  19.006  0.00  0.00    +0.000 C 
BRANCH  26  32
ATOM     27  C   UNL     1       0.287  15.503  19.181  0.00  0.00    +0.000 C 
ATOM     28  N   UNL     1       1.260  14.506  18.826  0.00  0.00    +0.000 N 
ATOM     29  C   UNL     1       2.527  14.756  18.394  0.00  0.00    +0.000 A 
ATOM     30  N   UNL     1       3.161  13.621  18.220  0.00  0.00    +0.000 NA
ATOM     31  N   UNL     1       2.276  12.605  18.490  0.00  0.00    +0.000 NA
ATOM     32  C   UNL     1       1.115  13.142  18.813  0.00  0.00    +0.000 A 
ENDBRANCH  26  32
ENDBRANCH  21  26
ENDBRANCH   1  21
TORSDOF 6
ENDMDL
MODEL 9
REMARK VINA RESULT:      -8.6      3.177      4.367
REMARK  Name = 
REMARK  7 active torsions:
REMARK  status: ('A' for Active; 'I' for Inactive)
REMARK    1  A    between atoms: C_1  and  N_2
REMARK    2  A    between atoms: C_6  and  C_7
REMARK    3  A    between atoms: C_7  and  C_8
REMARK    4  A    between atoms: C_8  and  C_9
REMARK    5  A    between atoms: C_8  and  C_29
REMARK    6  A    between atoms: C_13  and  N_14
REMARK    7  A    between atoms: C_21  and  C_22
REMARK                            x       y       z     vdW  Elec       q    Type
REMARK                         _______ _______ _______ _____ _____    ______ ____
ROOT
ATOM      1  C   UNL     1       3.002   6.135  19.059  0.00  0.00    +0.000 A 
ATOM      2  C   UNL     1       3.385   6.438  17.753  0.00  0.00    +0.000 A 
ATOM      3  C   UNL     1       3.128   7.713  17.225  0.00  0.00    +0.000 A 
ATOM      4  C   UNL     1       2.425   8.678  17.964  0.00  0.00    +0.000 A 
ATOM      5  C   UNL     1       1.935   8.359  19.224  0.00  0.00    +0.000 A 
ATOM      6  C   UNL     1       2.283   7.103  19.766  0.00  0.00    +0.000 A 
ENDROOT
BRANCH   5   7
ATOM      7  N   UNL     1       1.044   9.183  19.959  0.00  0.00    +0.000 N 
ATOM      8  C   UNL     1       0.558  10.395  19.329  0.00  0.00    +0.000 C 
ATOM      9  C   UNL     1      -0.093  11.141  20.425  0.00  0.00    +0.000 A 
ATOM     10  C   UNL     1      -0.088  10.373  21.588  0.00  0.00    +0.000 A 
ATOM     11  C   UNL     1      -0.691  10.819  22.740  0.00  0.00    +0.000 A 
ATOM     12  C   UNL     1      -1.305  12.077  22.705  0.00  0.00    +0.000 A 
ATOM     13  C   UNL     1      -1.272  12.877  21.539  0.00  0.00    +0.000 A 
ATOM     14  C   UNL     1      -0.645  12.419  20.374  0.00  0.00    +0.000 A 
ATOM     15  C   UNL     1       0.677   9.130  21.304  0.00  0.00    +0.000 C 
ATOM     16  O   UNL     1       0.919   8.285  22.158  0.00  0.00    +0.000 OA
BRANCH  14  17
ATOM     17  C   UNL     1      -0.552  13.280  19.139  0.00  0.00    +0.000 C 
ATOM     18  F   UNL     1      -1.263  12.800  18.078  0.00  0.00    +0.000 F 
ATOM     19  F   UNL     1      -1.009  14.544  19.340  0.00  0.00    +0.000 F 
ATOM     20  F   UNL     1       0.727  13.403  18.688  0.00  0.00    +0.000 F 
ENDBRANCH  14  17
ENDBRANCH   5   7
BRANCH   1  21
ATOM     21  C   UNL     1       3.357   4.842  19.789  0.00  0.00    +0.000 C 
BRANCH  21  22
ATOM     22  C   UNL     1       2.157   4.032  20.297  0.00  0.00    +0.000 C 
ATOM     23  F   UNL     1       2.440   2.711  20.395  0.00  0.00    +0.000 F 
ATOM     24  F   UNL     1       1.798   4.444  21.539  0.00  0.00    +0.000 F 
ATOM     25  F   UNL     1       1.064   4.137  19.513  0.00  0.00    +0.000 F 
ENDBRANCH  21  22
BRANCH  21  26
ATOM     26  C   UNL     1       4.300   3.961  18.946  0.00  0.00    +0.000 C 
BRANCH  26  32
ATOM     27  C   UNL     1       5.999   4.166  16.308  0.00  0.00    +0.000 C 
ATOM     28  N   UNL     1       6.405   4.558  17.631  0.00  0.00    +0.000 N 
ATOM     29  C   UNL     1       7.649   4.988  17.982  0.00  0.00    +0.000 A 
ATOM     30  N   UNL     1       7.654   5.321  19.250  0.00  0.00    +0.000 NA
ATOM     31  N   UNL     1       6.405   5.054  19.755  0.00  0.00    +0.000 NA
ATOM     32  C   UNL     1       5.664   4.552  18.785  0.00  0.00    +0.000 A 
ENDBRANCH  26  32
ENDBRANCH  21  26
ENDBRANCH   1  21
TORSDOF 6
ENDMDL
