MODEL 1
REMARK VINA RESULT:      -7.8      0.000      0.000
REMARK  Name = 
REMARK  7 active torsions:
REMARK  status: ('A' for Active; 'I' for Inactive)
REMARK    1  A    between atoms: C_1  and  C_2
REMARK    2  A    between atoms: C_2  and  S_3
REMARK    3  A    between atoms: C_2  and  C_10
REMARK    4  A    between atoms: S_3  and  C_4
REMARK    5  A    between atoms: N_8  and  C_9
REMARK    6  A    between atoms: C_16  and  C_18
REMARK    7  A    between atoms: C_22  and  C_23
REMARK                            x       y       z     vdW  Elec       q    Type
REMARK                         _______ _______ _______ _____ _____    ______ ____
ROOT
ATOM      1  C   UNL     1       6.426   6.301  17.281  0.00  0.00    +0.000 A 
ATOM      2  C   UNL     1       7.056   5.492  18.235  0.00  0.00    +0.000 A 
ATOM      3  C   UNL     1       8.020   6.046  19.053  0.00  0.00    +0.000 A 
ATOM      4  N   UNL     1       8.409   7.331  18.977  0.00  0.00    +0.000 NA
ATOM      5  C   UNL     1       7.839   8.116  18.046  0.00  0.00    +0.000 A 
ATOM      6  N   UNL     1       8.240   9.451  17.915  0.00  0.00    +0.000 N 
ATOM      7  C   UNL     1       9.148  10.093  18.739  0.00  0.00    +0.000 C 
ATOM      8  O   UNL     1       9.703   9.642  19.732  0.00  0.00    +0.000 OA
ATOM      9  C   UNL     1       6.853   7.637  17.184  0.00  0.00    +0.000 A 
ATOM     10  H   UNL     1       7.845  10.014  17.169  0.00  0.00    +0.000 HD
ENDROOT
BRANCH   7  11
ATOM     11  C   UNL     1       9.440  11.502  18.325  0.00  0.00    +0.000 A 
ATOM     12  C   UNL     1      10.552  11.765  17.539  0.00  0.00    +0.000 A 
ATOM     13  C   UNL     1      10.780  13.074  17.148  0.00  0.00    +0.000 A 
ATOM     14  C   UNL     1       9.890  14.066  17.553  0.00  0.00    +0.000 A 
ATOM     15  C   UNL     1       8.782  13.734  18.343  0.00  0.00    +0.000 A 
ATOM     16  N   UNL     1       8.558  12.454  18.742  0.00  0.00    +0.000 NA
BRANCH  15  17
ATOM     17  C   UNL     1       7.802  14.794  18.780  0.00  0.00    +0.000 C 
ATOM     18  C   UNL     1       7.697  16.110  18.043  0.00  0.00    +0.000 C 
ATOM     19  C   UNL     1       6.610  15.089  17.895  0.00  0.00    +0.000 C 
ENDBRANCH  15  17
ENDBRANCH   7  11
BRANCH   1  21
ATOM     20  C   UNL     1       3.941   5.565  17.068  0.00  0.00    +0.000 C 
ATOM     21  C   UNL     1       5.318   5.715  16.413  0.00  0.00    +0.000 C 
BRANCH  21  22
ATOM     22  S   UNL     1       5.822   4.122  15.631  0.00  0.00    +0.000 S 
BRANCH  22  23
ATOM     23  C   UNL     1       6.847   4.683  14.362  0.00  0.00    +0.000 A 
ATOM     24  N   UNL     1       7.851   5.522  14.484  0.00  0.00    +0.000 NA
ATOM     25  N   UNL     1       8.367   5.741  13.228  0.00  0.00    +0.000 NA
ATOM     26  C   UNL     1       7.670   5.017  12.382  0.00  0.00    +0.000 A 
ATOM     27  N   UNL     1       6.717   4.315  13.057  0.00  0.00    +0.000 N 
ATOM     28  C   UNL     1       5.783   3.388  12.478  0.00  0.00    +0.000 C 
ENDBRANCH  22  23
ENDBRANCH  21  22
ENDBRANCH   1  21
TORSDOF 5
ENDMDL
MODEL 2
REMARK VINA RESULT:      -7.7      2.866      9.056
REMARK  Name = 
REMARK  7 active torsions:
REMARK  status: ('A' for Active; 'I' for Inactive)
REMARK    1  A    between atoms: C_1  and  C_2
REMARK    2  A    between atoms: C_2  and  S_3
REMARK    3  A    between atoms: C_2  and  C_10
REMARK    4  A    between atoms: S_3  and  C_4
REMARK    5  A    between atoms: N_8  and  C_9
REMARK    6  A    between atoms: C_16  and  C_18
REMARK    7  A    between atoms: C_22  and  C_23
REMARK                            x       y       z     vdW  Elec       q    Type
REMARK                         _______ _______ _______ _____ _____    ______ ____
ROOT
ATOM      1  C   UNL     1       9.518  12.232  18.318  0.00  0.00    +0.000 A 
ATOM      2  C   UNL     1      10.177  11.905  19.510  0.00  0.00    +0.000 A 
ATOM      3  C   UNL     1      10.072  10.619  20.002  0.00  0.00    +0.000 A 
ATOM      4  N   UNL     1       9.352   9.653  19.407  0.00  0.00    +0.000 NA
ATOM      5  C   UNL     1       8.686   9.956  18.280  0.00  0.00    +0.000 A 
ATOM      6  N   UNL     1       7.900   8.985  17.648  0.00  0.00    +0.000 N 
ATOM      7  C   UNL     1       7.799   7.662  18.044  0.00  0.00    +0.000 C 
ATOM      8  O   UNL     1       8.404   7.107  18.951  0.00  0.00    +0.000 OA
ATOM      9  C   UNL     1       8.743  11.228  17.712  0.00  0.00    +0.000 A 
ATOM     10  H   UNL     1       7.355   9.244  16.833  0.00  0.00    +0.000 HD
ENDROOT
BRANCH   7  11
ATOM     11  C   UNL     1       6.833   6.863  17.225  0.00  0.00    +0.000 A 
ATOM     12  C   UNL     1       5.471   7.034  17.421  0.00  0.00    +0.000 A 
ATOM     13  C   UNL     1       4.601   6.304  16.628  0.00  0.00    +0.000 A 
ATOM     14  C   UNL     1       5.124   5.436  15.672  0.00  0.00    +0.000 A 
ATOM     15  C   UNL     1       6.510   5.312  15.521  0.00  0.00    +0.000 A 
ATOM     16  N   UNL     1       7.371   6.016  16.303  0.00  0.00    +0.000 NA
BRANCH  15  17
ATOM     17  C   UNL     1       7.093   4.386  14.483  0.00  0.00    +0.000 C 
ATOM     18  C   UNL     1       6.247   3.861  13.344  0.00  0.00    +0.000 C 
ATOM     19  C   UNL     1       7.287   4.906  13.075  0.00  0.00    +0.000 C 
ENDBRANCH  15  17
ENDBRANCH   7  11
BRANCH   1  21
ATOM     20  C   UNL     1      11.002  13.936  17.031  0.00  0.00    +0.000 C 
ATOM     21  C   UNL     1       9.675  13.631  17.733  0.00  0.00    +0.000 C 
BRANCH  21  22
ATOM     22  S   UNL     1       9.301  14.945  18.973  0.00  0.00    +0.000 S 
BRANCH  22  23
ATOM     23  C   UNL     1       7.577  14.979  18.914  0.00  0.00    +0.000 A 
ATOM     24  N   UNL     1       6.837  15.118  17.838  0.00  0.00    +0.000 NA
ATOM     25  N   UNL     1       5.521  15.144  18.237  0.00  0.00    +0.000 NA
ATOM     26  C   UNL     1       5.501  15.006  19.543  0.00  0.00    +0.000 A 
ATOM     27  N   UNL     1       6.774  14.874  20.010  0.00  0.00    +0.000 N 
ATOM     28  C   UNL     1       7.154  14.668  21.380  0.00  0.00    +0.000 C 
ENDBRANCH  22  23
ENDBRANCH  21  22
ENDBRANCH   1  21
TORSDOF 5
ENDMDL
MODEL 3
REMARK VINA RESULT:      -7.6      7.015     10.036
REMARK  Name = 
REMARK  7 active torsions:
REMARK  status: ('A' for Active; 'I' for Inactive)
REMARK    1  A    between atoms: C_1  and  C_2
REMARK    2  A    between atoms: C_2  and  S_3
REMARK    3  A    between atoms: C_2  and  C_10
REMARK    4  A    between atoms: S_3  and  C_4
REMARK    5  A    between atoms: N_8  and  C_9
REMARK    6  A    between atoms: C_16  and  C_18
REMARK    7  A    between atoms: C_22  and  C_23
REMARK                            x       y       z     vdW  Elec       q    Type
REMARK                         _______ _______ _______ _____ _____    ______ ____
ROOT
ATOM      1  C   UNL     1       0.377  10.437  20.015  0.00  0.00    +0.000 A 
ATOM      2  C   UNL     1      -0.239   9.964  21.181  0.00  0.00    +0.000 A 
ATOM      3  C   UNL     1       0.061   8.693  21.628  0.00  0.00    +0.000 A 
ATOM      4  N   UNL     1       0.908   7.863  20.994  0.00  0.00    +0.000 NA
ATOM      5  C   UNL     1       1.484   8.287  19.856  0.00  0.00    +0.000 A 
ATOM      6  N   UNL     1       2.347   7.440  19.151  0.00  0.00    +0.000 N 
ATOM      7  C   UNL     1       2.746   6.182  19.570  0.00  0.00    +0.000 C 
ATOM      8  O   UNL     1       2.472   5.626  20.625  0.00  0.00    +0.000 OA
ATOM      9  C   UNL     1       1.240   9.558  19.338  0.00  0.00    +0.000 A 
ATOM     10  H   UNL     1       2.727   7.750  18.262  0.00  0.00    +0.000 HD
ENDROOT
BRANCH   7  11
ATOM     11  C   UNL     1       3.621   5.472  18.584  0.00  0.00    +0.000 A 
ATOM     12  C   UNL     1       3.113   4.391  17.879  0.00  0.00    +0.000 A 
ATOM     13  C   UNL     1       3.937   3.771  16.953  0.00  0.00    +0.000 A 
ATOM     14  C   UNL     1       5.229   4.256  16.766  0.00  0.00    +0.000 A 
ATOM     15  C   UNL     1       5.680   5.355  17.506  0.00  0.00    +0.000 A 
ATOM     16  N   UNL     1       4.883   5.961  18.426  0.00  0.00    +0.000 NA
BRANCH  15  17
ATOM     17  C   UNL     1       7.072   5.901  17.307  0.00  0.00    +0.000 C 
ATOM     18  C   UNL     1       7.377   7.363  17.543  0.00  0.00    +0.000 C 
ATOM     19  C   UNL     1       7.862   6.337  18.522  0.00  0.00    +0.000 C 
ENDBRANCH  15  17
ENDBRANCH   7  11
BRANCH   1  21
ATOM     20  C   UNL     1       1.091  12.937  19.994  0.00  0.00    +0.000 C 
ATOM     21  C   UNL     1       0.099  11.861  19.544  0.00  0.00    +0.000 C 
BRANCH  21  22
ATOM     22  S   UNL     1      -1.625  12.391  19.927  0.00  0.00    +0.000 S 
BRANCH  22  23
ATOM     23  C   UNL     1      -2.464  11.842  18.522  0.00  0.00    +0.000 A 
ATOM     24  N   UNL     1      -1.918  11.399  17.413  0.00  0.00    +0.000 NA
ATOM     25  N   UNL     1      -2.935  11.115  16.531  0.00  0.00    +0.000 NA
ATOM     26  C   UNL     1      -4.070  11.381  17.138  0.00  0.00    +0.000 A 
ATOM     27  N   UNL     1      -3.821  11.819  18.404  0.00  0.00    +0.000 N 
ATOM     28  C   UNL     1      -4.810  12.175  19.383  0.00  0.00    +0.000 C 
ENDBRANCH  22  23
ENDBRANCH  21  22
ENDBRANCH   1  21
TORSDOF 5
ENDMDL
MODEL 4
REMARK VINA RESULT:      -7.6      5.549     10.151
REMARK  Name = 
REMARK  7 active torsions:
REMARK  status: ('A' for Active; 'I' for Inactive)
REMARK    1  A    between atoms: C_1  and  C_2
REMARK    2  A    between atoms: C_2  and  S_3
REMARK    3  A    between atoms: C_2  and  C_10
REMARK    4  A    between atoms: S_3  and  C_4
REMARK    5  A    between atoms: N_8  and  C_9
REMARK    6  A    between atoms: C_16  and  C_18
REMARK    7  A    between atoms: C_22  and  C_23
REMARK                            x       y       z     vdW  Elec       q    Type
REMARK                         _______ _______ _______ _____ _____    ______ ____
ROOT
ATOM      1  C   UNL     1       0.576  10.727  20.038  0.00  0.00    +0.000 A 
ATOM      2  C   UNL     1       0.044  10.383  21.287  0.00  0.00    +0.000 A 
ATOM      3  C   UNL     1       0.265   9.113  21.783  0.00  0.00    +0.000 A 
ATOM      4  N   UNL     1       0.956   8.168  21.121  0.00  0.00    +0.000 NA
ATOM      5  C   UNL     1       1.447   8.469  19.907  0.00  0.00    +0.000 A 
ATOM      6  N   UNL     1       2.145   7.501  19.174  0.00  0.00    +0.000 N 
ATOM      7  C   UNL     1       2.462   6.234  19.631  0.00  0.00    +0.000 C 
ATOM      8  O   UNL     1       2.249   5.766  20.741  0.00  0.00    +0.000 OA
ATOM      9  C   UNL     1       1.274   9.729  19.336  0.00  0.00    +0.000 A 
ATOM     10  H   UNL     1       2.457   7.723  18.235  0.00  0.00    +0.000 HD
ENDROOT
BRANCH   7  11
ATOM     11  C   UNL     1       3.156   5.385  18.610  0.00  0.00    +0.000 A 
ATOM     12  C   UNL     1       2.467   4.339  18.014  0.00  0.00    +0.000 A 
ATOM     13  C   UNL     1       3.125   3.590  17.052  0.00  0.00    +0.000 A 
ATOM     14  C   UNL     1       4.438   3.916  16.722  0.00  0.00    +0.000 A 
ATOM     15  C   UNL     1       5.076   4.987  17.358  0.00  0.00    +0.000 A 
ATOM     16  N   UNL     1       4.442   5.720  18.312  0.00  0.00    +0.000 NA
BRANCH  15  17
ATOM     17  C   UNL     1       6.494   5.362  17.004  0.00  0.00    +0.000 C 
ATOM     18  C   UNL     1       7.359   6.138  17.971  0.00  0.00    +0.000 C 
ATOM     19  C   UNL     1       7.629   4.682  17.739  0.00  0.00    +0.000 C 
ENDBRANCH  15  17
ENDBRANCH   7  11
BRANCH   1  21
ATOM     20  C   UNL     1      -0.750  12.357  18.508  0.00  0.00    +0.000 C 
ATOM     21  C   UNL     1       0.390  12.145  19.508  0.00  0.00    +0.000 C 
BRANCH  21  22
ATOM     22  S   UNL     1       1.958  12.844  18.836  0.00  0.00    +0.000 S 
BRANCH  22  23
ATOM     23  C   UNL     1       2.485  13.817  20.160  0.00  0.00    +0.000 A 
ATOM     24  N   UNL     1       2.599  13.435  21.411  0.00  0.00    +0.000 NA
ATOM     25  N   UNL     1       2.998  14.526  22.147  0.00  0.00    +0.000 NA
ATOM     26  C   UNL     1       3.128  15.536  21.317  0.00  0.00    +0.000 A 
ATOM     27  N   UNL     1       2.838  15.128  20.050  0.00  0.00    +0.000 N 
ATOM     28  C   UNL     1       2.902  15.941  18.866  0.00  0.00    +0.000 C 
ENDBRANCH  22  23
ENDBRANCH  21  22
ENDBRANCH   1  21
TORSDOF 5
ENDMDL
MODEL 5
REMARK VINA RESULT:      -7.6      5.698      6.959
REMARK  Name = 
REMARK  7 active torsions:
REMARK  status: ('A' for Active; 'I' for Inactive)
REMARK    1  A    between atoms: C_1  and  C_2
REMARK    2  A    between atoms: C_2  and  S_3
REMARK    3  A    between atoms: C_2  and  C_10
REMARK    4  A    between atoms: S_3  and  C_4
REMARK    5  A    between atoms: N_8  and  C_9
REMARK    6  A    between atoms: C_16  and  C_18
REMARK    7  A    between atoms: C_22  and  C_23
REMARK                            x       y       z     vdW  Elec       q    Type
REMARK                         _______ _______ _______ _____ _____    ______ ____
ROOT
ATOM      1  C   UNL     1       4.595   5.780  17.615  0.00  0.00    +0.000 A 
ATOM      2  C   UNL     1       4.651   4.597  18.362  0.00  0.00    +0.000 A 
ATOM      3  C   UNL     1       3.848   4.470  19.478  0.00  0.00    +0.000 A 
ATOM      4  N   UNL     1       3.016   5.435  19.907  0.00  0.00    +0.000 NA
ATOM      5  C   UNL     1       2.972   6.591  19.223  0.00  0.00    +0.000 A 
ATOM      6  N   UNL     1       2.142   7.631  19.657  0.00  0.00    +0.000 N 
ATOM      7  C   UNL     1       1.263   7.554  20.724  0.00  0.00    +0.000 C 
ATOM      8  O   UNL     1       1.018   6.578  21.419  0.00  0.00    +0.000 OA
ATOM      9  C   UNL     1       3.746   6.799  18.082  0.00  0.00    +0.000 A 
ATOM     10  H   UNL     1       2.164   8.519  19.167  0.00  0.00    +0.000 HD
ENDROOT
BRANCH   7  11
ATOM     11  C   UNL     1       0.549   8.840  21.005  0.00  0.00    +0.000 A 
ATOM     12  C   UNL     1       0.380   9.251  22.319  0.00  0.00    +0.000 A 
ATOM     13  C   UNL     1      -0.258  10.459  22.548  0.00  0.00    +0.000 A 
ATOM     14  C   UNL     1      -0.699  11.208  21.459  0.00  0.00    +0.000 A 
ATOM     15  C   UNL     1      -0.494  10.739  20.156  0.00  0.00    +0.000 A 
ATOM     16  N   UNL     1       0.121   9.549  19.923  0.00  0.00    +0.000 NA
BRANCH  15  17
ATOM     17  C   UNL     1      -0.954  11.543  18.966  0.00  0.00    +0.000 C 
ATOM     18  C   UNL     1      -1.705  10.890  17.827  0.00  0.00    +0.000 C 
ATOM     19  C   UNL     1      -2.436  11.785  18.782  0.00  0.00    +0.000 C 
ENDBRANCH  15  17
ENDBRANCH   7  11
BRANCH   1  21
ATOM     20  C   UNL     1       4.899   6.851  15.266  0.00  0.00    +0.000 C 
ATOM     21  C   UNL     1       5.433   5.908  16.348  0.00  0.00    +0.000 C 
BRANCH  21  22
ATOM     22  S   UNL     1       5.830   4.264  15.613  0.00  0.00    +0.000 S 
BRANCH  22  23
ATOM     23  C   UNL     1       6.869   4.721  14.312  0.00  0.00    +0.000 A 
ATOM     24  N   UNL     1       7.905   5.524  14.389  0.00  0.00    +0.000 NA
ATOM     25  N   UNL     1       8.421   5.661  13.121  0.00  0.00    +0.000 NA
ATOM     26  C   UNL     1       7.691   4.924  12.315  0.00  0.00    +0.000 A 
ATOM     27  N   UNL     1       6.715   4.295  13.028  0.00  0.00    +0.000 N 
ATOM     28  C   UNL     1       5.743   3.378  12.499  0.00  0.00    +0.000 C 
ENDBRANCH  22  23
ENDBRANCH  21  22
ENDBRANCH   1  21
TORSDOF 5
ENDMDL
MODEL 6
REMARK VINA RESULT:      -7.6      4.853      6.600
REMARK  Name = 
REMARK  7 active torsions:
REMARK  status: ('A' for Active; 'I' for Inactive)
REMARK    1  A    between atoms: C_1  and  C_2
REMARK    2  A    between atoms: C_2  and  S_3
REMARK    3  A    between atoms: C_2  and  C_10
REMARK    4  A    between atoms: S_3  and  C_4
REMARK    5  A    between atoms: N_8  and  C_9
REMARK    6  A    between atoms: C_16  and  C_18
REMARK    7  A    between atoms: C_22  and  C_23
REMARK                            x       y       z     vdW  Elec       q    Type
REMARK                         _______ _______ _______ _____ _____    ______ ____
ROOT
ATOM      1  C   UNL     1       3.020   5.625  18.593  0.00  0.00    +0.000 A 
ATOM      2  C   UNL     1       2.723   5.072  19.845  0.00  0.00    +0.000 A 
ATOM      3  C   UNL     1       2.024   5.830  20.763  0.00  0.00    +0.000 A 
ATOM      4  N   UNL     1       1.620   7.091  20.532  0.00  0.00    +0.000 NA
ATOM      5  C   UNL     1       1.924   7.651  19.349  0.00  0.00    +0.000 A 
ATOM      6  N   UNL     1       1.548   8.973  19.082  0.00  0.00    +0.000 N 
ATOM      7  C   UNL     1       0.791   9.770  19.924  0.00  0.00    +0.000 C 
ATOM      8  O   UNL     1       0.282   9.454  20.991  0.00  0.00    +0.000 OA
ATOM      9  C   UNL     1       2.621   6.954  18.363  0.00  0.00    +0.000 A 
ATOM     10  H   UNL     1       1.836   9.402  18.209  0.00  0.00    +0.000 HD
ENDROOT
BRANCH   7  11
ATOM     11  C   UNL     1       0.596  11.164  19.415  0.00  0.00    +0.000 A 
ATOM     12  C   UNL     1      -0.674  11.721  19.423  0.00  0.00    +0.000 A 
ATOM     13  C   UNL     1      -0.819  13.023  18.974  0.00  0.00    +0.000 A 
ATOM     14  C   UNL     1       0.307  13.717  18.537  0.00  0.00    +0.000 A 
ATOM     15  C   UNL     1       1.563  13.099  18.557  0.00  0.00    +0.000 A 
ATOM     16  N   UNL     1       1.713  11.818  18.986  0.00  0.00    +0.000 NA
BRANCH  15  17
ATOM     17  C   UNL     1       2.795  13.841  18.100  0.00  0.00    +0.000 C 
ATOM     18  C   UNL     1       2.843  15.352  18.111  0.00  0.00    +0.000 C 
ATOM     19  C   UNL     1       3.623  14.577  19.130  0.00  0.00    +0.000 C 
ENDBRANCH  15  17
ENDBRANCH   7  11
BRANCH   1  21
ATOM     20  C   UNL     1       3.004   3.526  17.059  0.00  0.00    +0.000 C 
ATOM     21  C   UNL     1       3.738   4.777  17.549  0.00  0.00    +0.000 C 
BRANCH  21  22
ATOM     22  S   UNL     1       5.451   4.340  18.074  0.00  0.00    +0.000 S 
BRANCH  22  23
ATOM     23  C   UNL     1       6.288   5.813  17.745  0.00  0.00    +0.000 A 
ATOM     24  N   UNL     1       6.015   6.667  16.786  0.00  0.00    +0.000 NA
ATOM     25  N   UNL     1       6.950   7.674  16.843  0.00  0.00    +0.000 NA
ATOM     26  C   UNL     1       7.756   7.407  17.847  0.00  0.00    +0.000 A 
ATOM     27  N   UNL     1       7.361   6.256  18.458  0.00  0.00    +0.000 N 
ATOM     28  C   UNL     1       7.974   5.661  19.614  0.00  0.00    +0.000 C 
ENDBRANCH  22  23
ENDBRANCH  21  22
ENDBRANCH   1  21
TORSDOF 5
ENDMDL
MODEL 7
REMARK VINA RESULT:      -7.5      7.671     11.837
REMARK  Name = 
REMARK  7 active torsions:
REMARK  status: ('A' for Active; 'I' for Inactive)
REMARK    1  A    between atoms: C_1  and  C_2
REMARK    2  A    between atoms: C_2  and  S_3
REMARK    3  A    between atoms: C_2  and  C_10
REMARK    4  A    between atoms: S_3  and  C_4
REMARK    5  A    between atoms: N_8  and  C_9
REMARK    6  A    between atoms: C_16  and  C_18
REMARK    7  A    between atoms: C_22  and  C_23
REMARK                            x       y       z     vdW  Elec       q    Type
REMARK                         _______ _______ _______ _____ _____    ______ ____
ROOT
ATOM      1  C   UNL     1       0.123  10.937  21.246  0.00  0.00    +0.000 A 
ATOM      2  C   UNL     1       0.177  11.993  20.328  0.00  0.00    +0.000 A 
ATOM      3  C   UNL     1       0.764  11.781  19.096  0.00  0.00    +0.000 A 
ATOM      4  N   UNL     1       1.310  10.610  18.726  0.00  0.00    +0.000 NA
ATOM      5  C   UNL     1       1.298   9.594  19.605  0.00  0.00    +0.000 A 
ATOM      6  N   UNL     1       1.885   8.368  19.268  0.00  0.00    +0.000 N 
ATOM      7  C   UNL     1       2.431   8.061  18.033  0.00  0.00    +0.000 C 
ATOM      8  O   UNL     1       2.446   8.761  17.030  0.00  0.00    +0.000 OA
ATOM      9  C   UNL     1       0.720   9.721  20.867  0.00  0.00    +0.000 A 
ATOM     10  H   UNL     1       1.922   7.630  19.963  0.00  0.00    +0.000 HD
ENDROOT
BRANCH   7  11
ATOM     11  C   UNL     1       3.050   6.699  17.974  0.00  0.00    +0.000 A 
ATOM     12  C   UNL     1       4.214   6.511  17.243  0.00  0.00    +0.000 A 
ATOM     13  C   UNL     1       4.780   5.247  17.231  0.00  0.00    +0.000 A 
ATOM     14  C   UNL     1       4.165   4.224  17.949  0.00  0.00    +0.000 A 
ATOM     15  C   UNL     1       2.993   4.479  18.670  0.00  0.00    +0.000 A 
ATOM     16  N   UNL     1       2.424   5.714  18.678  0.00  0.00    +0.000 NA
BRANCH  15  17
ATOM     17  C   UNL     1       2.321   3.386  19.463  0.00  0.00    +0.000 C 
ATOM     18  C   UNL     1       0.916   3.560  19.995  0.00  0.00    +0.000 C 
ATOM     19  C   UNL     1       1.162   2.642  18.836  0.00  0.00    +0.000 C 
ENDBRANCH  15  17
ENDBRANCH   7  11
BRANCH   1  21
ATOM     20  C   UNL     1      -0.847   9.884  23.416  0.00  0.00    +0.000 C 
ATOM     21  C   UNL     1      -0.575  11.142  22.586  0.00  0.00    +0.000 C 
BRANCH  21  22
ATOM     22  S   UNL     1      -2.121  12.132  22.415  0.00  0.00    +0.000 S 
BRANCH  22  23
ATOM     23  C   UNL     1      -1.684  13.581  23.244  0.00  0.00    +0.000 A 
ATOM     24  N   UNL     1      -0.516  14.180  23.202  0.00  0.00    +0.000 NA
ATOM     25  N   UNL     1      -0.574  15.268  24.042  0.00  0.00    +0.000 NA
ATOM     26  C   UNL     1      -1.782  15.305  24.558  0.00  0.00    +0.000 A 
ATOM     27  N   UNL     1      -2.523  14.274  24.064  0.00  0.00    +0.000 N 
ATOM     28  C   UNL     1      -3.901  14.004  24.368  0.00  0.00    +0.000 C 
ENDBRANCH  22  23
ENDBRANCH  21  22
ENDBRANCH   1  21
TORSDOF 5
ENDMDL
MODEL 8
REMARK VINA RESULT:      -7.5      5.082      6.507
REMARK  Name = 
REMARK  7 active torsions:
REMARK  status: ('A' for Active; 'I' for Inactive)
REMARK    1  A    between atoms: C_1  and  C_2
REMARK    2  A    between atoms: C_2  and  S_3
REMARK    3  A    between atoms: C_2  and  C_10
REMARK    4  A    between atoms: S_3  and  C_4
REMARK    5  A    between atoms: N_8  and  C_9
REMARK    6  A    between atoms: C_16  and  C_18
REMARK    7  A    between atoms: C_22  and  C_23
REMARK                            x       y       z     vdW  Elec       q    Type
REMARK                         _______ _______ _______ _____ _____    ______ ____
ROOT
ATOM      1  C   UNL     1       4.402   5.781  17.644  0.00  0.00    +0.000 A 
ATOM      2  C   UNL     1       4.260   4.537  18.273  0.00  0.00    +0.000 A 
ATOM      3  C   UNL     1       3.395   4.421  19.342  0.00  0.00    +0.000 A 
ATOM      4  N   UNL     1       2.682   5.449  19.834  0.00  0.00    +0.000 NA
ATOM      5  C   UNL     1       2.828   6.658  19.266  0.00  0.00    +0.000 A 
ATOM      6  N   UNL     1       2.127   7.759  19.771  0.00  0.00    +0.000 N 
ATOM      7  C   UNL     1       1.195   7.708  20.793  0.00  0.00    +0.000 C 
ATOM      8  O   UNL     1       0.786   6.716  21.380  0.00  0.00    +0.000 OA
ATOM      9  C   UNL     1       3.677   6.860  18.179  0.00  0.00    +0.000 A 
ATOM     10  H   UNL     1       2.294   8.677  19.371  0.00  0.00    +0.000 HD
ENDROOT
BRANCH   7  11
ATOM     11  C   UNL     1       0.649   9.049  21.174  0.00  0.00    +0.000 A 
ATOM     12  C   UNL     1      -0.043   9.188  22.368  0.00  0.00    +0.000 A 
ATOM     13  C   UNL     1      -0.511  10.447  22.708  0.00  0.00    +0.000 A 
ATOM     14  C   UNL     1      -0.267  11.514  21.847  0.00  0.00    +0.000 A 
ATOM     15  C   UNL     1       0.443  11.309  20.658  0.00  0.00    +0.000 A 
ATOM     16  N   UNL     1       0.895  10.075  20.310  0.00  0.00    +0.000 NA
BRANCH  15  17
ATOM     17  C   UNL     1       0.726  12.456  19.721  0.00  0.00    +0.000 C 
ATOM     18  C   UNL     1       0.887  13.867  20.242  0.00  0.00    +0.000 C 
ATOM     19  C   UNL     1       2.090  13.110  19.766  0.00  0.00    +0.000 C 
ENDBRANCH  15  17
ENDBRANCH   7  11
BRANCH   1  21
ATOM     20  C   UNL     1       4.861   6.884  15.335  0.00  0.00    +0.000 C 
ATOM     21  C   UNL     1       5.310   5.907  16.426  0.00  0.00    +0.000 C 
BRANCH  21  22
ATOM     22  S   UNL     1       5.700   4.265  15.681  0.00  0.00    +0.000 S 
BRANCH  22  23
ATOM     23  C   UNL     1       6.787   4.719  14.420  0.00  0.00    +0.000 A 
ATOM     24  N   UNL     1       7.833   5.505  14.539  0.00  0.00    +0.000 NA
ATOM     25  N   UNL     1       8.392   5.647  13.291  0.00  0.00    +0.000 NA
ATOM     26  C   UNL     1       7.677   4.931  12.453  0.00  0.00    +0.000 A 
ATOM     27  N   UNL     1       6.669   4.309  13.127  0.00  0.00    +0.000 N 
ATOM     28  C   UNL     1       5.699   3.414  12.557  0.00  0.00    +0.000 C 
ENDBRANCH  22  23
ENDBRANCH  21  22
ENDBRANCH   1  21
TORSDOF 5
ENDMDL
MODEL 9
REMARK VINA RESULT:      -7.5      4.668      6.744
REMARK  Name = 
REMARK  7 active torsions:
REMARK  status: ('A' for Active; 'I' for Inactive)
REMARK    1  A    between atoms: C_1  and  C_2
REMARK    2  A    between atoms: C_2  and  S_3
REMARK    3  A    between atoms: C_2  and  C_10
REMARK    4  A    between atoms: S_3  and  C_4
REMARK    5  A    between atoms: N_8  and  C_9
REMARK    6  A    between atoms: C_16  and  C_18
REMARK    7  A    between atoms: C_22  and  C_23
REMARK                            x       y       z     vdW  Elec       q    Type
REMARK                         _______ _______ _______ _____ _____    ______ ____
ROOT
ATOM      1  C   UNL     1       4.770   4.993  16.680  0.00  0.00    +0.000 A 
ATOM      2  C   UNL     1       4.635   3.743  17.296  0.00  0.00    +0.000 A 
ATOM      3  C   UNL     1       3.841   3.632  18.420  0.00  0.00    +0.000 A 
ATOM      4  N   UNL     1       3.192   4.670  18.975  0.00  0.00    +0.000 NA
ATOM      5  C   UNL     1       3.335   5.884  18.418  0.00  0.00    +0.000 A 
ATOM      6  N   UNL     1       2.700   6.995  18.986  0.00  0.00    +0.000 N 
ATOM      7  C   UNL     1       1.838   6.952  20.068  0.00  0.00    +0.000 C 
ATOM      8  O   UNL     1       1.442   5.961  20.666  0.00  0.00    +0.000 OA
ATOM      9  C   UNL     1       4.114   6.082  17.279  0.00  0.00    +0.000 A 
ATOM     10  H   UNL     1       2.866   7.915  18.590  0.00  0.00    +0.000 HD
ENDROOT
BRANCH   7  11
ATOM     11  C   UNL     1       1.357   8.301  20.506  0.00  0.00    +0.000 A 
ATOM     12  C   UNL     1       1.041   8.510  21.840  0.00  0.00    +0.000 A 
ATOM     13  C   UNL     1       0.628   9.776  22.221  0.00  0.00    +0.000 A 
ATOM     14  C   UNL     1       0.550  10.780  21.260  0.00  0.00    +0.000 A 
ATOM     15  C   UNL     1       0.887  10.505  19.929  0.00  0.00    +0.000 A 
ATOM     16  N   UNL     1       1.282   9.263  19.544  0.00  0.00    +0.000 NA
BRANCH  15  17
ATOM     17  C   UNL     1       0.820  11.584  18.877  0.00  0.00    +0.000 C 
ATOM     18  C   UNL     1       1.026  13.039  19.239  0.00  0.00    +0.000 C 
ATOM     19  C   UNL     1       2.096  12.301  18.491  0.00  0.00    +0.000 C 
ENDBRANCH  15  17
ENDBRANCH   7  11
BRANCH   1  21
ATOM     20  C   UNL     1       5.104   4.325  14.189  0.00  0.00    +0.000 C 
ATOM     21  C   UNL     1       5.597   5.115  15.405  0.00  0.00    +0.000 C 
BRANCH  21  22
ATOM     22  S   UNL     1       7.383   4.766  15.703  0.00  0.00    +0.000 S 
BRANCH  22  23
ATOM     23  C   UNL     1       7.535   5.198  17.367  0.00  0.00    +0.000 A 
ATOM     24  N   UNL     1       7.637   4.368  18.380  0.00  0.00    +0.000 NA
ATOM     25  N   UNL     1       7.685   5.120  19.532  0.00  0.00    +0.000 NA
ATOM     26  C   UNL     1       7.627   6.384  19.181  0.00  0.00    +0.000 A 
ATOM     27  N   UNL     1       7.556   6.481  17.824  0.00  0.00    +0.000 N 
ATOM     28  C   UNL     1       7.512   7.701  17.065  0.00  0.00    +0.000 C 
ENDBRANCH  22  23
ENDBRANCH  21  22
ENDBRANCH   1  21
TORSDOF 5
ENDMDL
