MODEL 1
REMARK VINA RESULT:      -8.3      0.000      0.000
REMARK  Name = 
REMARK  6 active torsions:
REMARK  status: ('A' for Active; 'I' for Inactive)
REMARK    1  A    between atoms: C_1  and  C_2
REMARK    2  A    between atoms: C_2  and  S_3
REMARK    3  A    between atoms: C_2  and  C_10
REMARK    4  A    between atoms: S_3  and  C_4
REMARK    5  A    between atoms: N_8  and  C_9
REMARK    6  A    between atoms: C_14  and  N_15
REMARK                            x       y       z     vdW  Elec       q    Type
REMARK                         _______ _______ _______ _____ _____    ______ ____
ROOT
ATOM      1  C   UNL     1       4.215   5.831  17.413  0.00  0.00    +0.000 A 
ATOM      2  C   UNL     1       3.717   4.560  17.699  0.00  0.00    +0.000 A 
ATOM      3  C   UNL     1       2.625   4.391  18.556  0.00  0.00    +0.000 A 
ATOM      4  C   UNL     1       1.999   5.495  19.147  0.00  0.00    +0.000 A 
ATOM      5  C   UNL     1       2.449   6.778  18.860  0.00  0.00    +0.000 A 
ATOM      6  C   UNL     1       3.573   6.915  18.032  0.00  0.00    +0.000 A 
ENDROOT
BRANCH   5   7
ATOM      7  N   UNL     1       1.798   7.950  19.306  0.00  0.00    +0.000 N 
ATOM      8  C   UNL     1       1.413   8.082  20.707  0.00  0.00    +0.000 C 
ATOM      9  C   UNL     1       0.837   9.426  20.777  0.00  0.00    +0.000 A 
ATOM     10  C   UNL     1       0.894  10.051  19.542  0.00  0.00    +0.000 A 
ATOM     11  C   UNL     1       0.357  11.301  19.348  0.00  0.00    +0.000 A 
ATOM     12  C   UNL     1      -0.226  11.881  20.464  0.00  0.00    +0.000 A 
ATOM     13  N   UNL     1      -0.274  11.307  21.697  0.00  0.00    +0.000 NA
ATOM     14  C   UNL     1       0.267  10.083  21.826  0.00  0.00    +0.000 A 
ATOM     15 CL   UNL     1       0.181   9.391  23.390  0.00  0.00    +0.000 Cl
ATOM     16  C   UNL     1       1.559   9.132  18.601  0.00  0.00    +0.000 C 
ATOM     17  O   UNL     1       1.834   9.448  17.454  0.00  0.00    +0.000 OA
ENDBRANCH   5   7
BRANCH   1  19
ATOM     18  C   UNL     1       4.969   7.052  15.291  0.00  0.00    +0.000 C 
ATOM     19  C   UNL     1       5.347   6.053  16.404  0.00  0.00    +0.000 C 
BRANCH  19  20
ATOM     20  S   UNL     1       5.782   4.406  15.700  0.00  0.00    +0.000 S 
BRANCH  20  21
ATOM     21  C   UNL     1       6.836   4.770  14.391  0.00  0.00    +0.000 A 
ATOM     22  N   UNL     1       7.908   5.529  14.397  0.00  0.00    +0.000 NA
ATOM     23  N   UNL     1       8.366   5.602  13.096  0.00  0.00    +0.000 NA
ATOM     24  C   UNL     1       7.575   4.859  12.350  0.00  0.00    +0.000 A 
ATOM     25  N   UNL     1       6.625   4.286  13.131  0.00  0.00    +0.000 N 
ATOM     26  C   UNL     1       5.614   3.365  12.691  0.00  0.00    +0.000 C 
ENDBRANCH  20  21
ENDBRANCH  19  20
ENDBRANCH   1  19
TORSDOF 4
ENDMDL
MODEL 2
REMARK VINA RESULT:      -8.1      1.998      2.894
REMARK  Name = 
REMARK  6 active torsions:
REMARK  status: ('A' for Active; 'I' for Inactive)
REMARK    1  A    between atoms: C_1  and  C_2
REMARK    2  A    between atoms: C_2  and  S_3
REMARK    3  A    between atoms: C_2  and  C_10
REMARK    4  A    between atoms: S_3  and  C_4
REMARK    5  A    between atoms: N_8  and  C_9
REMARK    6  A    between atoms: C_14  and  N_15
REMARK                            x       y       z     vdW  Elec       q    Type
REMARK                         _______ _______ _______ _____ _____    ______ ____
ROOT
ATOM      1  C   UNL     1       3.981   4.975  17.178  0.00  0.00    +0.000 A 
ATOM      2  C   UNL     1       3.285   3.803  17.474  0.00  0.00    +0.000 A 
ATOM      3  C   UNL     1       2.178   3.820  18.329  0.00  0.00    +0.000 A 
ATOM      4  C   UNL     1       1.736   5.017  18.905  0.00  0.00    +0.000 A 
ATOM      5  C   UNL     1       2.387   6.208  18.607  0.00  0.00    +0.000 A 
ATOM      6  C   UNL     1       3.520   6.154  17.783  0.00  0.00    +0.000 A 
ENDROOT
BRANCH   5   7
ATOM      7  N   UNL     1       1.931   7.473  19.039  0.00  0.00    +0.000 N 
ATOM      8  C   UNL     1       1.601   7.690  20.443  0.00  0.00    +0.000 C 
ATOM      9  C   UNL     1       1.237   9.106  20.494  0.00  0.00    +0.000 A 
ATOM     10  C   UNL     1       1.362   9.692  19.244  0.00  0.00    +0.000 A 
ATOM     11  C   UNL     1       1.018  11.005  19.032  0.00  0.00    +0.000 A 
ATOM     12  C   UNL     1       0.553  11.689  20.145  0.00  0.00    +0.000 A 
ATOM     13  N   UNL     1       0.445  11.152  21.391  0.00  0.00    +0.000 NA
ATOM     14  C   UNL     1       0.795   9.864  21.538  0.00  0.00    +0.000 A 
ATOM     15 CL   UNL     1       0.639   9.223  23.118  0.00  0.00    +0.000 Cl
ATOM     16  C   UNL     1       1.860   8.664  18.312  0.00  0.00    +0.000 C 
ATOM     17  O   UNL     1       2.154   8.912  17.153  0.00  0.00    +0.000 OA
ENDBRANCH   5   7
BRANCH   1  19
ATOM     18  C   UNL     1       4.965   3.970  15.036  0.00  0.00    +0.000 C 
ATOM     19  C   UNL     1       5.137   5.001  16.172  0.00  0.00    +0.000 C 
BRANCH  19  20
ATOM     20  S   UNL     1       6.691   4.697  17.114  0.00  0.00    +0.000 S 
BRANCH  20  21
ATOM     21  C   UNL     1       7.272   6.271  17.492  0.00  0.00    +0.000 A 
ATOM     22  N   UNL     1       7.203   7.359  16.760  0.00  0.00    +0.000 NA
ATOM     23  N   UNL     1       7.891   8.350  17.434  0.00  0.00    +0.000 NA
ATOM     24  C   UNL     1       8.326   7.838  18.566  0.00  0.00    +0.000 A 
ATOM     25  N   UNL     1       7.924   6.545  18.660  0.00  0.00    +0.000 N 
ATOM     26  C   UNL     1       8.157   5.668  19.775  0.00  0.00    +0.000 C 
ENDBRANCH  20  21
ENDBRANCH  19  20
ENDBRANCH   1  19
TORSDOF 4
ENDMDL
MODEL 3
REMARK VINA RESULT:      -8.1      4.660      9.536
REMARK  Name = 
REMARK  6 active torsions:
REMARK  status: ('A' for Active; 'I' for Inactive)
REMARK    1  A    between atoms: C_1  and  C_2
REMARK    2  A    between atoms: C_2  and  S_3
REMARK    3  A    between atoms: C_2  and  C_10
REMARK    4  A    between atoms: S_3  and  C_4
REMARK    5  A    between atoms: N_8  and  C_9
REMARK    6  A    between atoms: C_14  and  N_15
REMARK                            x       y       z     vdW  Elec       q    Type
REMARK                         _______ _______ _______ _____ _____    ______ ____
ROOT
ATOM      1  C   UNL     1       0.873   9.709  20.378  0.00  0.00    +0.000 A 
ATOM      2  C   UNL     1       0.760  10.281  19.111  0.00  0.00    +0.000 A 
ATOM      3  C   UNL     1       1.297   9.649  17.985  0.00  0.00    +0.000 A 
ATOM      4  C   UNL     1       1.959   8.422  18.100  0.00  0.00    +0.000 A 
ATOM      5  C   UNL     1       2.064   7.807  19.342  0.00  0.00    +0.000 A 
ATOM      6  C   UNL     1       1.554   8.485  20.459  0.00  0.00    +0.000 A 
ENDROOT
BRANCH   5   7
ATOM      7  N   UNL     1       2.598   6.513  19.528  0.00  0.00    +0.000 N 
ATOM      8  C   UNL     1       1.895   5.547  20.364  0.00  0.00    +0.000 C 
ATOM      9  C   UNL     1       2.717   4.340  20.256  0.00  0.00    +0.000 A 
ATOM     10  C   UNL     1       3.797   4.554  19.414  0.00  0.00    +0.000 A 
ATOM     11  C   UNL     1       4.744   3.581  19.205  0.00  0.00    +0.000 A 
ATOM     12  C   UNL     1       4.535   2.388  19.880  0.00  0.00    +0.000 A 
ATOM     13  N   UNL     1       3.471   2.136  20.691  0.00  0.00    +0.000 NA
ATOM     14  C   UNL     1       2.578   3.125  20.858  0.00  0.00    +0.000 A 
ATOM     15 CL   UNL     1       1.258   2.773  21.890  0.00  0.00    +0.000 Cl
ATOM     16  C   UNL     1       3.700   5.931  18.898  0.00  0.00    +0.000 C 
ATOM     17  O   UNL     1       4.468   6.375  18.057  0.00  0.00    +0.000 OA
ENDBRANCH   5   7
BRANCH   1  19
ATOM     18  C   UNL     1      -0.402   9.276  22.558  0.00  0.00    +0.000 C 
ATOM     19  C   UNL     1       0.212  10.331  21.613  0.00  0.00    +0.000 C 
BRANCH  19  20
ATOM     20  S   UNL     1      -1.070  11.511  21.012  0.00  0.00    +0.000 S 
BRANCH  20  21
ATOM     21  C   UNL     1      -0.942  12.854  22.077  0.00  0.00    +0.000 A 
ATOM     22  N   UNL     1      -0.048  13.816  22.068  0.00  0.00    +0.000 NA
ATOM     23  N   UNL     1      -0.291  14.612  23.171  0.00  0.00    +0.000 NA
ATOM     24  C   UNL     1      -1.344  14.124  23.793  0.00  0.00    +0.000 A 
ATOM     25  N   UNL     1      -1.809  13.044  23.116  0.00  0.00    +0.000 N 
ATOM     26  C   UNL     1      -2.975  12.274  23.453  0.00  0.00    +0.000 C 
ENDBRANCH  20  21
ENDBRANCH  19  20
ENDBRANCH   1  19
TORSDOF 4
ENDMDL
MODEL 4
REMARK VINA RESULT:      -8.0      3.217      8.551
REMARK  Name = 
REMARK  6 active torsions:
REMARK  status: ('A' for Active; 'I' for Inactive)
REMARK    1  A    between atoms: C_1  and  C_2
REMARK    2  A    between atoms: C_2  and  S_3
REMARK    3  A    between atoms: C_2  and  C_10
REMARK    4  A    between atoms: S_3  and  C_4
REMARK    5  A    between atoms: N_8  and  C_9
REMARK    6  A    between atoms: C_14  and  N_15
REMARK                            x       y       z     vdW  Elec       q    Type
REMARK                         _______ _______ _______ _____ _____    ______ ____
ROOT
ATOM      1  C   UNL     1       1.514   6.773  20.475  0.00  0.00    +0.000 A 
ATOM      2  C   UNL     1       0.950   5.631  21.044  0.00  0.00    +0.000 A 
ATOM      3  C   UNL     1       1.277   4.355  20.574  0.00  0.00    +0.000 A 
ATOM      4  C   UNL     1       2.184   4.191  19.521  0.00  0.00    +0.000 A 
ATOM      5  C   UNL     1       2.789   5.304  18.950  0.00  0.00    +0.000 A 
ATOM      6  C   UNL     1       2.410   6.572  19.413  0.00  0.00    +0.000 A 
ENDROOT
BRANCH   5   7
ATOM      7  N   UNL     1       3.809   5.223  17.976  0.00  0.00    +0.000 N 
ATOM      8  C   UNL     1       4.970   6.102  18.059  0.00  0.00    +0.000 C 
ATOM      9  C   UNL     1       5.802   5.676  16.933  0.00  0.00    +0.000 A 
ATOM     10  C   UNL     1       5.210   4.623  16.254  0.00  0.00    +0.000 A 
ATOM     11  C   UNL     1       5.780   4.092  15.122  0.00  0.00    +0.000 A 
ATOM     12  C   UNL     1       6.974   4.674  14.724  0.00  0.00    +0.000 A 
ATOM     13  N   UNL     1       7.595   5.689  15.383  0.00  0.00    +0.000 NA
ATOM     14  C   UNL     1       6.991   6.168  16.484  0.00  0.00    +0.000 A 
ATOM     15 CL   UNL     1       7.800   7.449  17.282  0.00  0.00    +0.000 Cl
ATOM     16  C   UNL     1       3.954   4.287  16.949  0.00  0.00    +0.000 C 
ATOM     17  O   UNL     1       3.259   3.335  16.630  0.00  0.00    +0.000 OA
ENDBRANCH   5   7
BRANCH   1  19
ATOM     18  C   UNL     1      -0.100   8.278  21.776  0.00  0.00    +0.000 C 
ATOM     19  C   UNL     1       1.249   8.175  21.032  0.00  0.00    +0.000 C 
BRANCH  19  20
ATOM     20  S   UNL     1       1.317   9.350  19.614  0.00  0.00    +0.000 S 
BRANCH  20  21
ATOM     21  C   UNL     1       0.784  10.845  20.276  0.00  0.00    +0.000 A 
ATOM     22  N   UNL     1       1.369  11.583  21.191  0.00  0.00    +0.000 NA
ATOM     23  N   UNL     1       0.521  12.637  21.471  0.00  0.00    +0.000 NA
ATOM     24  C   UNL     1      -0.535  12.520  20.693  0.00  0.00    +0.000 A 
ATOM     25  N   UNL     1      -0.390  11.430  19.897  0.00  0.00    +0.000 N 
ATOM     26  C   UNL     1      -1.308  11.004  18.876  0.00  0.00    +0.000 C 
ENDBRANCH  20  21
ENDBRANCH  19  20
ENDBRANCH   1  19
TORSDOF 4
ENDMDL
MODEL 5
REMARK VINA RESULT:      -7.9      4.129      8.825
REMARK  Name = 
REMARK  6 active torsions:
REMARK  status: ('A' for Active; 'I' for Inactive)
REMARK    1  A    between atoms: C_1  and  C_2
REMARK    2  A    between atoms: C_2  and  S_3
REMARK    3  A    between atoms: C_2  and  C_10
REMARK    4  A    between atoms: S_3  and  C_4
REMARK    5  A    between atoms: N_8  and  C_9
REMARK    6  A    between atoms: C_14  and  N_15
REMARK                            x       y       z     vdW  Elec       q    Type
REMARK                         _______ _______ _______ _____ _____    ______ ____
ROOT
ATOM      1  C   UNL     1       0.424  10.393  19.716  0.00  0.00    +0.000 A 
ATOM      2  C   UNL     1       0.377  10.549  21.101  0.00  0.00    +0.000 A 
ATOM      3  C   UNL     1       0.873   9.558  21.955  0.00  0.00    +0.000 A 
ATOM      4  C   UNL     1       1.434   8.384  21.440  0.00  0.00    +0.000 A 
ATOM      5  C   UNL     1       1.526   8.208  20.064  0.00  0.00    +0.000 A 
ATOM      6  C   UNL     1       0.982   9.199  19.234  0.00  0.00    +0.000 A 
ENDROOT
BRANCH   5   7
ATOM      7  N   UNL     1       2.193   7.119  19.462  0.00  0.00    +0.000 N 
ATOM      8  C   UNL     1       3.043   7.338  18.297  0.00  0.00    +0.000 C 
ATOM      9  C   UNL     1       3.586   6.008  18.016  0.00  0.00    +0.000 A 
ATOM     10  C   UNL     1       3.126   5.083  18.940  0.00  0.00    +0.000 A 
ATOM     11  C   UNL     1       3.455   3.752  18.844  0.00  0.00    +0.000 A 
ATOM     12  C   UNL     1       4.273   3.414  17.778  0.00  0.00    +0.000 A 
ATOM     13  N   UNL     1       4.765   4.301  16.870  0.00  0.00    +0.000 NA
ATOM     14  C   UNL     1       4.409   5.588  17.014  0.00  0.00    +0.000 A 
ATOM     15 CL   UNL     1       5.042   6.672  15.849  0.00  0.00    +0.000 Cl
ATOM     16  C   UNL     1       2.273   5.797  19.906  0.00  0.00    +0.000 C 
ATOM     17  O   UNL     1       1.798   5.255  20.893  0.00  0.00    +0.000 OA
ENDBRANCH   5   7
BRANCH   1  19
ATOM     18  C   UNL     1       0.911  12.730  18.787  0.00  0.00    +0.000 C 
ATOM     19  C   UNL     1      -0.023  11.502  18.758  0.00  0.00    +0.000 C 
BRANCH  19  20
ATOM     20  S   UNL     1      -1.746  11.965  19.221  0.00  0.00    +0.000 S 
BRANCH  20  21
ATOM     21  C   UNL     1      -2.685  11.531  17.848  0.00  0.00    +0.000 A 
ATOM     22  N   UNL     1      -2.266  11.108  16.678  0.00  0.00    +0.000 NA
ATOM     23  N   UNL     1      -3.376  10.983  15.865  0.00  0.00    +0.000 NA
ATOM     24  C   UNL     1      -4.434  11.303  16.580  0.00  0.00    +0.000 A 
ATOM     25  N   UNL     1      -4.048  11.614  17.844  0.00  0.00    +0.000 N 
ATOM     26  C   UNL     1      -4.921  11.961  18.931  0.00  0.00    +0.000 C 
ENDBRANCH  20  21
ENDBRANCH  19  20
ENDBRANCH   1  19
TORSDOF 4
ENDMDL
MODEL 6
REMARK VINA RESULT:      -7.9      3.211      8.630
REMARK  Name = 
REMARK  6 active torsions:
REMARK  status: ('A' for Active; 'I' for Inactive)
REMARK    1  A    between atoms: C_1  and  C_2
REMARK    2  A    between atoms: C_2  and  S_3
REMARK    3  A    between atoms: C_2  and  C_10
REMARK    4  A    between atoms: S_3  and  C_4
REMARK    5  A    between atoms: N_8  and  C_9
REMARK    6  A    between atoms: C_14  and  N_15
REMARK                            x       y       z     vdW  Elec       q    Type
REMARK                         _______ _______ _______ _____ _____    ______ ____
ROOT
ATOM      1  C   UNL     1       1.561   7.138  20.311  0.00  0.00    +0.000 A 
ATOM      2  C   UNL     1       1.057   6.060  21.039  0.00  0.00    +0.000 A 
ATOM      3  C   UNL     1       1.425   4.747  20.728  0.00  0.00    +0.000 A 
ATOM      4  C   UNL     1       2.314   4.481  19.680  0.00  0.00    +0.000 A 
ATOM      5  C   UNL     1       2.860   5.532  18.954  0.00  0.00    +0.000 A 
ATOM      6  C   UNL     1       2.439   6.835  19.260  0.00  0.00    +0.000 A 
ENDROOT
BRANCH   5   7
ATOM      7  N   UNL     1       3.859   5.363  17.970  0.00  0.00    +0.000 N 
ATOM      8  C   UNL     1       5.039   6.221  17.973  0.00  0.00    +0.000 C 
ATOM      9  C   UNL     1       5.841   5.702  16.865  0.00  0.00    +0.000 A 
ATOM     10  C   UNL     1       5.216   4.618  16.270  0.00  0.00    +0.000 A 
ATOM     11  C   UNL     1       5.754   4.000  15.167  0.00  0.00    +0.000 A 
ATOM     12  C   UNL     1       6.952   4.527  14.710  0.00  0.00    +0.000 A 
ATOM     13  N   UNL     1       7.606   5.572  15.288  0.00  0.00    +0.000 NA
ATOM     14  C   UNL     1       7.032   6.137  16.363  0.00  0.00    +0.000 A 
ATOM     15 CL   UNL     1       7.881   7.451  17.058  0.00  0.00    +0.000 Cl
ATOM     16  C   UNL     1       3.967   4.357  17.007  0.00  0.00    +0.000 C 
ATOM     17  O   UNL     1       3.246   3.401  16.766  0.00  0.00    +0.000 OA
ENDBRANCH   5   7
BRANCH   1  19
ATOM     18  C   UNL     1      -0.049   8.730  21.510  0.00  0.00    +0.000 C 
ATOM     19  C   UNL     1       1.251   8.590  20.690  0.00  0.00    +0.000 C 
BRANCH  19  20
ATOM     20  S   UNL     1       1.158   9.557  19.124  0.00  0.00    +0.000 S 
BRANCH  20  21
ATOM     21  C   UNL     1      -0.151  10.644  19.374  0.00  0.00    +0.000 A 
ATOM     22  N   UNL     1      -1.401  10.512  18.993  0.00  0.00    +0.000 NA
ATOM     23  N   UNL     1      -2.058  11.679  19.331  0.00  0.00    +0.000 NA
ATOM     24  C   UNL     1      -1.192  12.466  19.935  0.00  0.00    +0.000 A 
ATOM     25  N   UNL     1       0.008  11.837  20.019  0.00  0.00    +0.000 N 
ATOM     26  C   UNL     1       1.187  12.352  20.659  0.00  0.00    +0.000 C 
ENDBRANCH  20  21
ENDBRANCH  19  20
ENDBRANCH   1  19
TORSDOF 4
ENDMDL
MODEL 7
REMARK VINA RESULT:      -7.9      2.346      2.981
REMARK  Name = 
REMARK  6 active torsions:
REMARK  status: ('A' for Active; 'I' for Inactive)
REMARK    1  A    between atoms: C_1  and  C_2
REMARK    2  A    between atoms: C_2  and  S_3
REMARK    3  A    between atoms: C_2  and  C_10
REMARK    4  A    between atoms: S_3  and  C_4
REMARK    5  A    between atoms: N_8  and  C_9
REMARK    6  A    between atoms: C_14  and  N_15
REMARK                            x       y       z     vdW  Elec       q    Type
REMARK                         _______ _______ _______ _____ _____    ______ ____
ROOT
ATOM      1  C   UNL     1       3.351   5.128  18.632  0.00  0.00    +0.000 A 
ATOM      2  C   UNL     1       3.071   4.199  19.633  0.00  0.00    +0.000 A 
ATOM      3  C   UNL     1       2.321   4.558  20.758  0.00  0.00    +0.000 A 
ATOM      4  C   UNL     1       1.829   5.860  20.906  0.00  0.00    +0.000 A 
ATOM      5  C   UNL     1       2.063   6.803  19.913  0.00  0.00    +0.000 A 
ATOM      6  C   UNL     1       2.854   6.427  18.817  0.00  0.00    +0.000 A 
ENDROOT
BRANCH   5   7
ATOM      7  N   UNL     1       1.495   8.097  19.918  0.00  0.00    +0.000 N 
ATOM      8  C   UNL     1       0.838   8.600  21.119  0.00  0.00    +0.000 C 
ATOM      9  C   UNL     1       0.448   9.961  20.749  0.00  0.00    +0.000 A 
ATOM     10  C   UNL     1       0.855  10.257  19.458  0.00  0.00    +0.000 A 
ATOM     11  C   UNL     1       0.548  11.460  18.870  0.00  0.00    +0.000 A 
ATOM     12  C   UNL     1      -0.179  12.342  19.654  0.00  0.00    +0.000 A 
ATOM     13  N   UNL     1      -0.570  12.094  20.934  0.00  0.00    +0.000 NA
ATOM     14  C   UNL     1      -0.242  10.900  21.457  0.00  0.00    +0.000 A 
ATOM     15 CL   UNL     1      -0.758  10.623  23.066  0.00  0.00    +0.000 Cl
ATOM     16  C   UNL     1       1.578   9.084  18.934  0.00  0.00    +0.000 C 
ATOM     17  O   UNL     1       2.135   9.085  17.847  0.00  0.00    +0.000 OA
ENDBRANCH   5   7
BRANCH   1  19
ATOM     18  C   UNL     1       3.453   3.520  16.640  0.00  0.00    +0.000 C 
ATOM     19  C   UNL     1       4.086   4.738  17.344  0.00  0.00    +0.000 C 
BRANCH  19  20
ATOM     20  S   UNL     1       5.842   4.407  17.796  0.00  0.00    +0.000 S 
BRANCH  20  21
ATOM     21  C   UNL     1       6.607   5.943  17.677  0.00  0.00    +0.000 A 
ATOM     22  N   UNL     1       6.418   6.877  16.774  0.00  0.00    +0.000 NA
ATOM     23  N   UNL     1       7.325   7.886  17.032  0.00  0.00    +0.000 NA
ATOM     24  C   UNL     1       8.013   7.544  18.101  0.00  0.00    +0.000 A 
ATOM     25  N   UNL     1       7.565   6.348  18.562  0.00  0.00    +0.000 N 
ATOM     26  C   UNL     1       8.029   5.671  19.742  0.00  0.00    +0.000 C 
ENDBRANCH  20  21
ENDBRANCH  19  20
ENDBRANCH   1  19
TORSDOF 4
ENDMDL
MODEL 8
REMARK VINA RESULT:      -7.9      4.649      9.567
REMARK  Name = 
REMARK  6 active torsions:
REMARK  status: ('A' for Active; 'I' for Inactive)
REMARK    1  A    between atoms: C_1  and  C_2
REMARK    2  A    between atoms: C_2  and  S_3
REMARK    3  A    between atoms: C_2  and  C_10
REMARK    4  A    between atoms: S_3  and  C_4
REMARK    5  A    between atoms: N_8  and  C_9
REMARK    6  A    between atoms: C_14  and  N_15
REMARK                            x       y       z     vdW  Elec       q    Type
REMARK                         _______ _______ _______ _____ _____    ______ ____
ROOT
ATOM      1  C   UNL     1       0.890   9.699  20.294  0.00  0.00    +0.000 A 
ATOM      2  C   UNL     1       0.810  10.266  19.022  0.00  0.00    +0.000 A 
ATOM      3  C   UNL     1       1.374   9.627  17.912  0.00  0.00    +0.000 A 
ATOM      4  C   UNL     1       2.028   8.398  18.050  0.00  0.00    +0.000 A 
ATOM      5  C   UNL     1       2.099   7.788  19.297  0.00  0.00    +0.000 A 
ATOM      6  C   UNL     1       1.564   8.473  20.398  0.00  0.00    +0.000 A 
ENDROOT
BRANCH   5   7
ATOM      7  N   UNL     1       2.624   6.493  19.502  0.00  0.00    +0.000 N 
ATOM      8  C   UNL     1       1.906   5.539  20.340  0.00  0.00    +0.000 C 
ATOM      9  C   UNL     1       2.722   4.328  20.253  0.00  0.00    +0.000 A 
ATOM     10  C   UNL     1       3.813   4.527  19.422  0.00  0.00    +0.000 A 
ATOM     11  C   UNL     1       4.757   3.546  19.233  0.00  0.00    +0.000 A 
ATOM     12  C   UNL     1       4.533   2.361  19.918  0.00  0.00    +0.000 A 
ATOM     13  N   UNL     1       3.459   2.123  20.720  0.00  0.00    +0.000 NA
ATOM     14  C   UNL     1       2.570   3.120  20.867  0.00  0.00    +0.000 A 
ATOM     15 CL   UNL     1       1.236   2.785  21.887  0.00  0.00    +0.000 Cl
ATOM     16  C   UNL     1       3.730   5.898  18.890  0.00  0.00    +0.000 C 
ATOM     17  O   UNL     1       4.510   6.330  18.054  0.00  0.00    +0.000 OA
ENDBRANCH   5   7
BRANCH   1  19
ATOM     18  C   UNL     1      -0.400   9.278  22.467  0.00  0.00    +0.000 C 
ATOM     19  C   UNL     1       0.199  10.328  21.508  0.00  0.00    +0.000 C 
BRANCH  19  20
ATOM     20  S   UNL     1      -1.104  11.465  20.870  0.00  0.00    +0.000 S 
BRANCH  20  21
ATOM     21  C   UNL     1      -1.507  12.450  22.221  0.00  0.00    +0.000 A 
ATOM     22  N   UNL     1      -2.494  12.296  23.072  0.00  0.00    +0.000 NA
ATOM     23  N   UNL     1      -2.475  13.385  23.923  0.00  0.00    +0.000 NA
ATOM     24  C   UNL     1      -1.457  14.145  23.578  0.00  0.00    +0.000 A 
ATOM     25  N   UNL     1      -0.797  13.573  22.539  0.00  0.00    +0.000 N 
ATOM     26  C   UNL     1       0.398  14.075  21.920  0.00  0.00    +0.000 C 
ENDBRANCH  20  21
ENDBRANCH  19  20
ENDBRANCH   1  19
TORSDOF 4
ENDMDL
MODEL 9
REMARK VINA RESULT:      -7.8      2.234      2.957
REMARK  Name = 
REMARK  6 active torsions:
REMARK  status: ('A' for Active; 'I' for Inactive)
REMARK    1  A    between atoms: C_1  and  C_2
REMARK    2  A    between atoms: C_2  and  S_3
REMARK    3  A    between atoms: C_2  and  C_10
REMARK    4  A    between atoms: S_3  and  C_4
REMARK    5  A    between atoms: N_8  and  C_9
REMARK    6  A    between atoms: C_14  and  N_15
REMARK                            x       y       z     vdW  Elec       q    Type
REMARK                         _______ _______ _______ _____ _____    ______ ____
ROOT
ATOM      1  C   UNL     1       3.958   4.988  17.729  0.00  0.00    +0.000 A 
ATOM      2  C   UNL     1       3.866   3.947  18.652  0.00  0.00    +0.000 A 
ATOM      3  C   UNL     1       3.207   4.123  19.873  0.00  0.00    +0.000 A 
ATOM      4  C   UNL     1       2.617   5.350  20.199  0.00  0.00    +0.000 A 
ATOM      5  C   UNL     1       2.661   6.400  19.290  0.00  0.00    +0.000 A 
ATOM      6  C   UNL     1       3.366   6.208  18.092  0.00  0.00    +0.000 A 
ENDROOT
BRANCH   5   7
ATOM      7  N   UNL     1       1.983   7.624  19.480  0.00  0.00    +0.000 N 
ATOM      8  C   UNL     1       1.415   7.948  20.784  0.00  0.00    +0.000 C 
ATOM      9  C   UNL     1       0.866   9.291  20.593  0.00  0.00    +0.000 A 
ATOM     10  C   UNL     1       1.104   9.741  19.304  0.00  0.00    +0.000 A 
ATOM     11  C   UNL     1       0.627  10.956  18.872  0.00  0.00    +0.000 A 
ATOM     12  C   UNL     1      -0.088  11.686  19.808  0.00  0.00    +0.000 A 
ATOM     13  N   UNL     1      -0.315  11.285  21.089  0.00  0.00    +0.000 NA
ATOM     14  C   UNL     1       0.174  10.089  21.455  0.00  0.00    +0.000 A 
ATOM     15 CL   UNL     1      -0.138   9.617  23.072  0.00  0.00    +0.000 Cl
ATOM     16  C   UNL     1       1.869   8.700  18.597  0.00  0.00    +0.000 C 
ATOM     17  O   UNL     1       2.303   8.854  17.465  0.00  0.00    +0.000 OA
ENDBRANCH   5   7
BRANCH   1  19
ATOM     18  C   UNL     1       5.169   3.380  16.145  0.00  0.00    +0.000 C 
ATOM     19  C   UNL     1       4.589   4.795  16.346  0.00  0.00    +0.000 C 
BRANCH  19  20
ATOM     20  S   UNL     1       5.894   6.082  16.156  0.00  0.00    +0.000 S 
BRANCH  20  21
ATOM     21  C   UNL     1       6.933   5.835  17.504  0.00  0.00    +0.000 A 
ATOM     22  N   UNL     1       7.192   4.713  18.135  0.00  0.00    +0.000 NA
ATOM     23  N   UNL     1       8.002   5.025  19.210  0.00  0.00    +0.000 NA
ATOM     24  C   UNL     1       8.233   6.321  19.175  0.00  0.00    +0.000 A 
ATOM     25  N   UNL     1       7.613   6.861  18.095  0.00  0.00    +0.000 N 
ATOM     26  C   UNL     1       7.675   8.238  17.688  0.00  0.00    +0.000 C 
ENDBRANCH  20  21
ENDBRANCH  19  20
ENDBRANCH   1  19
TORSDOF 4
ENDMDL
