MODEL 1
REMARK VINA RESULT:      -9.2      0.000      0.000
REMARK  Name = 
REMARK  7 active torsions:
REMARK  status: ('A' for Active; 'I' for Inactive)
REMARK    1  A    between atoms: C_1  and  N_2
REMARK    2  A    between atoms: C_6  and  C_7
REMARK    3  A    between atoms: C_7  and  C_8
REMARK    4  A    between atoms: C_8  and  C_9
REMARK    5  A    between atoms: C_8  and  C_11
REMARK    6  A    between atoms: C_15  and  N_16
REMARK    7  A    between atoms: C_23  and  C_24
REMARK                            x       y       z     vdW  Elec       q    Type
REMARK                         _______ _______ _______ _____ _____    ______ ____
ROOT
ATOM      1  C   UNL     1       4.376   4.960  17.914  0.00  0.00    +0.000 A 
ATOM      2  C   UNL     1       4.261   3.955  18.877  0.00  0.00    +0.000 A 
ATOM      3  C   UNL     1       3.451   4.149  20.004  0.00  0.00    +0.000 A 
ATOM      4  C   UNL     1       2.730   5.340  20.185  0.00  0.00    +0.000 A 
ATOM      5  C   UNL     1       2.826   6.359  19.244  0.00  0.00    +0.000 A 
ATOM      6  C   UNL     1       3.667   6.147  18.131  0.00  0.00    +0.000 A 
ENDROOT
BRANCH   5   7
ATOM      7  N   UNL     1       2.108   7.580  19.329  0.00  0.00    +0.000 N 
ATOM      8  C   UNL     1       1.406   7.899  20.552  0.00  0.00    +0.000 C 
ATOM      9  C   UNL     1       0.883   9.266  20.335  0.00  0.00    +0.000 A 
ATOM     10  C   UNL     1       1.204   9.688  19.049  0.00  0.00    +0.000 A 
ATOM     11  C   UNL     1       0.828  10.938  18.597  0.00  0.00    +0.000 A 
ATOM     12  C   UNL     1       0.117  11.763  19.482  0.00  0.00    +0.000 A 
ATOM     13  C   UNL     1      -0.194  11.333  20.788  0.00  0.00    +0.000 A 
ATOM     14  C   UNL     1       0.187  10.066  21.239  0.00  0.00    +0.000 A 
ATOM     15  C   UNL     1       2.000   8.616  18.391  0.00  0.00    +0.000 C 
ATOM     16  O   UNL     1       2.450   8.717  17.267  0.00  0.00    +0.000 OA
BRANCH  14  17
ATOM     17  C   UNL     1      -0.115   9.603  22.645  0.00  0.00    +0.000 C 
ATOM     18  F   UNL     1      -0.894   8.487  22.704  0.00  0.00    +0.000 F 
ATOM     19  F   UNL     1       1.011   9.297  23.345  0.00  0.00    +0.000 F 
ATOM     20  F   UNL     1      -0.773  10.545  23.374  0.00  0.00    +0.000 F 
ENDBRANCH  14  17
ENDBRANCH   5   7
BRANCH   1  21
ATOM     21  C   UNL     1       5.232   4.850  16.657  0.00  0.00    +0.000 C 
ATOM     22  C   UNL     1       4.790   3.648  15.814  0.00  0.00    +0.000 C 
ATOM     23  F   UNL     1       5.056   5.935  15.818  0.00  0.00    +0.000 F 
BRANCH  21  24
ATOM     24  C   UNL     1       6.744   4.775  16.938  0.00  0.00    +0.000 C 
BRANCH  24  30
ATOM     25  C   UNL     1       7.782   5.560  19.793  0.00  0.00    +0.000 C 
ATOM     26  N   UNL     1       7.776   6.394  18.620  0.00  0.00    +0.000 N 
ATOM     27  C   UNL     1       8.199   7.686  18.564  0.00  0.00    +0.000 A 
ATOM     28  N   UNL     1       8.023   8.152  17.351  0.00  0.00    +0.000 NA
ATOM     29  N   UNL     1       7.466   7.148  16.597  0.00  0.00    +0.000 NA
ATOM     30  C   UNL     1       7.325   6.084  17.363  0.00  0.00    +0.000 A 
ENDBRANCH  24  30
ENDBRANCH  21  24
ENDBRANCH   1  21
TORSDOF 5
ENDMDL
MODEL 2
REMARK VINA RESULT:      -9.0      1.761      2.589
REMARK  Name = 
REMARK  7 active torsions:
REMARK  status: ('A' for Active; 'I' for Inactive)
REMARK    1  A    between atoms: C_1  and  N_2
REMARK    2  A    between atoms: C_6  and  C_7
REMARK    3  A    between atoms: C_7  and  C_8
REMARK    4  A    between atoms: C_8  and  C_9
REMARK    5  A    between atoms: C_8  and  C_11
REMARK    6  A    between atoms: C_15  and  N_16
REMARK    7  A    between atoms: C_23  and  C_24
REMARK                            x       y       z     vdW  Elec       q    Type
REMARK                         _______ _______ _______ _____ _____    ______ ____
ROOT
ATOM      1  C   UNL     1       4.391   5.757  17.598  0.00  0.00    +0.000 A 
ATOM      2  C   UNL     1       4.079   4.553  18.231  0.00  0.00    +0.000 A 
ATOM      3  C   UNL     1       3.059   4.505  19.191  0.00  0.00    +0.000 A 
ATOM      4  C   UNL     1       2.322   5.653  19.526  0.00  0.00    +0.000 A 
ATOM      5  C   UNL     1       2.611   6.866  18.913  0.00  0.00    +0.000 A 
ATOM      6  C   UNL     1       3.659   6.891  17.968  0.00  0.00    +0.000 A 
ENDROOT
BRANCH   5   7
ATOM      7  N   UNL     1       1.897   8.067  19.166  0.00  0.00    +0.000 N 
ATOM      8  C   UNL     1       1.226   8.231  20.437  0.00  0.00    +0.000 C 
ATOM      9  C   UNL     1       0.699   9.613  20.403  0.00  0.00    +0.000 A 
ATOM     10  C   UNL     1       0.988  10.191  19.170  0.00  0.00    +0.000 A 
ATOM     11  C   UNL     1       0.602  11.486  18.886  0.00  0.00    +0.000 A 
ATOM     12  C   UNL     1      -0.085  12.195  19.883  0.00  0.00    +0.000 A 
ATOM     13  C   UNL     1      -0.363  11.607  21.134  0.00  0.00    +0.000 A 
ATOM     14  C   UNL     1       0.027  10.295  21.415  0.00  0.00    +0.000 A 
ATOM     15  C   UNL     1       1.766   9.210  18.366  0.00  0.00    +0.000 C 
ATOM     16  O   UNL     1       2.188   9.449  17.252  0.00  0.00    +0.000 OA
BRANCH  14  17
ATOM     17  C   UNL     1      -0.240   9.661  22.760  0.00  0.00    +0.000 C 
ATOM     18  F   UNL     1      -0.911   8.478  22.691  0.00  0.00    +0.000 F 
ATOM     19  F   UNL     1       0.905   9.390  23.444  0.00  0.00    +0.000 F 
ATOM     20  F   UNL     1      -0.989  10.457  23.572  0.00  0.00    +0.000 F 
ENDBRANCH  14  17
ENDBRANCH   5   7
BRANCH   1  21
ATOM     21  C   UNL     1       5.483   5.916  16.545  0.00  0.00    +0.000 C 
ATOM     22  C   UNL     1       5.084   6.983  15.520  0.00  0.00    +0.000 C 
ATOM     23  F   UNL     1       6.660   6.394  17.092  0.00  0.00    +0.000 F 
BRANCH  21  24
ATOM     24  C   UNL     1       5.853   4.604  15.830  0.00  0.00    +0.000 C 
BRANCH  24  30
ATOM     25  C   UNL     1       5.466   3.377  12.968  0.00  0.00    +0.000 C 
ATOM     26  N   UNL     1       6.516   4.268  13.387  0.00  0.00    +0.000 N 
ATOM     27  C   UNL     1       7.541   4.708  12.609  0.00  0.00    +0.000 A 
ATOM     28  N   UNL     1       8.329   5.479  13.317  0.00  0.00    +0.000 NA
ATOM     29  N   UNL     1       7.816   5.541  14.589  0.00  0.00    +0.000 NA
ATOM     30  C   UNL     1       6.715   4.815  14.629  0.00  0.00    +0.000 A 
ENDBRANCH  24  30
ENDBRANCH  21  24
ENDBRANCH   1  21
TORSDOF 5
ENDMDL
MODEL 3
REMARK VINA RESULT:      -9.0      1.390      2.431
REMARK  Name = 
REMARK  7 active torsions:
REMARK  status: ('A' for Active; 'I' for Inactive)
REMARK    1  A    between atoms: C_1  and  N_2
REMARK    2  A    between atoms: C_6  and  C_7
REMARK    3  A    between atoms: C_7  and  C_8
REMARK    4  A    between atoms: C_8  and  C_9
REMARK    5  A    between atoms: C_8  and  C_11
REMARK    6  A    between atoms: C_15  and  N_16
REMARK    7  A    between atoms: C_23  and  C_24
REMARK                            x       y       z     vdW  Elec       q    Type
REMARK                         _______ _______ _______ _____ _____    ______ ____
ROOT
ATOM      1  C   UNL     1       5.111   5.121  18.938  0.00  0.00    +0.000 A 
ATOM      2  C   UNL     1       4.607   3.917  19.432  0.00  0.00    +0.000 A 
ATOM      3  C   UNL     1       3.316   3.863  19.974  0.00  0.00    +0.000 A 
ATOM      4  C   UNL     1       2.499   5.004  20.022  0.00  0.00    +0.000 A 
ATOM      5  C   UNL     1       2.974   6.218  19.539  0.00  0.00    +0.000 A 
ATOM      6  C   UNL     1       4.286   6.249  19.020  0.00  0.00    +0.000 A 
ENDROOT
BRANCH   5   7
ATOM      7  N   UNL     1       2.207   7.412  19.515  0.00  0.00    +0.000 N 
ATOM      8  C   UNL     1       1.467   7.794  20.698  0.00  0.00    +0.000 C 
ATOM      9  C   UNL     1       0.895   9.118  20.367  0.00  0.00    +0.000 A 
ATOM     10  C   UNL     1       1.227   9.454  19.058  0.00  0.00    +0.000 A 
ATOM     11  C   UNL     1       0.812  10.649  18.504  0.00  0.00    +0.000 A 
ATOM     12  C   UNL     1       0.051  11.509  19.310  0.00  0.00    +0.000 A 
ATOM     13  C   UNL     1      -0.272  11.167  20.639  0.00  0.00    +0.000 A 
ATOM     14  C   UNL     1       0.149   9.955  21.193  0.00  0.00    +0.000 A 
ATOM     15  C   UNL     1       2.079   8.368  18.499  0.00  0.00    +0.000 C 
ATOM     16  O   UNL     1       2.549   8.401  17.380  0.00  0.00    +0.000 OA
BRANCH  14  17
ATOM     17  C   UNL     1      -0.166   9.589  22.624  0.00  0.00    +0.000 C 
ATOM     18  F   UNL     1      -0.857  10.547  23.302  0.00  0.00    +0.000 F 
ATOM     19  F   UNL     1      -0.922   8.461  22.717  0.00  0.00    +0.000 F 
ATOM     20  F   UNL     1       0.955   9.358  23.361  0.00  0.00    +0.000 F 
ENDBRANCH  14  17
ENDBRANCH   5   7
BRANCH   1  21
ATOM     21  C   UNL     1       6.501   5.286  18.332  0.00  0.00    +0.000 C 
ATOM     22  C   UNL     1       7.493   5.768  19.396  0.00  0.00    +0.000 C 
ATOM     23  F   UNL     1       7.022   4.078  17.904  0.00  0.00    +0.000 F 
BRANCH  21  24
ATOM     24  C   UNL     1       6.539   6.219  17.108  0.00  0.00    +0.000 C 
BRANCH  24  30
ATOM     25  C   UNL     1       4.397   4.298  15.855  0.00  0.00    +0.000 C 
ATOM     26  N   UNL     1       5.672   4.650  15.290  0.00  0.00    +0.000 N 
ATOM     27  C   UNL     1       6.176   4.181  14.116  0.00  0.00    +0.000 A 
ATOM     28  N   UNL     1       7.371   4.683  13.920  0.00  0.00    +0.000 NA
ATOM     29  N   UNL     1       7.661   5.494  14.990  0.00  0.00    +0.000 NA
ATOM     30  C   UNL     1       6.631   5.480  15.813  0.00  0.00    +0.000 A 
ENDBRANCH  24  30
ENDBRANCH  21  24
ENDBRANCH   1  21
TORSDOF 5
ENDMDL
MODEL 4
REMARK VINA RESULT:      -9.0      2.319      3.131
REMARK  Name = 
REMARK  7 active torsions:
REMARK  status: ('A' for Active; 'I' for Inactive)
REMARK    1  A    between atoms: C_1  and  N_2
REMARK    2  A    between atoms: C_6  and  C_7
REMARK    3  A    between atoms: C_7  and  C_8
REMARK    4  A    between atoms: C_8  and  C_9
REMARK    5  A    between atoms: C_8  and  C_11
REMARK    6  A    between atoms: C_15  and  N_16
REMARK    7  A    between atoms: C_23  and  C_24
REMARK                            x       y       z     vdW  Elec       q    Type
REMARK                         _______ _______ _______ _____ _____    ______ ____
ROOT
ATOM      1  C   UNL     1       4.768   4.575  16.556  0.00  0.00    +0.000 A 
ATOM      2  C   UNL     1       4.551   3.215  16.785  0.00  0.00    +0.000 A 
ATOM      3  C   UNL     1       3.712   2.801  17.828  0.00  0.00    +0.000 A 
ATOM      4  C   UNL     1       3.065   3.734  18.654  0.00  0.00    +0.000 A 
ATOM      5  C   UNL     1       3.262   5.095  18.451  0.00  0.00    +0.000 A 
ATOM      6  C   UNL     1       4.130   5.483  17.408  0.00  0.00    +0.000 A 
ENDROOT
BRANCH   5   7
ATOM      7  N   UNL     1       2.623   6.107  19.214  0.00  0.00    +0.000 N 
ATOM      8  C   UNL     1       2.415   7.409  18.618  0.00  0.00    +0.000 C 
ATOM      9  C   UNL     1       1.634   8.159  19.627  0.00  0.00    +0.000 A 
ATOM     10  C   UNL     1       1.456   7.368  20.758  0.00  0.00    +0.000 A 
ATOM     11  C   UNL     1       0.754   7.840  21.850  0.00  0.00    +0.000 A 
ATOM     12  C   UNL     1       0.227   9.138  21.773  0.00  0.00    +0.000 A 
ATOM     13  C   UNL     1       0.401   9.928  20.619  0.00  0.00    +0.000 A 
ATOM     14  C   UNL     1       1.115   9.446  19.518  0.00  0.00    +0.000 A 
ATOM     15  C   UNL     1       2.080   6.041  20.504  0.00  0.00    +0.000 C 
ATOM     16  O   UNL     1       2.054   5.129  21.306  0.00  0.00    +0.000 OA
BRANCH  14  17
ATOM     17  C   UNL     1       1.286  10.271  18.264  0.00  0.00    +0.000 C 
ATOM     18  F   UNL     1       2.582  10.579  17.977  0.00  0.00    +0.000 F 
ATOM     19  F   UNL     1       0.809   9.640  17.157  0.00  0.00    +0.000 F 
ATOM     20  F   UNL     1       0.635  11.465  18.332  0.00  0.00    +0.000 F 
ENDBRANCH  14  17
ENDBRANCH   5   7
BRANCH   1  21
ATOM     21  C   UNL     1       5.663   5.127  15.451  0.00  0.00    +0.000 C 
ATOM     22  C   UNL     1       5.401   4.389  14.134  0.00  0.00    +0.000 C 
ATOM     23  F   UNL     1       5.370   6.448  15.165  0.00  0.00    +0.000 F 
BRANCH  21  24
ATOM     24  C   UNL     1       7.164   5.092  15.791  0.00  0.00    +0.000 C 
BRANCH  24  30
ATOM     25  C   UNL     1       7.439   7.871  17.222  0.00  0.00    +0.000 C 
ATOM     26  N   UNL     1       7.551   6.574  17.834  0.00  0.00    +0.000 N 
ATOM     27  C   UNL     1       7.825   6.337  19.146  0.00  0.00    +0.000 A 
ATOM     28  N   UNL     1       7.884   5.044  19.354  0.00  0.00    +0.000 NA
ATOM     29  N   UNL     1       7.651   4.419  18.153  0.00  0.00    +0.000 NA
ATOM     30  C   UNL     1       7.442   5.344  17.237  0.00  0.00    +0.000 A 
ENDBRANCH  24  30
ENDBRANCH  21  24
ENDBRANCH   1  21
TORSDOF 5
ENDMDL
MODEL 5
REMARK VINA RESULT:      -8.7      1.476      2.431
REMARK  Name = 
REMARK  7 active torsions:
REMARK  status: ('A' for Active; 'I' for Inactive)
REMARK    1  A    between atoms: C_1  and  N_2
REMARK    2  A    between atoms: C_6  and  C_7
REMARK    3  A    between atoms: C_7  and  C_8
REMARK    4  A    between atoms: C_8  and  C_9
REMARK    5  A    between atoms: C_8  and  C_11
REMARK    6  A    between atoms: C_15  and  N_16
REMARK    7  A    between atoms: C_23  and  C_24
REMARK                            x       y       z     vdW  Elec       q    Type
REMARK                         _______ _______ _______ _____ _____    ______ ____
ROOT
ATOM      1  C   UNL     1       4.067   4.601  18.548  0.00  0.00    +0.000 A 
ATOM      2  C   UNL     1       3.666   3.593  19.426  0.00  0.00    +0.000 A 
ATOM      3  C   UNL     1       2.698   3.854  20.405  0.00  0.00    +0.000 A 
ATOM      4  C   UNL     1       2.102   5.120  20.518  0.00  0.00    +0.000 A 
ATOM      5  C   UNL     1       2.482   6.145  19.660  0.00  0.00    +0.000 A 
ATOM      6  C   UNL     1       3.475   5.861  18.698  0.00  0.00    +0.000 A 
ENDROOT
BRANCH   5   7
ATOM      7  N   UNL     1       1.909   7.444  19.680  0.00  0.00    +0.000 N 
ATOM      8  C   UNL     1       1.186   7.874  20.856  0.00  0.00    +0.000 C 
ATOM      9  C   UNL     1       0.839   9.286  20.583  0.00  0.00    +0.000 A 
ATOM     10  C   UNL     1       1.276   9.635  19.309  0.00  0.00    +0.000 A 
ATOM     11  C   UNL     1       1.074  10.907  18.812  0.00  0.00    +0.000 A 
ATOM     12  C   UNL     1       0.420  11.832  19.640  0.00  0.00    +0.000 A 
ATOM     13  C   UNL     1      -0.009  11.476  20.935  0.00  0.00    +0.000 A 
ATOM     14  C   UNL     1       0.196  10.185  21.431  0.00  0.00    +0.000 A 
ATOM     15  C   UNL     1       1.974   8.460  18.717  0.00  0.00    +0.000 C 
ATOM     16  O   UNL     1       2.492   8.478  17.619  0.00  0.00    +0.000 OA
BRANCH  14  17
ATOM     17  C   UNL     1      -0.234   9.797  22.826  0.00  0.00    +0.000 C 
ATOM     18  F   UNL     1       0.802   9.512  23.665  0.00  0.00    +0.000 F 
ATOM     19  F   UNL     1      -0.941  10.781  23.445  0.00  0.00    +0.000 F 
ATOM     20  F   UNL     1      -1.027   8.692  22.839  0.00  0.00    +0.000 F 
ENDBRANCH  14  17
ENDBRANCH   5   7
BRANCH   1  21
ATOM     21  C   UNL     1       5.112   4.421  17.452  0.00  0.00    +0.000 C 
ATOM     22  C   UNL     1       6.523   4.474  18.048  0.00  0.00    +0.000 C 
ATOM     23  F   UNL     1       5.036   3.168  16.870  0.00  0.00    +0.000 F 
BRANCH  21  24
ATOM     24  C   UNL     1       4.983   5.430  16.297  0.00  0.00    +0.000 C 
BRANCH  24  30
ATOM     25  C   UNL     1       4.980   3.754  13.645  0.00  0.00    +0.000 C 
ATOM     26  N   UNL     1       6.051   4.578  14.140  0.00  0.00    +0.000 N 
ATOM     27  C   UNL     1       7.263   4.745  13.546  0.00  0.00    +0.000 A 
ATOM     28  N   UNL     1       8.006   5.535  14.282  0.00  0.00    +0.000 NA
ATOM     29  N   UNL     1       7.270   5.889  15.386  0.00  0.00    +0.000 NA
ATOM     30  C   UNL     1       6.086   5.316  15.295  0.00  0.00    +0.000 A 
ENDBRANCH  24  30
ENDBRANCH  21  24
ENDBRANCH   1  21
TORSDOF 5
ENDMDL
MODEL 6
REMARK VINA RESULT:      -8.6      3.701      8.341
REMARK  Name = 
REMARK  7 active torsions:
REMARK  status: ('A' for Active; 'I' for Inactive)
REMARK    1  A    between atoms: C_1  and  N_2
REMARK    2  A    between atoms: C_6  and  C_7
REMARK    3  A    between atoms: C_7  and  C_8
REMARK    4  A    between atoms: C_8  and  C_9
REMARK    5  A    between atoms: C_8  and  C_11
REMARK    6  A    between atoms: C_15  and  N_16
REMARK    7  A    between atoms: C_23  and  C_24
REMARK                            x       y       z     vdW  Elec       q    Type
REMARK                         _______ _______ _______ _____ _____    ______ ____
ROOT
ATOM      1  C   UNL     1      -1.033  10.958  19.886  0.00  0.00    +0.000 A 
ATOM      2  C   UNL     1      -0.774  11.494  21.149  0.00  0.00    +0.000 A 
ATOM      3  C   UNL     1       0.259  10.971  21.939  0.00  0.00    +0.000 A 
ATOM      4  C   UNL     1       1.061   9.915  21.480  0.00  0.00    +0.000 A 
ATOM      5  C   UNL     1       0.827   9.359  20.227  0.00  0.00    +0.000 A 
ATOM      6  C   UNL     1      -0.234   9.889  19.463  0.00  0.00    +0.000 A 
ENDROOT
BRANCH   5   7
ATOM      7  N   UNL     1       1.609   8.314  19.669  0.00  0.00    +0.000 N 
ATOM      8  C   UNL     1       1.628   7.025  20.326  0.00  0.00    +0.000 C 
ATOM      9  C   UNL     1       2.427   6.162  19.427  0.00  0.00    +0.000 A 
ATOM     10  C   UNL     1       2.894   6.915  18.354  0.00  0.00    +0.000 A 
ATOM     11  C   UNL     1       3.668   6.339  17.366  0.00  0.00    +0.000 A 
ATOM     12  C   UNL     1       3.961   4.972  17.484  0.00  0.00    +0.000 A 
ATOM     13  C   UNL     1       3.474   4.213  18.568  0.00  0.00    +0.000 A 
ATOM     14  C   UNL     1       2.694   4.802  19.566  0.00  0.00    +0.000 A 
ATOM     15  C   UNL     1       2.368   8.301  18.492  0.00  0.00    +0.000 C 
ATOM     16  O   UNL     1       2.585   9.178  17.680  0.00  0.00    +0.000 OA
BRANCH  14  17
ATOM     17  C   UNL     1       2.142   3.995  20.718  0.00  0.00    +0.000 C 
ATOM     18  F   UNL     1       2.501   4.467  21.945  0.00  0.00    +0.000 F 
ATOM     19  F   UNL     1       0.782   3.962  20.725  0.00  0.00    +0.000 F 
ATOM     20  F   UNL     1       2.556   2.699  20.692  0.00  0.00    +0.000 F 
ENDBRANCH  14  17
ENDBRANCH   5   7
BRANCH   1  21
ATOM     21  C   UNL     1      -2.133  11.452  18.953  0.00  0.00    +0.000 C 
ATOM     22  C   UNL     1      -3.000  12.500  19.658  0.00  0.00    +0.000 C 
ATOM     23  F   UNL     1      -1.616  12.121  17.858  0.00  0.00    +0.000 F 
BRANCH  21  24
ATOM     24  C   UNL     1      -3.015  10.327  18.382  0.00  0.00    +0.000 C 
BRANCH  24  30
ATOM     25  C   UNL     1      -5.162  11.908  16.727  0.00  0.00    +0.000 C 
ATOM     26  N   UNL     1      -4.098  11.094  16.200  0.00  0.00    +0.000 N 
ATOM     27  C   UNL     1      -3.863  10.852  14.882  0.00  0.00    +0.000 A 
ATOM     28  N   UNL     1      -2.835  10.046  14.762  0.00  0.00    +0.000 NA
ATOM     29  N   UNL     1      -2.391   9.748  16.026  0.00  0.00    +0.000 NA
ATOM     30  C   UNL     1      -3.150  10.388  16.895  0.00  0.00    +0.000 A 
ENDBRANCH  24  30
ENDBRANCH  21  24
ENDBRANCH   1  21
TORSDOF 5
ENDMDL
MODEL 7
REMARK VINA RESULT:      -8.5      0.687      1.394
REMARK  Name = 
REMARK  7 active torsions:
REMARK  status: ('A' for Active; 'I' for Inactive)
REMARK    1  A    between atoms: C_1  and  N_2
REMARK    2  A    between atoms: C_6  and  C_7
REMARK    3  A    between atoms: C_7  and  C_8
REMARK    4  A    between atoms: C_8  and  C_9
REMARK    5  A    between atoms: C_8  and  C_11
REMARK    6  A    between atoms: C_15  and  N_16
REMARK    7  A    between atoms: C_23  and  C_24
REMARK                            x       y       z     vdW  Elec       q    Type
REMARK                         _______ _______ _______ _____ _____    ______ ____
ROOT
ATOM      1  C   UNL     1       4.377   5.315  17.533  0.00  0.00    +0.000 A 
ATOM      2  C   UNL     1       4.275   4.231  18.408  0.00  0.00    +0.000 A 
ATOM      3  C   UNL     1       3.464   4.318  19.547  0.00  0.00    +0.000 A 
ATOM      4  C   UNL     1       2.729   5.480  19.829  0.00  0.00    +0.000 A 
ATOM      5  C   UNL     1       2.811   6.577  18.978  0.00  0.00    +0.000 A 
ATOM      6  C   UNL     1       3.653   6.470  17.851  0.00  0.00    +0.000 A 
ENDROOT
BRANCH   5   7
ATOM      7  N   UNL     1       2.078   7.778  19.166  0.00  0.00    +0.000 N 
ATOM      8  C   UNL     1       1.432   8.014  20.438  0.00  0.00    +0.000 C 
ATOM      9  C   UNL     1       0.876   9.380  20.325  0.00  0.00    +0.000 A 
ATOM     10  C   UNL     1       1.127   9.880  19.051  0.00  0.00    +0.000 A 
ATOM     11  C   UNL     1       0.709  11.146  18.689  0.00  0.00    +0.000 A 
ATOM     12  C   UNL     1       0.029  11.906  19.653  0.00  0.00    +0.000 A 
ATOM     13  C   UNL     1      -0.211  11.398  20.946  0.00  0.00    +0.000 A 
ATOM     14  C   UNL     1       0.212  10.115  21.305  0.00  0.00    +0.000 A 
ATOM     15  C   UNL     1       1.908   8.862  18.295  0.00  0.00    +0.000 C 
ATOM     16  O   UNL     1       2.300   9.034  17.159  0.00  0.00    +0.000 OA
BRANCH  14  17
ATOM     17  C   UNL     1      -0.014   9.568  22.695  0.00  0.00    +0.000 C 
ATOM     18  F   UNL     1       1.132   9.228  23.349  0.00  0.00    +0.000 F 
ATOM     19  F   UNL     1      -0.645  10.458  23.508  0.00  0.00    +0.000 F 
ATOM     20  F   UNL     1      -0.780   8.443  22.694  0.00  0.00    +0.000 F 
ENDBRANCH  14  17
ENDBRANCH   5   7
BRANCH   1  21
ATOM     21  C   UNL     1       5.232   5.323  16.271  0.00  0.00    +0.000 C 
ATOM     22  C   UNL     1       4.617   4.409  15.205  0.00  0.00    +0.000 C 
ATOM     23  F   UNL     1       5.257   6.570  15.675  0.00  0.00    +0.000 F 
BRANCH  21  24
ATOM     24  C   UNL     1       6.703   4.942  16.514  0.00  0.00    +0.000 C 
BRANCH  24  30
ATOM     25  C   UNL     1       7.633   7.820  17.347  0.00  0.00    +0.000 C 
ATOM     26  N   UNL     1       7.602   6.651  18.184  0.00  0.00    +0.000 N 
ATOM     27  C   UNL     1       8.001   6.596  19.484  0.00  0.00    +0.000 A 
ATOM     28  N   UNL     1       7.866   5.371  19.932  0.00  0.00    +0.000 NA
ATOM     29  N   UNL     1       7.375   4.605  18.903  0.00  0.00    +0.000 NA
ATOM     30  C   UNL     1       7.207   5.381  17.850  0.00  0.00    +0.000 A 
ENDBRANCH  24  30
ENDBRANCH  21  24
ENDBRANCH   1  21
TORSDOF 5
ENDMDL
MODEL 8
REMARK VINA RESULT:      -8.4      1.678      2.168
REMARK  Name = 
REMARK  7 active torsions:
REMARK  status: ('A' for Active; 'I' for Inactive)
REMARK    1  A    between atoms: C_1  and  N_2
REMARK    2  A    between atoms: C_6  and  C_7
REMARK    3  A    between atoms: C_7  and  C_8
REMARK    4  A    between atoms: C_8  and  C_9
REMARK    5  A    between atoms: C_8  and  C_11
REMARK    6  A    between atoms: C_15  and  N_16
REMARK    7  A    between atoms: C_23  and  C_24
REMARK                            x       y       z     vdW  Elec       q    Type
REMARK                         _______ _______ _______ _____ _____    ______ ____
ROOT
ATOM      1  C   UNL     1       2.863   3.869  18.872  0.00  0.00    +0.000 A 
ATOM      2  C   UNL     1       2.788   3.136  20.058  0.00  0.00    +0.000 A 
ATOM      3  C   UNL     1       2.357   3.752  21.240  0.00  0.00    +0.000 A 
ATOM      4  C   UNL     1       1.980   5.104  21.260  0.00  0.00    +0.000 A 
ATOM      5  C   UNL     1       2.045   5.860  20.095  0.00  0.00    +0.000 A 
ATOM      6  C   UNL     1       2.505   5.221  18.924  0.00  0.00    +0.000 A 
ENDROOT
BRANCH   5   7
ATOM      7  N   UNL     1       1.652   7.222  20.015  0.00  0.00    +0.000 N 
ATOM      8  C   UNL     1       0.950   7.817  21.130  0.00  0.00    +0.000 C 
ATOM      9  C   UNL     1       0.807   9.242  20.762  0.00  0.00    +0.000 A 
ATOM     10  C   UNL     1       1.334   9.449  19.490  0.00  0.00    +0.000 A 
ATOM     11  C   UNL     1       1.323  10.704  18.913  0.00  0.00    +0.000 A 
ATOM     12  C   UNL     1       0.769  11.757  19.656  0.00  0.00    +0.000 A 
ATOM     13  C   UNL     1       0.248  11.542  20.948  0.00  0.00    +0.000 A 
ATOM     14  C   UNL     1       0.258  10.270  21.526  0.00  0.00    +0.000 A 
ATOM     15  C   UNL     1       1.889   8.158  19.000  0.00  0.00    +0.000 C 
ATOM     16  O   UNL     1       2.445   8.039  17.927  0.00  0.00    +0.000 OA
BRANCH  14  17
ATOM     17  C   UNL     1      -0.271  10.030  22.920  0.00  0.00    +0.000 C 
ATOM     18  F   UNL     1      -1.194   9.032  22.998  0.00  0.00    +0.000 F 
ATOM     19  F   UNL     1       0.711   9.686  23.797  0.00  0.00    +0.000 F 
ATOM     20  F   UNL     1      -0.880  11.130  23.443  0.00  0.00    +0.000 F 
ENDBRANCH  14  17
ENDBRANCH   5   7
BRANCH   1  21
ATOM     21  C   UNL     1       3.322   3.294  17.536  0.00  0.00    +0.000 C 
ATOM     22  C   UNL     1       4.042   1.959  17.749  0.00  0.00    +0.000 C 
ATOM     23  F   UNL     1       2.252   2.977  16.718  0.00  0.00    +0.000 F 
BRANCH  21  24
ATOM     24  C   UNL     1       4.207   4.252  16.718  0.00  0.00    +0.000 C 
BRANCH  24  30
ATOM     25  C   UNL     1       6.904   4.375  15.118  0.00  0.00    +0.000 C 
ATOM     26  N   UNL     1       6.747   4.447  16.546  0.00  0.00    +0.000 N 
ATOM     27  C   UNL     1       7.758   4.555  17.451  0.00  0.00    +0.000 A 
ATOM     28  N   UNL     1       7.262   4.565  18.664  0.00  0.00    +0.000 NA
ATOM     29  N   UNL     1       5.898   4.453  18.555  0.00  0.00    +0.000 NA
ATOM     30  C   UNL     1       5.587   4.391  17.275  0.00  0.00    +0.000 A 
ENDBRANCH  24  30
ENDBRANCH  21  24
ENDBRANCH   1  21
TORSDOF 5
ENDMDL
MODEL 9
REMARK VINA RESULT:      -8.4      3.354      8.137
REMARK  Name = 
REMARK  7 active torsions:
REMARK  status: ('A' for Active; 'I' for Inactive)
REMARK    1  A    between atoms: C_1  and  N_2
REMARK    2  A    between atoms: C_6  and  C_7
REMARK    3  A    between atoms: C_7  and  C_8
REMARK    4  A    between atoms: C_8  and  C_9
REMARK    5  A    between atoms: C_8  and  C_11
REMARK    6  A    between atoms: C_15  and  N_16
REMARK    7  A    between atoms: C_23  and  C_24
REMARK                            x       y       z     vdW  Elec       q    Type
REMARK                         _______ _______ _______ _____ _____    ______ ____
ROOT
ATOM      1  C   UNL     1       0.910   9.690  20.018  0.00  0.00    +0.000 A 
ATOM      2  C   UNL     1       1.135  10.601  18.984  0.00  0.00    +0.000 A 
ATOM      3  C   UNL     1       1.903  10.230  17.872  0.00  0.00    +0.000 A 
ATOM      4  C   UNL     1       2.449   8.941  17.764  0.00  0.00    +0.000 A 
ATOM      5  C   UNL     1       2.244   8.013  18.777  0.00  0.00    +0.000 A 
ATOM      6  C   UNL     1       1.486   8.421  19.896  0.00  0.00    +0.000 A 
ENDROOT
BRANCH   5   7
ATOM      7  N   UNL     1       2.728   6.679  18.736  0.00  0.00    +0.000 N 
ATOM      8  C   UNL     1       2.305   5.747  19.758  0.00  0.00    +0.000 C 
ATOM      9  C   UNL     1       2.892   4.453  19.346  0.00  0.00    +0.000 A 
ATOM     10  C   UNL     1       3.657   4.634  18.198  0.00  0.00    +0.000 A 
ATOM     11  C   UNL     1       4.314   3.572  17.608  0.00  0.00    +0.000 A 
ATOM     12  C   UNL     1       4.177   2.309  18.204  0.00  0.00    +0.000 A 
ATOM     13  C   UNL     1       3.389   2.131  19.361  0.00  0.00    +0.000 A 
ATOM     14  C   UNL     1       2.730   3.210  19.955  0.00  0.00    +0.000 A 
ATOM     15  C   UNL     1       3.555   6.061  17.789  0.00  0.00    +0.000 C 
ATOM     16  O   UNL     1       4.096   6.510  16.798  0.00  0.00    +0.000 OA
BRANCH  14  17
ATOM     17  C   UNL     1       1.861   3.030  21.177  0.00  0.00    +0.000 C 
ATOM     18  F   UNL     1       2.234   3.796  22.240  0.00  0.00    +0.000 F 
ATOM     19  F   UNL     1       0.559   3.347  20.941  0.00  0.00    +0.000 F 
ATOM     20  F   UNL     1       1.863   1.748  21.634  0.00  0.00    +0.000 F 
ENDBRANCH  14  17
ENDBRANCH   5   7
BRANCH   1  21
ATOM     21  C   UNL     1       0.093   9.996  21.269  0.00  0.00    +0.000 C 
ATOM     22  C   UNL     1      -0.543   8.714  21.816  0.00  0.00    +0.000 C 
ATOM     23  F   UNL     1       0.889  10.449  22.305  0.00  0.00    +0.000 F 
BRANCH  21  24
ATOM     24  C   UNL     1      -0.983  11.076  21.060  0.00  0.00    +0.000 C 
BRANCH  24  30
ATOM     25  C   UNL     1      -2.825  12.144  23.365  0.00  0.00    +0.000 C 
ATOM     26  N   UNL     1      -1.590  12.726  22.912  0.00  0.00    +0.000 N 
ATOM     27  C   UNL     1      -1.024  13.865  23.397  0.00  0.00    +0.000 A 
ATOM     28  N   UNL     1       0.079  14.122  22.737  0.00  0.00    +0.000 NA
ATOM     29  N   UNL     1       0.238  13.136  21.794  0.00  0.00    +0.000 NA
ATOM     30  C   UNL     1      -0.766  12.289  21.906  0.00  0.00    +0.000 A 
ENDBRANCH  24  30
ENDBRANCH  21  24
ENDBRANCH   1  21
TORSDOF 5
ENDMDL
