MODEL 1
REMARK VINA RESULT:      -9.0      0.000      0.000
REMARK  Name = 
REMARK  9 active torsions:
REMARK  status: ('A' for Active; 'I' for Inactive)
REMARK    1  A    between atoms: C_1  and  C_2
REMARK    2  A    between atoms: C_2  and  C_3
REMARK    3  A    between atoms: C_2  and  N_33
REMARK    4  A    between atoms: C_7  and  C_8
REMARK    5  A    between atoms: N_13  and  C_14
REMARK    6  A    between atoms: C_18  and  C_19
REMARK    7  A    between atoms: C_19  and  C_20
REMARK    8  A    between atoms: C_20  and  C_21
REMARK    9  A    between atoms: N_25  and  C_26
REMARK                            x       y       z     vdW  Elec       q    Type
REMARK                         _______ _______ _______ _____ _____    ______ ____
ROOT
ATOM      1  C   UNL     1       4.817   5.361  16.924  0.00  0.00    +0.000 A 
ATOM      2  C   UNL     1       4.145   6.571  16.898  0.00  0.00    +0.000 A 
ATOM      3  C   UNL     1       3.214   6.750  17.886  0.00  0.00    +0.000 A 
ATOM      4  C   UNL     1       2.920   5.786  18.833  0.00  0.00    +0.000 A 
ATOM      5  C   UNL     1       3.587   4.582  18.805  0.00  0.00    +0.000 A 
ATOM      6  N   UNL     1       4.530   4.378  17.843  0.00  0.00    +0.000 NA
ATOM      7  C   UNL     1       1.923   6.319  19.796  0.00  0.00    +0.000 C 
ATOM      8  N   UNL     1       1.809   7.723  19.397  0.00  0.00    +0.000 N 
ATOM      9  C   UNL     1       2.520   7.986  18.234  0.00  0.00    +0.000 C 
ATOM     10  O   UNL     1       2.645   9.013  17.593  0.00  0.00    +0.000 OA
ENDROOT
BRANCH   8  11
ATOM     11  C   UNL     1       1.334   8.697  20.305  0.00  0.00    +0.000 A 
ATOM     12  C   UNL     1       1.186   8.407  21.664  0.00  0.00    +0.000 A 
ATOM     13  C   UNL     1       0.570   9.316  22.517  0.00  0.00    +0.000 A 
ATOM     14  C   UNL     1       0.092  10.525  22.016  0.00  0.00    +0.000 A 
ATOM     15  C   UNL     1       0.219  10.865  20.655  0.00  0.00    +0.000 A 
ATOM     16  C   UNL     1       0.891   9.939  19.833  0.00  0.00    +0.000 A 
BRANCH  15  17
ATOM     17  C   UNL     1      -0.451  12.184  20.051  0.00  0.00    +0.000 C 
ATOM     18  C   UNL     1       0.331  12.999  18.979  0.00  0.00    +0.000 C 
ATOM     19  O   UNL     1      -0.852  13.062  18.133  0.00  0.00    +0.000 OA
ATOM     20  C   UNL     1      -1.400  11.925  18.843  0.00  0.00    +0.000 C 
BRANCH  17  21
ATOM     21  C   UNL     1      -1.105  13.055  21.136  0.00  0.00    +0.000 C 
BRANCH  21  22
ATOM     22  C   UNL     1      -0.238  14.179  21.597  0.00  0.00    +0.000 A 
ATOM     23  N   UNL     1       0.910  14.062  22.235  0.00  0.00    +0.000 NA
ATOM     24  N   UNL     1       1.427  15.320  22.427  0.00  0.00    +0.000 NA
ATOM     25  C   UNL     1       0.591  16.181  21.897  0.00  0.00    +0.000 A 
ATOM     26  N   UNL     1      -0.476  15.514  21.378  0.00  0.00    +0.000 N 
ATOM     27  C   UNL     1      -1.599  16.124  20.719  0.00  0.00    +0.000 C 
ENDBRANCH  21  22
ENDBRANCH  17  21
ENDBRANCH  15  17
ENDBRANCH   8  11
BRANCH   5  28
ATOM     28  C   UNL     1       3.325   3.512  19.841  0.00  0.00    +0.000 C 
ATOM     29  C   UNL     1       1.943   2.927  20.022  0.00  0.00    +0.000 C 
ATOM     30  C   UNL     1       3.021   2.096  19.393  0.00  0.00    +0.000 C 
ENDBRANCH   5  28
BRANCH   1  32
ATOM     31  C   UNL     1       5.957   3.764  15.340  0.00  0.00    +0.000 C 
ATOM     32  C   UNL     1       6.002   5.163  15.975  0.00  0.00    +0.000 C 
BRANCH  32  33
ATOM     33  N   UNL     1       7.356   5.465  16.514  0.00  0.00    +0.000 NA
ATOM     34  C   UNL     1       7.807   4.612  17.618  0.00  0.00    +0.000 C 
ATOM     35  C   UNL     1       7.411   5.342  18.886  0.00  0.00    +0.000 C 
ATOM     36  C   UNL     1       7.555   6.807  18.515  0.00  0.00    +0.000 C 
ATOM     37  C   UNL     1       7.549   6.843  16.988  0.00  0.00    +0.000 C 
ENDBRANCH  32  33
ENDBRANCH   1  32
TORSDOF 7
ENDMDL
MODEL 2
REMARK VINA RESULT:      -8.9      1.486      1.822
REMARK  Name = 
REMARK  9 active torsions:
REMARK  status: ('A' for Active; 'I' for Inactive)
REMARK    1  A    between atoms: C_1  and  C_2
REMARK    2  A    between atoms: C_2  and  C_3
REMARK    3  A    between atoms: C_2  and  N_33
REMARK    4  A    between atoms: C_7  and  C_8
REMARK    5  A    between atoms: N_13  and  C_14
REMARK    6  A    between atoms: C_18  and  C_19
REMARK    7  A    between atoms: C_19  and  C_20
REMARK    8  A    between atoms: C_20  and  C_21
REMARK    9  A    between atoms: N_25  and  C_26
REMARK                            x       y       z     vdW  Elec       q    Type
REMARK                         _______ _______ _______ _____ _____    ______ ____
ROOT
ATOM      1  C   UNL     1       4.781   5.542  16.683  0.00  0.00    +0.000 A 
ATOM      2  C   UNL     1       4.172   6.783  16.767  0.00  0.00    +0.000 A 
ATOM      3  C   UNL     1       3.225   6.911  17.747  0.00  0.00    +0.000 A 
ATOM      4  C   UNL     1       2.856   5.873  18.583  0.00  0.00    +0.000 A 
ATOM      5  C   UNL     1       3.461   4.644  18.446  0.00  0.00    +0.000 A 
ATOM      6  N   UNL     1       4.418   4.489  17.489  0.00  0.00    +0.000 NA
ATOM      7  C   UNL     1       1.862   6.359  19.573  0.00  0.00    +0.000 C 
ATOM      8  N   UNL     1       1.831   7.800  19.319  0.00  0.00    +0.000 N 
ATOM      9  C   UNL     1       2.587   8.141  18.205  0.00  0.00    +0.000 C 
ATOM     10  O   UNL     1       2.781   9.220  17.675  0.00  0.00    +0.000 OA
ENDROOT
BRANCH   8  11
ATOM     11  C   UNL     1       1.381   8.701  20.312  0.00  0.00    +0.000 A 
ATOM     12  C   UNL     1       1.384   8.347  21.663  0.00  0.00    +0.000 A 
ATOM     13  C   UNL     1       0.794   9.176  22.611  0.00  0.00    +0.000 A 
ATOM     14  C   UNL     1       0.191  10.367  22.214  0.00  0.00    +0.000 A 
ATOM     15  C   UNL     1       0.164  10.769  20.864  0.00  0.00    +0.000 A 
ATOM     16  C   UNL     1       0.813   9.926  19.941  0.00  0.00    +0.000 A 
BRANCH  15  17
ATOM     17  C   UNL     1      -0.647  12.060  20.387  0.00  0.00    +0.000 C 
ATOM     18  C   UNL     1      -0.230  12.760  19.060  0.00  0.00    +0.000 C 
ATOM     19  O   UNL     1      -1.617  12.800  18.620  0.00  0.00    +0.000 OA
ATOM     20  C   UNL     1      -1.929  11.743  19.560  0.00  0.00    +0.000 C 
BRANCH  17  21
ATOM     21  C   UNL     1      -0.921  13.037  21.543  0.00  0.00    +0.000 C 
BRANCH  21  22
ATOM     22  C   UNL     1      -2.305  12.935  22.091  0.00  0.00    +0.000 A 
ATOM     23  N   UNL     1      -2.742  12.016  22.931  0.00  0.00    +0.000 NA
ATOM     24  N   UNL     1      -4.048  12.302  23.241  0.00  0.00    +0.000 NA
ATOM     25  C   UNL     1      -4.384  13.393  22.594  0.00  0.00    +0.000 A 
ATOM     26  N   UNL     1      -3.329  13.817  21.847  0.00  0.00    +0.000 N 
ATOM     27  C   UNL     1      -3.323  14.980  21.000  0.00  0.00    +0.000 C 
ENDBRANCH  21  22
ENDBRANCH  17  21
ENDBRANCH  15  17
ENDBRANCH   8  11
BRANCH   5  28
ATOM     28  C   UNL     1       3.116   3.490  19.360  0.00  0.00    +0.000 C 
ATOM     29  C   UNL     1       3.381   2.061  18.943  0.00  0.00    +0.000 C 
ATOM     30  C   UNL     1       4.229   2.690  20.008  0.00  0.00    +0.000 C 
ENDBRANCH   5  28
BRANCH   1  32
ATOM     31  C   UNL     1       5.879   4.057  14.967  0.00  0.00    +0.000 C 
ATOM     32  C   UNL     1       5.980   5.379  15.745  0.00  0.00    +0.000 C 
BRANCH  32  33
ATOM     33  N   UNL     1       7.331   5.550  16.342  0.00  0.00    +0.000 NA
ATOM     34  C   UNL     1       7.706   4.567  17.364  0.00  0.00    +0.000 C 
ATOM     35  C   UNL     1       7.314   5.188  18.690  0.00  0.00    +0.000 C 
ATOM     36  C   UNL     1       7.546   6.672  18.473  0.00  0.00    +0.000 C 
ATOM     37  C   UNL     1       7.585   6.861  16.957  0.00  0.00    +0.000 C 
ENDBRANCH  32  33
ENDBRANCH   1  32
TORSDOF 7
ENDMDL
MODEL 3
REMARK VINA RESULT:      -8.9      2.185      3.428
REMARK  Name = 
REMARK  9 active torsions:
REMARK  status: ('A' for Active; 'I' for Inactive)
REMARK    1  A    between atoms: C_1  and  C_2
REMARK    2  A    between atoms: C_2  and  C_3
REMARK    3  A    between atoms: C_2  and  N_33
REMARK    4  A    between atoms: C_7  and  C_8
REMARK    5  A    between atoms: N_13  and  C_14
REMARK    6  A    between atoms: C_18  and  C_19
REMARK    7  A    between atoms: C_19  and  C_20
REMARK    8  A    between atoms: C_20  and  C_21
REMARK    9  A    between atoms: N_25  and  C_26
REMARK                            x       y       z     vdW  Elec       q    Type
REMARK                         _______ _______ _______ _____ _____    ______ ____
ROOT
ATOM      1  C   UNL     1       4.172   5.281  18.462  0.00  0.00    +0.000 A 
ATOM      2  C   UNL     1       3.568   6.497  18.193  0.00  0.00    +0.000 A 
ATOM      3  C   UNL     1       2.571   6.864  19.056  0.00  0.00    +0.000 A 
ATOM      4  C   UNL     1       2.152   6.071  20.110  0.00  0.00    +0.000 A 
ATOM      5  C   UNL     1       2.756   4.853  20.324  0.00  0.00    +0.000 A 
ATOM      6  N   UNL     1       3.761   4.465  19.491  0.00  0.00    +0.000 NA
ATOM      7  C   UNL     1       1.109   6.787  20.889  0.00  0.00    +0.000 C 
ATOM      8  N   UNL     1       1.101   8.114  20.273  0.00  0.00    +0.000 N 
ATOM      9  C   UNL     1       1.916   8.165  19.151  0.00  0.00    +0.000 C 
ATOM     10  O   UNL     1       2.145   9.074  18.373  0.00  0.00    +0.000 OA
ENDROOT
BRANCH   8  11
ATOM     11  C   UNL     1       0.604   9.236  20.977  0.00  0.00    +0.000 A 
ATOM     12  C   UNL     1       0.260   9.146  22.328  0.00  0.00    +0.000 A 
ATOM     13  C   UNL     1      -0.374  10.206  22.967  0.00  0.00    +0.000 A 
ATOM     14  C   UNL     1      -0.673  11.367  22.257  0.00  0.00    +0.000 A 
ATOM     15  C   UNL     1      -0.344  11.507  20.894  0.00  0.00    +0.000 A 
ATOM     16  C   UNL     1       0.339  10.430  20.296  0.00  0.00    +0.000 A 
BRANCH  15  17
ATOM     17  C   UNL     1      -0.810  12.776  20.043  0.00  0.00    +0.000 C 
ATOM     18  C   UNL     1      -1.774  13.808  20.700  0.00  0.00    +0.000 C 
ATOM     19  O   UNL     1      -0.934  14.909  20.252  0.00  0.00    +0.000 OA
ATOM     20  C   UNL     1       0.171  13.984  20.101  0.00  0.00    +0.000 C 
BRANCH  17  21
ATOM     21  C   UNL     1      -1.195  12.401  18.601  0.00  0.00    +0.000 C 
BRANCH  21  22
ATOM     22  C   UNL     1      -2.548  11.780  18.491  0.00  0.00    +0.000 A 
ATOM     23  N   UNL     1      -3.646  12.201  19.088  0.00  0.00    +0.000 NA
ATOM     24  N   UNL     1      -4.688  11.402  18.686  0.00  0.00    +0.000 NA
ATOM     25  C   UNL     1      -4.211  10.514  17.846  0.00  0.00    +0.000 A 
ATOM     26  N   UNL     1      -2.871  10.701  17.705  0.00  0.00    +0.000 N 
ATOM     27  C   UNL     1      -2.004   9.915  16.868  0.00  0.00    +0.000 C 
ENDBRANCH  21  22
ENDBRANCH  17  21
ENDBRANCH  15  17
ENDBRANCH   8  11
BRANCH   5  28
ATOM     28  C   UNL     1       2.356   3.968  21.483  0.00  0.00    +0.000 C 
ATOM     29  C   UNL     1       1.278   2.921  21.326  0.00  0.00    +0.000 C 
ATOM     30  C   UNL     1       2.709   2.495  21.457  0.00  0.00    +0.000 C 
ENDBRANCH   5  28
BRANCH   1  32
ATOM     31  C   UNL     1       6.684   5.071  18.514  0.00  0.00    +0.000 C 
ATOM     32  C   UNL     1       5.418   4.892  17.661  0.00  0.00    +0.000 C 
BRANCH  32  33
ATOM     33  N   UNL     1       5.580   5.515  16.320  0.00  0.00    +0.000 NA
ATOM     34  C   UNL     1       4.976   4.785  15.201  0.00  0.00    +0.000 C 
ATOM     35  C   UNL     1       6.078   3.902  14.648  0.00  0.00    +0.000 C 
ATOM     36  C   UNL     1       7.335   4.726  14.856  0.00  0.00    +0.000 C 
ATOM     37  C   UNL     1       6.968   5.770  15.910  0.00  0.00    +0.000 C 
ENDBRANCH  32  33
ENDBRANCH   1  32
TORSDOF 7
ENDMDL
MODEL 4
REMARK VINA RESULT:      -8.9      1.516      2.358
REMARK  Name = 
REMARK  9 active torsions:
REMARK  status: ('A' for Active; 'I' for Inactive)
REMARK    1  A    between atoms: C_1  and  C_2
REMARK    2  A    between atoms: C_2  and  C_3
REMARK    3  A    between atoms: C_2  and  N_33
REMARK    4  A    between atoms: C_7  and  C_8
REMARK    5  A    between atoms: N_13  and  C_14
REMARK    6  A    between atoms: C_18  and  C_19
REMARK    7  A    between atoms: C_19  and  C_20
REMARK    8  A    between atoms: C_20  and  C_21
REMARK    9  A    between atoms: N_25  and  C_26
REMARK                            x       y       z     vdW  Elec       q    Type
REMARK                         _______ _______ _______ _____ _____    ______ ____
ROOT
ATOM      1  C   UNL     1       4.324   5.460  18.599  0.00  0.00    +0.000 A 
ATOM      2  C   UNL     1       3.702   6.668  18.335  0.00  0.00    +0.000 A 
ATOM      3  C   UNL     1       2.638   6.972  19.142  0.00  0.00    +0.000 A 
ATOM      4  C   UNL     1       2.174   6.126  20.133  0.00  0.00    +0.000 A 
ATOM      5  C   UNL     1       2.799   4.918  20.341  0.00  0.00    +0.000 A 
ATOM      6  N   UNL     1       3.871   4.593  19.565  0.00  0.00    +0.000 NA
ATOM      7  C   UNL     1       1.059   6.780  20.865  0.00  0.00    +0.000 C 
ATOM      8  N   UNL     1       1.051   8.130  20.301  0.00  0.00    +0.000 N 
ATOM      9  C   UNL     1       1.938   8.249  19.240  0.00  0.00    +0.000 C 
ATOM     10  O   UNL     1       2.190   9.194  18.516  0.00  0.00    +0.000 OA
ENDROOT
BRANCH   8  11
ATOM     11  C   UNL     1       0.473   9.208  21.012  0.00  0.00    +0.000 A 
ATOM     12  C   UNL     1       0.366   9.180  22.405  0.00  0.00    +0.000 A 
ATOM     13  C   UNL     1      -0.344  10.168  23.078  0.00  0.00    +0.000 A 
ATOM     14  C   UNL     1      -0.958  11.194  22.361  0.00  0.00    +0.000 A 
ATOM     15  C   UNL     1      -0.876  11.267  20.957  0.00  0.00    +0.000 A 
ATOM     16  C   UNL     1      -0.109  10.274  20.316  0.00  0.00    +0.000 A 
BRANCH  15  17
ATOM     17  C   UNL     1      -1.694  12.357  20.123  0.00  0.00    +0.000 C 
ATOM     18  C   UNL     1      -2.846  11.878  19.189  0.00  0.00    +0.000 C 
ATOM     19  O   UNL     1      -3.734  12.897  19.729  0.00  0.00    +0.000 OA
ATOM     20  C   UNL     1      -2.884  12.997  20.898  0.00  0.00    +0.000 C 
BRANCH  17  21
ATOM     21  C   UNL     1      -0.775  13.411  19.482  0.00  0.00    +0.000 C 
BRANCH  21  22
ATOM     22  C   UNL     1       0.409  13.755  20.322  0.00  0.00    +0.000 A 
ATOM     23  N   UNL     1       0.377  14.320  21.514  0.00  0.00    +0.000 NA
ATOM     24  N   UNL     1       1.665  14.413  21.981  0.00  0.00    +0.000 NA
ATOM     25  C   UNL     1       2.459  13.899  21.072  0.00  0.00    +0.000 A 
ATOM     26  N   UNL     1       1.718  13.488  20.006  0.00  0.00    +0.000 N 
ATOM     27  C   UNL     1       2.242  12.877  18.815  0.00  0.00    +0.000 C 
ENDBRANCH  21  22
ENDBRANCH  17  21
ENDBRANCH  15  17
ENDBRANCH   8  11
BRANCH   5  28
ATOM     28  C   UNL     1       2.350   3.976  21.436  0.00  0.00    +0.000 C 
ATOM     29  C   UNL     1       1.260   2.960  21.189  0.00  0.00    +0.000 C 
ATOM     30  C   UNL     1       2.679   2.501  21.336  0.00  0.00    +0.000 C 
ENDBRANCH   5  28
BRANCH   1  32
ATOM     31  C   UNL     1       6.831   5.300  18.821  0.00  0.00    +0.000 C 
ATOM     32  C   UNL     1       5.633   5.139  17.871  0.00  0.00    +0.000 C 
BRANCH  32  33
ATOM     33  N   UNL     1       5.874   5.835  16.579  0.00  0.00    +0.000 NA
ATOM     34  C   UNL     1       4.964   5.481  15.485  0.00  0.00    +0.000 C 
ATOM     35  C   UNL     1       5.654   4.364  14.726  0.00  0.00    +0.000 C 
ATOM     36  C   UNL     1       7.127   4.706  14.847  0.00  0.00    +0.000 C 
ATOM     37  C   UNL     1       7.226   5.676  16.023  0.00  0.00    +0.000 C 
ENDBRANCH  32  33
ENDBRANCH   1  32
TORSDOF 7
ENDMDL
MODEL 5
REMARK VINA RESULT:      -8.9      1.958      9.158
REMARK  Name = 
REMARK  9 active torsions:
REMARK  status: ('A' for Active; 'I' for Inactive)
REMARK    1  A    between atoms: C_1  and  C_2
REMARK    2  A    between atoms: C_2  and  C_3
REMARK    3  A    between atoms: C_2  and  N_33
REMARK    4  A    between atoms: C_7  and  C_8
REMARK    5  A    between atoms: N_13  and  C_14
REMARK    6  A    between atoms: C_18  and  C_19
REMARK    7  A    between atoms: C_19  and  C_20
REMARK    8  A    between atoms: C_20  and  C_21
REMARK    9  A    between atoms: N_25  and  C_26
REMARK                            x       y       z     vdW  Elec       q    Type
REMARK                         _______ _______ _______ _____ _____    ______ ____
ROOT
ATOM      1  C   UNL     1      -0.014  11.225  19.316  0.00  0.00    +0.000 A 
ATOM      2  C   UNL     1       0.896  10.626  18.462  0.00  0.00    +0.000 A 
ATOM      3  C   UNL     1       1.425   9.441  18.899  0.00  0.00    +0.000 A 
ATOM      4  C   UNL     1       1.115   8.881  20.125  0.00  0.00    +0.000 A 
ATOM      5  C   UNL     1       0.231   9.525  20.961  0.00  0.00    +0.000 A 
ATOM      6  N   UNL     1      -0.323  10.698  20.549  0.00  0.00    +0.000 NA
ATOM      7  C   UNL     1       1.798   7.569  20.262  0.00  0.00    +0.000 C 
ATOM      8  N   UNL     1       2.385   7.372  18.936  0.00  0.00    +0.000 N 
ATOM      9  C   UNL     1       2.225   8.492  18.132  0.00  0.00    +0.000 C 
ATOM     10  O   UNL     1       2.593   8.713  16.993  0.00  0.00    +0.000 OA
ENDROOT
BRANCH   8  11
ATOM     11  C   UNL     1       2.725   6.077  18.480  0.00  0.00    +0.000 A 
ATOM     12  C   UNL     1       2.125   4.939  19.025  0.00  0.00    +0.000 A 
ATOM     13  C   UNL     1       2.580   3.670  18.684  0.00  0.00    +0.000 A 
ATOM     14  C   UNL     1       3.645   3.528  17.795  0.00  0.00    +0.000 A 
ATOM     15  C   UNL     1       4.281   4.644  17.218  0.00  0.00    +0.000 A 
ATOM     16  C   UNL     1       3.760   5.910  17.552  0.00  0.00    +0.000 A 
BRANCH  15  17
ATOM     17  C   UNL     1       5.588   4.492  16.312  0.00  0.00    +0.000 C 
ATOM     18  C   UNL     1       5.590   3.433  15.170  0.00  0.00    +0.000 C 
ATOM     19  O   UNL     1       6.116   4.415  14.233  0.00  0.00    +0.000 OA
ATOM     20  C   UNL     1       5.649   5.474  15.104  0.00  0.00    +0.000 C 
BRANCH  17  21
ATOM     21  C   UNL     1       6.880   4.506  17.147  0.00  0.00    +0.000 C 
BRANCH  21  22
ATOM     22  C   UNL     1       7.393   5.880  17.424  0.00  0.00    +0.000 A 
ATOM     23  N   UNL     1       7.472   6.869  16.554  0.00  0.00    +0.000 NA
ATOM     24  N   UNL     1       7.936   7.983  17.210  0.00  0.00    +0.000 NA
ATOM     25  C   UNL     1       8.124   7.658  18.467  0.00  0.00    +0.000 A 
ATOM     26  N   UNL     1       7.813   6.345  18.645  0.00  0.00    +0.000 N 
ATOM     27  C   UNL     1       7.898   5.632  19.891  0.00  0.00    +0.000 C 
ENDBRANCH  21  22
ENDBRANCH  17  21
ENDBRANCH  15  17
ENDBRANCH   8  11
BRANCH   5  28
ATOM     28  C   UNL     1      -0.165   8.934  22.296  0.00  0.00    +0.000 C 
ATOM     29  C   UNL     1       0.579   9.299  23.560  0.00  0.00    +0.000 C 
ATOM     30  C   UNL     1      -0.811   9.817  23.343  0.00  0.00    +0.000 C 
ENDBRANCH   5  28
BRANCH   1  32
ATOM     31  C   UNL     1      -1.575  12.102  17.542  0.00  0.00    +0.000 C 
ATOM     32  C   UNL     1      -0.790  12.447  18.817  0.00  0.00    +0.000 C 
BRANCH  32  33
ATOM     33  N   UNL     1      -0.022  13.711  18.651  0.00  0.00    +0.000 NA
ATOM     34  C   UNL     1       1.340  13.705  19.193  0.00  0.00    +0.000 C 
ATOM     35  C   UNL     1       1.221  14.254  20.601  0.00  0.00    +0.000 C 
ATOM     36  C   UNL     1       0.098  15.268  20.496  0.00  0.00    +0.000 C 
ATOM     37  C   UNL     1      -0.657  14.910  19.217  0.00  0.00    +0.000 C 
ENDBRANCH  32  33
ENDBRANCH   1  32
TORSDOF 7
ENDMDL
MODEL 6
REMARK VINA RESULT:      -8.8      1.997      2.704
REMARK  Name = 
REMARK  9 active torsions:
REMARK  status: ('A' for Active; 'I' for Inactive)
REMARK    1  A    between atoms: C_1  and  C_2
REMARK    2  A    between atoms: C_2  and  C_3
REMARK    3  A    between atoms: C_2  and  N_33
REMARK    4  A    between atoms: C_7  and  C_8
REMARK    5  A    between atoms: N_13  and  C_14
REMARK    6  A    between atoms: C_18  and  C_19
REMARK    7  A    between atoms: C_19  and  C_20
REMARK    8  A    between atoms: C_20  and  C_21
REMARK    9  A    between atoms: N_25  and  C_26
REMARK                            x       y       z     vdW  Elec       q    Type
REMARK                         _______ _______ _______ _____ _____    ______ ____
ROOT
ATOM      1  C   UNL     1       4.765   5.587  16.832  0.00  0.00    +0.000 A 
ATOM      2  C   UNL     1       4.052   6.773  16.820  0.00  0.00    +0.000 A 
ATOM      3  C   UNL     1       3.148   6.929  17.837  0.00  0.00    +0.000 A 
ATOM      4  C   UNL     1       2.919   5.963  18.799  0.00  0.00    +0.000 A 
ATOM      5  C   UNL     1       3.624   4.782  18.757  0.00  0.00    +0.000 A 
ATOM      6  N   UNL     1       4.542   4.602  17.766  0.00  0.00    +0.000 NA
ATOM      7  C   UNL     1       1.936   6.470  19.791  0.00  0.00    +0.000 C 
ATOM      8  N   UNL     1       1.762   7.866  19.387  0.00  0.00    +0.000 N 
ATOM      9  C   UNL     1       2.425   8.143  18.200  0.00  0.00    +0.000 C 
ATOM     10  O   UNL     1       2.494   9.169  17.547  0.00  0.00    +0.000 OA
ENDROOT
BRANCH   8  11
ATOM     11  C   UNL     1       1.284   8.831  20.304  0.00  0.00    +0.000 A 
ATOM     12  C   UNL     1       1.131   8.526  21.659  0.00  0.00    +0.000 A 
ATOM     13  C   UNL     1       0.513   9.427  22.520  0.00  0.00    +0.000 A 
ATOM     14  C   UNL     1       0.037  10.641  22.030  0.00  0.00    +0.000 A 
ATOM     15  C   UNL     1       0.169  10.996  20.673  0.00  0.00    +0.000 A 
ATOM     16  C   UNL     1       0.843  10.078  19.844  0.00  0.00    +0.000 A 
BRANCH  15  17
ATOM     17  C   UNL     1      -0.499  12.320  20.081  0.00  0.00    +0.000 C 
ATOM     18  C   UNL     1       0.083  13.704  20.497  0.00  0.00    +0.000 C 
ATOM     19  O   UNL     1       0.100  14.138  19.108  0.00  0.00    +0.000 OA
ATOM     20  C   UNL     1       0.055  12.752  18.690  0.00  0.00    +0.000 C 
BRANCH  17  21
ATOM     21  C   UNL     1      -2.035  12.262  20.108  0.00  0.00    +0.000 C 
BRANCH  21  22
ATOM     22  C   UNL     1      -2.630  11.696  18.862  0.00  0.00    +0.000 A 
ATOM     23  N   UNL     1      -1.980  11.037  17.922  0.00  0.00    +0.000 NA
ATOM     24  N   UNL     1      -2.887  10.631  16.975  0.00  0.00    +0.000 NA
ATOM     25  C   UNL     1      -4.074  11.041  17.355  0.00  0.00    +0.000 A 
ATOM     26  N   UNL     1      -3.961  11.728  18.525  0.00  0.00    +0.000 N 
ATOM     27  C   UNL     1      -5.050  12.331  19.245  0.00  0.00    +0.000 C 
ENDBRANCH  21  22
ENDBRANCH  17  21
ENDBRANCH  15  17
ENDBRANCH   8  11
BRANCH   5  28
ATOM     28  C   UNL     1       3.433   3.712  19.808  0.00  0.00    +0.000 C 
ATOM     29  C   UNL     1       2.160   2.899  19.868  0.00  0.00    +0.000 C 
ATOM     30  C   UNL     1       3.428   2.253  19.398  0.00  0.00    +0.000 C 
ENDBRANCH   5  28
BRANCH   1  32
ATOM     31  C   UNL     1       5.834   4.064  15.130  0.00  0.00    +0.000 C 
ATOM     32  C   UNL     1       5.924   5.421  15.845  0.00  0.00    +0.000 C 
BRANCH  32  33
ATOM     33  N   UNL     1       7.295   5.664  16.369  0.00  0.00    +0.000 NA
ATOM     34  C   UNL     1       7.832   4.626  17.255  0.00  0.00    +0.000 C 
ATOM     35  C   UNL     1       7.484   5.072  18.662  0.00  0.00    +0.000 C 
ATOM     36  C   UNL     1       7.564   6.585  18.588  0.00  0.00    +0.000 C 
ATOM     37  C   UNL     1       7.473   6.926  17.102  0.00  0.00    +0.000 C 
ENDBRANCH  32  33
ENDBRANCH   1  32
TORSDOF 7
ENDMDL
MODEL 7
REMARK VINA RESULT:      -8.8      2.601      9.904
REMARK  Name = 
REMARK  9 active torsions:
REMARK  status: ('A' for Active; 'I' for Inactive)
REMARK    1  A    between atoms: C_1  and  C_2
REMARK    2  A    between atoms: C_2  and  C_3
REMARK    3  A    between atoms: C_2  and  N_33
REMARK    4  A    between atoms: C_7  and  C_8
REMARK    5  A    between atoms: N_13  and  C_14
REMARK    6  A    between atoms: C_18  and  C_19
REMARK    7  A    between atoms: C_19  and  C_20
REMARK    8  A    between atoms: C_20  and  C_21
REMARK    9  A    between atoms: N_25  and  C_26
REMARK                            x       y       z     vdW  Elec       q    Type
REMARK                         _______ _______ _______ _____ _____    ______ ____
ROOT
ATOM      1  C   UNL     1      -1.017  10.727  18.855  0.00  0.00    +0.000 A 
ATOM      2  C   UNL     1       0.070  10.252  18.142  0.00  0.00    +0.000 A 
ATOM      3  C   UNL     1       0.898   9.402  18.825  0.00  0.00    +0.000 A 
ATOM      4  C   UNL     1       0.702   9.058  20.151  0.00  0.00    +0.000 A 
ATOM      5  C   UNL     1      -0.372   9.579  20.835  0.00  0.00    +0.000 A 
ATOM      6  N   UNL     1      -1.223  10.417  20.179  0.00  0.00    +0.000 NA
ATOM      7  C   UNL     1       1.731   8.070  20.567  0.00  0.00    +0.000 C 
ATOM      8  N   UNL     1       2.416   7.770  19.310  0.00  0.00    +0.000 N 
ATOM      9  C   UNL     1       1.979   8.588  18.278  0.00  0.00    +0.000 C 
ATOM     10  O   UNL     1       2.324   8.652  17.112  0.00  0.00    +0.000 OA
ENDROOT
BRANCH   8  11
ATOM     11  C   UNL     1       3.142   6.566  19.151  0.00  0.00    +0.000 A 
ATOM     12  C   UNL     1       2.612   5.343  19.570  0.00  0.00    +0.000 A 
ATOM     13  C   UNL     1       3.395   4.193  19.555  0.00  0.00    +0.000 A 
ATOM     14  C   UNL     1       4.718   4.259  19.124  0.00  0.00    +0.000 A 
ATOM     15  C   UNL     1       5.297   5.467  18.690  0.00  0.00    +0.000 A 
ATOM     16  C   UNL     1       4.459   6.599  18.675  0.00  0.00    +0.000 A 
BRANCH  15  17
ATOM     17  C   UNL     1       6.850   5.575  18.330  0.00  0.00    +0.000 C 
ATOM     18  C   UNL     1       7.433   6.963  17.929  0.00  0.00    +0.000 C 
ATOM     19  O   UNL     1       8.550   6.780  18.844  0.00  0.00    +0.000 OA
ATOM     20  C   UNL     1       7.780   5.785  19.561  0.00  0.00    +0.000 C 
BRANCH  17  21
ATOM     21  C   UNL     1       7.321   4.421  17.427  0.00  0.00    +0.000 C 
BRANCH  21  22
ATOM     22  C   UNL     1       6.971   4.613  15.990  0.00  0.00    +0.000 A 
ATOM     23  N   UNL     1       7.683   5.278  15.099  0.00  0.00    +0.000 NA
ATOM     24  N   UNL     1       7.057   5.171  13.882  0.00  0.00    +0.000 NA
ATOM     25  C   UNL     1       5.981   4.439  14.047  0.00  0.00    +0.000 A 
ATOM     26  N   UNL     1       5.877   4.079  15.355  0.00  0.00    +0.000 N 
ATOM     27  C   UNL     1       4.823   3.277  15.915  0.00  0.00    +0.000 C 
ENDBRANCH  21  22
ENDBRANCH  17  21
ENDBRANCH  15  17
ENDBRANCH   8  11
BRANCH   5  28
ATOM     28  C   UNL     1      -0.646   9.205  22.274  0.00  0.00    +0.000 C 
ATOM     29  C   UNL     1       0.334   9.557  23.370  0.00  0.00    +0.000 C 
ATOM     30  C   UNL     1      -0.971  10.290  23.281  0.00  0.00    +0.000 C 
ENDBRANCH   5  28
BRANCH   1  32
ATOM     31  C   UNL     1      -2.862  12.432  19.077  0.00  0.00    +0.000 C 
ATOM     32  C   UNL     1      -2.088  11.525  18.106  0.00  0.00    +0.000 C 
BRANCH  32  33
ATOM     33  N   UNL     1      -3.016  10.756  17.234  0.00  0.00    +0.000 NA
ATOM     34  C   UNL     1      -3.861  11.554  16.341  0.00  0.00    +0.000 C 
ATOM     35  C   UNL     1      -5.156  11.779  17.097  0.00  0.00    +0.000 C 
ATOM     36  C   UNL     1      -5.326  10.504  17.902  0.00  0.00    +0.000 C 
ATOM     37  C   UNL     1      -3.942   9.858  17.941  0.00  0.00    +0.000 C 
ENDBRANCH  32  33
ENDBRANCH   1  32
TORSDOF 7
ENDMDL
MODEL 8
REMARK VINA RESULT:      -8.7      1.618      2.394
REMARK  Name = 
REMARK  9 active torsions:
REMARK  status: ('A' for Active; 'I' for Inactive)
REMARK    1  A    between atoms: C_1  and  C_2
REMARK    2  A    between atoms: C_2  and  C_3
REMARK    3  A    between atoms: C_2  and  N_33
REMARK    4  A    between atoms: C_7  and  C_8
REMARK    5  A    between atoms: N_13  and  C_14
REMARK    6  A    between atoms: C_18  and  C_19
REMARK    7  A    between atoms: C_19  and  C_20
REMARK    8  A    between atoms: C_20  and  C_21
REMARK    9  A    between atoms: N_25  and  C_26
REMARK                            x       y       z     vdW  Elec       q    Type
REMARK                         _______ _______ _______ _____ _____    ______ ____
ROOT
ATOM      1  C   UNL     1       3.991   5.254  18.248  0.00  0.00    +0.000 A 
ATOM      2  C   UNL     1       3.481   6.507  17.954  0.00  0.00    +0.000 A 
ATOM      3  C   UNL     1       2.541   6.982  18.828  0.00  0.00    +0.000 A 
ATOM      4  C   UNL     1       2.086   6.259  19.917  0.00  0.00    +0.000 A 
ATOM      5  C   UNL     1       2.594   5.002  20.156  0.00  0.00    +0.000 A 
ATOM      6  N   UNL     1       3.542   4.507  19.312  0.00  0.00    +0.000 NA
ATOM      7  C   UNL     1       1.126   7.082  20.697  0.00  0.00    +0.000 C 
ATOM      8  N   UNL     1       1.211   8.386  20.038  0.00  0.00    +0.000 N 
ATOM      9  C   UNL     1       1.998   8.335  18.895  0.00  0.00    +0.000 C 
ATOM     10  O   UNL     1       2.280   9.197  18.084  0.00  0.00    +0.000 OA
ENDROOT
BRANCH   8  11
ATOM     11  C   UNL     1       0.827   9.566  20.716  0.00  0.00    +0.000 A 
ATOM     12  C   UNL     1       0.117   9.509  21.919  0.00  0.00    +0.000 A 
ATOM     13  C   UNL     1      -0.392  10.669  22.493  0.00  0.00    +0.000 A 
ATOM     14  C   UNL     1      -0.198  11.898  21.866  0.00  0.00    +0.000 A 
ATOM     15  C   UNL     1       0.513  12.008  20.655  0.00  0.00    +0.000 A 
ATOM     16  C   UNL     1       1.053  10.817  20.130  0.00  0.00    +0.000 A 
BRANCH  15  17
ATOM     17  C   UNL     1       0.616  13.391  19.863  0.00  0.00    +0.000 C 
ATOM     18  C   UNL     1      -0.346  13.642  18.663  0.00  0.00    +0.000 C 
ATOM     19  O   UNL     1      -0.676  14.963  19.177  0.00  0.00    +0.000 OA
ATOM     20  C   UNL     1      -0.215  14.551  20.487  0.00  0.00    +0.000 C 
BRANCH  17  21
ATOM     21  C   UNL     1       2.073  13.796  19.583  0.00  0.00    +0.000 C 
BRANCH  21  22
ATOM     22  C   UNL     1       2.755  14.406  20.761  0.00  0.00    +0.000 A 
ATOM     23  N   UNL     1       3.225  13.756  21.809  0.00  0.00    +0.000 NA
ATOM     24  N   UNL     1       3.833  14.664  22.642  0.00  0.00    +0.000 NA
ATOM     25  C   UNL     1       3.732  15.848  22.086  0.00  0.00    +0.000 A 
ATOM     26  N   UNL     1       3.050  15.739  20.913  0.00  0.00    +0.000 N 
ATOM     27  C   UNL     1       2.741  16.828  20.027  0.00  0.00    +0.000 C 
ENDBRANCH  21  22
ENDBRANCH  17  21
ENDBRANCH  15  17
ENDBRANCH   8  11
BRANCH   5  28
ATOM     28  C   UNL     1       2.153   4.189  21.353  0.00  0.00    +0.000 C 
ATOM     29  C   UNL     1       1.240   2.997  21.190  0.00  0.00    +0.000 C 
ATOM     30  C   UNL     1       2.682   2.781  21.536  0.00  0.00    +0.000 C 
ENDBRANCH   5  28
BRANCH   1  32
ATOM     31  C   UNL     1       6.446   4.682  18.300  0.00  0.00    +0.000 C 
ATOM     32  C   UNL     1       5.179   4.739  17.431  0.00  0.00    +0.000 C 
BRANCH  32  33
ATOM     33  N   UNL     1       5.448   5.413  16.132  0.00  0.00    +0.000 NA
ATOM     34  C   UNL     1       4.992   4.697  14.937  0.00  0.00    +0.000 C 
ATOM     35  C   UNL     1       6.182   3.879  14.474  0.00  0.00    +0.000 C 
ATOM     36  C   UNL     1       7.374   4.746  14.833  0.00  0.00    +0.000 C 
ATOM     37  C   UNL     1       6.858   5.738  15.873  0.00  0.00    +0.000 C 
ENDBRANCH  32  33
ENDBRANCH   1  32
TORSDOF 7
ENDMDL
MODEL 9
REMARK VINA RESULT:      -8.7      1.151      1.667
REMARK  Name = 
REMARK  9 active torsions:
REMARK  status: ('A' for Active; 'I' for Inactive)
REMARK    1  A    between atoms: C_1  and  C_2
REMARK    2  A    between atoms: C_2  and  C_3
REMARK    3  A    between atoms: C_2  and  N_33
REMARK    4  A    between atoms: C_7  and  C_8
REMARK    5  A    between atoms: N_13  and  C_14
REMARK    6  A    between atoms: C_18  and  C_19
REMARK    7  A    between atoms: C_19  and  C_20
REMARK    8  A    between atoms: C_20  and  C_21
REMARK    9  A    between atoms: N_25  and  C_26
REMARK                            x       y       z     vdW  Elec       q    Type
REMARK                         _______ _______ _______ _____ _____    ______ ____
ROOT
ATOM      1  C   UNL     1       4.796   5.329  17.082  0.00  0.00    +0.000 A 
ATOM      2  C   UNL     1       4.096   6.519  16.988  0.00  0.00    +0.000 A 
ATOM      3  C   UNL     1       3.176   6.743  17.978  0.00  0.00    +0.000 A 
ATOM      4  C   UNL     1       2.919   5.837  18.991  0.00  0.00    +0.000 A 
ATOM      5  C   UNL     1       3.613   4.648  19.030  0.00  0.00    +0.000 A 
ATOM      6  N   UNL     1       4.545   4.403  18.068  0.00  0.00    +0.000 NA
ATOM      7  C   UNL     1       1.925   6.410  19.933  0.00  0.00    +0.000 C 
ATOM      8  N   UNL     1       1.773   7.782  19.445  0.00  0.00    +0.000 N 
ATOM      9  C   UNL     1       2.460   7.983  18.256  0.00  0.00    +0.000 C 
ATOM     10  O   UNL     1       2.551   8.968  17.547  0.00  0.00    +0.000 OA
ENDROOT
BRANCH   8  11
ATOM     11  C   UNL     1       1.289   8.803  20.296  0.00  0.00    +0.000 A 
ATOM     12  C   UNL     1       1.277   8.641  21.684  0.00  0.00    +0.000 A 
ATOM     13  C   UNL     1       0.655   9.582  22.498  0.00  0.00    +0.000 A 
ATOM     14  C   UNL     1       0.034  10.692  21.929  0.00  0.00    +0.000 A 
ATOM     15  C   UNL     1       0.022  10.901  20.537  0.00  0.00    +0.000 A 
ATOM     16  C   UNL     1       0.703   9.951  19.750  0.00  0.00    +0.000 A 
BRANCH  15  17
ATOM     17  C   UNL     1      -0.807  12.094  19.872  0.00  0.00    +0.000 C 
ATOM     18  C   UNL     1      -2.321  11.880  19.573  0.00  0.00    +0.000 C 
ATOM     19  O   UNL     1      -2.644  13.159  20.187  0.00  0.00    +0.000 OA
ATOM     20  C   UNL     1      -1.380  13.123  20.892  0.00  0.00    +0.000 C 
BRANCH  17  21
ATOM     21  C   UNL     1      -0.038  12.770  18.724  0.00  0.00    +0.000 C 
BRANCH  21  22
ATOM     22  C   UNL     1       0.442  14.142  19.059  0.00  0.00    +0.000 A 
ATOM     23  N   UNL     1      -0.162  15.274  18.750  0.00  0.00    +0.000 NA
ATOM     24  N   UNL     1       0.562  16.309  19.288  0.00  0.00    +0.000 NA
ATOM     25  C   UNL     1       1.589  15.794  19.921  0.00  0.00    +0.000 A 
ATOM     26  N   UNL     1       1.565  14.439  19.792  0.00  0.00    +0.000 N 
ATOM     27  C   UNL     1       2.533  13.533  20.349  0.00  0.00    +0.000 C 
ENDBRANCH  21  22
ENDBRANCH  17  21
ENDBRANCH  15  17
ENDBRANCH   8  11
BRANCH   5  28
ATOM     28  C   UNL     1       3.391   3.643  20.138  0.00  0.00    +0.000 C 
ATOM     29  C   UNL     1       2.186   3.737  21.044  0.00  0.00    +0.000 C 
ATOM     30  C   UNL     1       2.260   2.642  20.024  0.00  0.00    +0.000 C 
ENDBRANCH   5  28
BRANCH   1  32
ATOM     31  C   UNL     1       5.929   3.667  15.561  0.00  0.00    +0.000 C 
ATOM     32  C   UNL     1       5.970   5.095  16.128  0.00  0.00    +0.000 C 
BRANCH  32  33
ATOM     33  N   UNL     1       7.328   5.433  16.634  0.00  0.00    +0.000 NA
ATOM     34  C   UNL     1       7.811   4.620  17.754  0.00  0.00    +0.000 C 
ATOM     35  C   UNL     1       7.426   5.381  19.007  0.00  0.00    +0.000 C 
ATOM     36  C   UNL     1       7.540   6.836  18.592  0.00  0.00    +0.000 C 
ATOM     37  C   UNL     1       7.508   6.828  17.065  0.00  0.00    +0.000 C 
ENDBRANCH  32  33
ENDBRANCH   1  32
TORSDOF 7
ENDMDL
