MODEL 1
REMARK VINA RESULT:      -8.5      0.000      0.000
REMARK  Name = 
REMARK  7 active torsions:
REMARK  status: ('A' for Active; 'I' for Inactive)
REMARK    1  A    between atoms: C_1  and  C_2
REMARK    2  A    between atoms: C_2  and  S_3
REMARK    3  A    between atoms: C_2  and  C_10
REMARK    4  A    between atoms: S_3  and  C_4
REMARK    5  A    between atoms: N_8  and  C_9
REMARK    6  A    between atoms: C_14  and  N_15
REMARK    7  A    between atoms: C_23  and  C_24
REMARK                            x       y       z     vdW  Elec       q    Type
REMARK                         _______ _______ _______ _____ _____    ______ ____
ROOT
ATOM      1  N   UNL     1       2.976   6.184  18.602  0.00  0.00    +0.000 N 
ATOM      2  C   UNL     1       2.517   4.947  18.211  0.00  0.00    +0.000 C 
ATOM      3  O   UNL     1       1.409   4.471  18.440  0.00  0.00    +0.000 OA
ATOM      4  N   UNL     1       3.326   4.282  17.322  0.00  0.00    +0.000 N 
ATOM      5  C   UNL     1       4.640   4.600  17.002  0.00  0.00    +0.000 A 
ATOM      6  C   UNL     1       5.045   4.481  15.685  0.00  0.00    +0.000 A 
ATOM      7  C   UNL     1       6.331   4.893  15.353  0.00  0.00    +0.000 A 
ATOM      8  C   UNL     1       7.202   5.308  16.358  0.00  0.00    +0.000 A 
ATOM      9  C   UNL     1       6.749   5.340  17.674  0.00  0.00    +0.000 A 
ATOM     10  N   UNL     1       5.451   5.056  17.980  0.00  0.00    +0.000 NA
ATOM     11  H   UNL     1       3.890   6.431  18.252  0.00  0.00    +0.000 HD
ATOM     12  H   UNL     1       2.830   3.599  16.768  0.00  0.00    +0.000 HD
ENDROOT
BRANCH   1  17
ATOM     13  C   UNL     1       1.247   9.430  19.186  0.00  0.00    +0.000 A 
ATOM     14  C   UNL     1       0.804   9.225  20.504  0.00  0.00    +0.000 A 
ATOM     15  C   UNL     1       1.095   8.049  21.196  0.00  0.00    +0.000 A 
ATOM     16  C   UNL     1       1.810   7.030  20.581  0.00  0.00    +0.000 A 
ATOM     17  C   UNL     1       2.262   7.189  19.276  0.00  0.00    +0.000 A 
ATOM     18  C   UNL     1       2.000   8.393  18.592  0.00  0.00    +0.000 A 
BRANCH  13  20
ATOM     19  C   UNL     1       2.233  11.564  18.147  0.00  0.00    +0.000 C 
ATOM     20  C   UNL     1       0.968  10.733  18.421  0.00  0.00    +0.000 C 
BRANCH  20  21
ATOM     21  S   UNL     1      -0.243  11.786  19.334  0.00  0.00    +0.000 S 
BRANCH  21  22
ATOM     22  C   UNL     1      -1.727  11.409  18.525  0.00  0.00    +0.000 A 
ATOM     23  N   UNL     1      -1.876  10.722  17.415  0.00  0.00    +0.000 NA
ATOM     24  N   UNL     1      -3.219  10.726  17.097  0.00  0.00    +0.000 NA
ATOM     25  C   UNL     1      -3.847  11.404  18.028  0.00  0.00    +0.000 A 
ATOM     26  N   UNL     1      -2.948  11.846  18.954  0.00  0.00    +0.000 N 
ATOM     27  C   UNL     1      -3.253  12.649  20.107  0.00  0.00    +0.000 C 
ENDBRANCH  21  22
ENDBRANCH  20  21
ENDBRANCH  13  20
ENDBRANCH   1  17
BRANCH   9  28
ATOM     28  C   UNL     1       7.717   5.658  18.809  0.00  0.00    +0.000 C 
ATOM     29  F   UNL     1       7.116   5.685  20.035  0.00  0.00    +0.000 F 
ATOM     30  F   UNL     1       8.728   4.752  18.919  0.00  0.00    +0.000 F 
ATOM     31  F   UNL     1       8.313   6.877  18.673  0.00  0.00    +0.000 F 
ENDBRANCH   9  28
TORSDOF 5
ENDMDL
MODEL 2
REMARK VINA RESULT:      -8.4      3.197      3.924
REMARK  Name = 
REMARK  7 active torsions:
REMARK  status: ('A' for Active; 'I' for Inactive)
REMARK    1  A    between atoms: C_1  and  C_2
REMARK    2  A    between atoms: C_2  and  S_3
REMARK    3  A    between atoms: C_2  and  C_10
REMARK    4  A    between atoms: S_3  and  C_4
REMARK    5  A    between atoms: N_8  and  C_9
REMARK    6  A    between atoms: C_14  and  N_15
REMARK    7  A    between atoms: C_23  and  C_24
REMARK                            x       y       z     vdW  Elec       q    Type
REMARK                         _______ _______ _______ _____ _____    ______ ____
ROOT
ATOM      1  N   UNL     1       1.844   8.015  19.355  0.00  0.00    +0.000 N 
ATOM      2  C   UNL     1       2.408   8.221  18.117  0.00  0.00    +0.000 C 
ATOM      3  O   UNL     1       2.300   9.226  17.420  0.00  0.00    +0.000 OA
ATOM      4  N   UNL     1       3.326   7.274  17.732  0.00  0.00    +0.000 N 
ATOM      5  C   UNL     1       3.531   6.034  18.324  0.00  0.00    +0.000 A 
ATOM      6  C   UNL     1       4.828   5.572  18.453  0.00  0.00    +0.000 A 
ATOM      7  C   UNL     1       5.036   4.377  19.133  0.00  0.00    +0.000 A 
ATOM      8  C   UNL     1       3.942   3.632  19.566  0.00  0.00    +0.000 A 
ATOM      9  C   UNL     1       2.658   4.123  19.342  0.00  0.00    +0.000 A 
ATOM     10  N   UNL     1       2.462   5.354  18.788  0.00  0.00    +0.000 NA
ATOM     11  H   UNL     1       2.110   7.153  19.808  0.00  0.00    +0.000 HD
ATOM     12  H   UNL     1       3.986   7.615  17.048  0.00  0.00    +0.000 HD
ENDROOT
BRANCH   1  17
ATOM     13  C   UNL     1      -0.284  10.968  20.144  0.00  0.00    +0.000 A 
ATOM     14  C   UNL     1      -0.466  10.763  21.523  0.00  0.00    +0.000 A 
ATOM     15  C   UNL     1       0.124   9.685  22.184  0.00  0.00    +0.000 A 
ATOM     16  C   UNL     1       0.891   8.764  21.482  0.00  0.00    +0.000 A 
ATOM     17  C   UNL     1       1.092   8.926  20.116  0.00  0.00    +0.000 A 
ATOM     18  C   UNL     1       0.525  10.036  19.456  0.00  0.00    +0.000 A 
BRANCH  13  20
ATOM     19  C   UNL     1      -0.565  13.521  20.059  0.00  0.00    +0.000 C 
ATOM     20  C   UNL     1      -0.897  12.168  19.406  0.00  0.00    +0.000 C 
BRANCH  20  21
ATOM     21  S   UNL     1      -2.732  12.003  19.292  0.00  0.00    +0.000 S 
BRANCH  21  22
ATOM     22  C   UNL     1      -2.936  11.381  17.688  0.00  0.00    +0.000 A 
ATOM     23  N   UNL     1      -2.012  10.858  16.914  0.00  0.00    +0.000 NA
ATOM     24  N   UNL     1      -2.600  10.560  15.702  0.00  0.00    +0.000 NA
ATOM     25  C   UNL     1      -3.866  10.898  15.779  0.00  0.00    +0.000 A 
ATOM     26  N   UNL     1      -4.125  11.412  17.016  0.00  0.00    +0.000 N 
ATOM     27  C   UNL     1      -5.391  11.920  17.469  0.00  0.00    +0.000 C 
ENDBRANCH  21  22
ENDBRANCH  20  21
ENDBRANCH  13  20
ENDBRANCH   1  17
BRANCH   9  28
ATOM     28  C   UNL     1       1.441   3.269  19.680  0.00  0.00    +0.000 C 
ATOM     29  F   UNL     1       0.602   3.085  18.618  0.00  0.00    +0.000 F 
ATOM     30  F   UNL     1       1.769   2.017  20.107  0.00  0.00    +0.000 F 
ATOM     31  F   UNL     1       0.666   3.814  20.661  0.00  0.00    +0.000 F 
ENDBRANCH   9  28
TORSDOF 5
ENDMDL
MODEL 3
REMARK VINA RESULT:      -8.2      2.115      2.634
REMARK  Name = 
REMARK  7 active torsions:
REMARK  status: ('A' for Active; 'I' for Inactive)
REMARK    1  A    between atoms: C_1  and  C_2
REMARK    2  A    between atoms: C_2  and  S_3
REMARK    3  A    between atoms: C_2  and  C_10
REMARK    4  A    between atoms: S_3  and  C_4
REMARK    5  A    between atoms: N_8  and  C_9
REMARK    6  A    between atoms: C_14  and  N_15
REMARK    7  A    between atoms: C_23  and  C_24
REMARK                            x       y       z     vdW  Elec       q    Type
REMARK                         _______ _______ _______ _____ _____    ______ ____
ROOT
ATOM      1  N   UNL     1       2.997   6.144  18.577  0.00  0.00    +0.000 N 
ATOM      2  C   UNL     1       2.542   4.908  18.179  0.00  0.00    +0.000 C 
ATOM      3  O   UNL     1       1.435   4.427  18.406  0.00  0.00    +0.000 OA
ATOM      4  N   UNL     1       3.352   4.250  17.287  0.00  0.00    +0.000 N 
ATOM      5  C   UNL     1       4.666   4.574  16.969  0.00  0.00    +0.000 A 
ATOM      6  C   UNL     1       5.071   4.463  15.651  0.00  0.00    +0.000 A 
ATOM      7  C   UNL     1       6.356   4.881  15.321  0.00  0.00    +0.000 A 
ATOM      8  C   UNL     1       7.225   5.293  16.328  0.00  0.00    +0.000 A 
ATOM      9  C   UNL     1       6.772   5.316  17.645  0.00  0.00    +0.000 A 
ATOM     10  N   UNL     1       5.475   5.027  17.949  0.00  0.00    +0.000 NA
ATOM     11  H   UNL     1       3.910   6.396  18.228  0.00  0.00    +0.000 HD
ATOM     12  H   UNL     1       2.859   3.569  16.729  0.00  0.00    +0.000 HD
ENDROOT
BRANCH   1  17
ATOM     13  C   UNL     1       1.249   9.378  19.176  0.00  0.00    +0.000 A 
ATOM     14  C   UNL     1       0.815   9.168  20.496  0.00  0.00    +0.000 A 
ATOM     15  C   UNL     1       1.117   7.992  21.184  0.00  0.00    +0.000 A 
ATOM     16  C   UNL     1       1.836   6.980  20.564  0.00  0.00    +0.000 A 
ATOM     17  C   UNL     1       2.280   7.143  19.257  0.00  0.00    +0.000 A 
ATOM     18  C   UNL     1       2.006   8.347  18.576  0.00  0.00    +0.000 A 
BRANCH  13  20
ATOM     19  C   UNL     1       2.216  11.519  18.133  0.00  0.00    +0.000 C 
ATOM     20  C   UNL     1       0.957  10.680  18.414  0.00  0.00    +0.000 C 
BRANCH  20  21
ATOM     21  S   UNL     1      -0.253  11.725  19.337  0.00  0.00    +0.000 S 
BRANCH  21  22
ATOM     22  C   UNL     1       0.788  12.844  20.151  0.00  0.00    +0.000 A 
ATOM     23  N   UNL     1       1.590  12.594  21.161  0.00  0.00    +0.000 NA
ATOM     24  N   UNL     1       2.176  13.786  21.535  0.00  0.00    +0.000 NA
ATOM     25  C   UNL     1       1.723  14.722  20.735  0.00  0.00    +0.000 A 
ATOM     26  N   UNL     1       0.851  14.173  19.840  0.00  0.00    +0.000 N 
ATOM     27  C   UNL     1       0.127  14.886  18.824  0.00  0.00    +0.000 C 
ENDBRANCH  21  22
ENDBRANCH  20  21
ENDBRANCH  13  20
ENDBRANCH   1  17
BRANCH   9  28
ATOM     28  C   UNL     1       7.739   5.631  18.782  0.00  0.00    +0.000 C 
ATOM     29  F   UNL     1       8.760   4.729  18.884  0.00  0.00    +0.000 F 
ATOM     30  F   UNL     1       8.339   6.847  18.653  0.00  0.00    +0.000 F 
ATOM     31  F   UNL     1       7.137   5.633  20.006  0.00  0.00    +0.000 F 
ENDBRANCH   9  28
TORSDOF 5
ENDMDL
MODEL 4
REMARK VINA RESULT:      -8.1      3.591      4.505
REMARK  Name = 
REMARK  7 active torsions:
REMARK  status: ('A' for Active; 'I' for Inactive)
REMARK    1  A    between atoms: C_1  and  C_2
REMARK    2  A    between atoms: C_2  and  S_3
REMARK    3  A    between atoms: C_2  and  C_10
REMARK    4  A    between atoms: S_3  and  C_4
REMARK    5  A    between atoms: N_8  and  C_9
REMARK    6  A    between atoms: C_14  and  N_15
REMARK    7  A    between atoms: C_23  and  C_24
REMARK                            x       y       z     vdW  Elec       q    Type
REMARK                         _______ _______ _______ _____ _____    ______ ____
ROOT
ATOM      1  N   UNL     1       1.707   8.097  19.685  0.00  0.00    +0.000 N 
ATOM      2  C   UNL     1       2.133   8.462  18.429  0.00  0.00    +0.000 C 
ATOM      3  O   UNL     1       1.937   9.540  17.873  0.00  0.00    +0.000 OA
ATOM      4  N   UNL     1       3.017   7.592  17.839  0.00  0.00    +0.000 N 
ATOM      5  C   UNL     1       3.302   6.296  18.253  0.00  0.00    +0.000 A 
ATOM      6  C   UNL     1       4.611   5.857  18.189  0.00  0.00    +0.000 A 
ATOM      7  C   UNL     1       4.907   4.595  18.695  0.00  0.00    +0.000 A 
ATOM      8  C   UNL     1       3.876   3.776  19.146  0.00  0.00    +0.000 A 
ATOM      9  C   UNL     1       2.569   4.257  19.119  0.00  0.00    +0.000 A 
ATOM     10  N   UNL     1       2.297   5.538  18.741  0.00  0.00    +0.000 NA
ATOM     11  H   UNL     1       2.032   7.195  20.001  0.00  0.00    +0.000 HD
ATOM     12  H   UNL     1       3.595   8.028  17.135  0.00  0.00    +0.000 HD
ENDROOT
BRANCH   1  17
ATOM     13  C   UNL     1      -0.580  10.711  21.028  0.00  0.00    +0.000 A 
ATOM     14  C   UNL     1      -0.409  10.487  22.404  0.00  0.00    +0.000 A 
ATOM     15  C   UNL     1       0.465   9.509  22.880  0.00  0.00    +0.000 A 
ATOM     16  C   UNL     1       1.173   8.707  21.995  0.00  0.00    +0.000 A 
ATOM     17  C   UNL     1       1.029   8.891  20.624  0.00  0.00    +0.000 A 
ATOM     18  C   UNL     1       0.173   9.904  20.146  0.00  0.00    +0.000 A 
BRANCH  13  20
ATOM     19  C   UNL     1      -1.083  12.346  19.109  0.00  0.00    +0.000 C 
ATOM     20  C   UNL     1      -1.511  11.806  20.485  0.00  0.00    +0.000 C 
BRANCH  20  21
ATOM     21  S   UNL     1      -1.619  13.222  21.665  0.00  0.00    +0.000 S 
BRANCH  21  22
ATOM     22  C   UNL     1      -3.176  12.973  22.382  0.00  0.00    +0.000 A 
ATOM     23  N   UNL     1      -3.472  12.179  23.386  0.00  0.00    +0.000 NA
ATOM     24  N   UNL     1      -4.837  12.240  23.580  0.00  0.00    +0.000 NA
ATOM     25  C   UNL     1      -5.328  13.078  22.697  0.00  0.00    +0.000 A 
ATOM     26  N   UNL     1      -4.317  13.571  21.926  0.00  0.00    +0.000 N 
ATOM     27  C   UNL     1      -4.464  14.492  20.833  0.00  0.00    +0.000 C 
ENDBRANCH  21  22
ENDBRANCH  20  21
ENDBRANCH  13  20
ENDBRANCH   1  17
BRANCH   9  28
ATOM     28  C   UNL     1       1.407   3.336  19.478  0.00  0.00    +0.000 C 
ATOM     29  F   UNL     1       0.664   2.962  18.395  0.00  0.00    +0.000 F 
ATOM     30  F   UNL     1       1.807   2.174  20.065  0.00  0.00    +0.000 F 
ATOM     31  F   UNL     1       0.521   3.912  20.341  0.00  0.00    +0.000 F 
ENDBRANCH   9  28
TORSDOF 5
ENDMDL
MODEL 5
REMARK VINA RESULT:      -8.1      3.607      4.956
REMARK  Name = 
REMARK  7 active torsions:
REMARK  status: ('A' for Active; 'I' for Inactive)
REMARK    1  A    between atoms: C_1  and  C_2
REMARK    2  A    between atoms: C_2  and  S_3
REMARK    3  A    between atoms: C_2  and  C_10
REMARK    4  A    between atoms: S_3  and  C_4
REMARK    5  A    between atoms: N_8  and  C_9
REMARK    6  A    between atoms: C_14  and  N_15
REMARK    7  A    between atoms: C_23  and  C_24
REMARK                            x       y       z     vdW  Elec       q    Type
REMARK                         _______ _______ _______ _____ _____    ______ ____
ROOT
ATOM      1  N   UNL     1       1.875   7.960  19.469  0.00  0.00    +0.000 N 
ATOM      2  C   UNL     1       2.341   8.254  18.209  0.00  0.00    +0.000 C 
ATOM      3  O   UNL     1       2.191   9.310  17.600  0.00  0.00    +0.000 OA
ATOM      4  N   UNL     1       3.214   7.334  17.682  0.00  0.00    +0.000 N 
ATOM      5  C   UNL     1       3.451   6.051  18.161  0.00  0.00    +0.000 A 
ATOM      6  C   UNL     1       4.748   5.573  18.151  0.00  0.00    +0.000 A 
ATOM      7  C   UNL     1       4.995   4.329  18.722  0.00  0.00    +0.000 A 
ATOM      8  C   UNL     1       3.930   3.560  19.183  0.00  0.00    +0.000 A 
ATOM      9  C   UNL     1       2.638   4.075  19.101  0.00  0.00    +0.000 A 
ATOM     10  N   UNL     1       2.413   5.345  18.658  0.00  0.00    +0.000 NA
ATOM     11  H   UNL     1       2.166   7.064  19.834  0.00  0.00    +0.000 HD
ATOM     12  H   UNL     1       3.821   7.721  16.974  0.00  0.00    +0.000 HD
ENDROOT
BRANCH   1  17
ATOM     13  C   UNL     1      -0.047  10.917  20.664  0.00  0.00    +0.000 A 
ATOM     14  C   UNL     1      -0.214  10.559  22.012  0.00  0.00    +0.000 A 
ATOM     15  C   UNL     1       0.320   9.375  22.523  0.00  0.00    +0.000 A 
ATOM     16  C   UNL     1       1.013   8.502  21.695  0.00  0.00    +0.000 A 
ATOM     17  C   UNL     1       1.197   8.815  20.354  0.00  0.00    +0.000 A 
ATOM     18  C   UNL     1       0.688  10.029  19.847  0.00  0.00    +0.000 A 
BRANCH  13  20
ATOM     19  C   UNL     1      -1.892  12.051  19.280  0.00  0.00    +0.000 C 
ATOM     20  C   UNL     1      -0.598  12.233  20.091  0.00  0.00    +0.000 C 
BRANCH  20  21
ATOM     21  S   UNL     1       0.658  13.060  19.021  0.00  0.00    +0.000 S 
BRANCH  21  22
ATOM     22  C   UNL     1       1.783  13.665  20.190  0.00  0.00    +0.000 A 
ATOM     23  N   UNL     1       1.600  13.777  21.486  0.00  0.00    +0.000 NA
ATOM     24  N   UNL     1       2.727  14.368  22.019  0.00  0.00    +0.000 NA
ATOM     25  C   UNL     1       3.567  14.587  21.034  0.00  0.00    +0.000 A 
ATOM     26  N   UNL     1       3.017  14.152  19.863  0.00  0.00    +0.000 N 
ATOM     27  C   UNL     1       3.622  14.247  18.563  0.00  0.00    +0.000 C 
ENDBRANCH  21  22
ENDBRANCH  20  21
ENDBRANCH  13  20
ENDBRANCH   1  17
BRANCH   9  28
ATOM     28  C   UNL     1       1.442   3.205  19.471  0.00  0.00    +0.000 C 
ATOM     29  F   UNL     1       0.614   2.952  18.415  0.00  0.00    +0.000 F 
ATOM     30  F   UNL     1       1.799   1.983  19.956  0.00  0.00    +0.000 F 
ATOM     31  F   UNL     1       0.647   3.773  20.423  0.00  0.00    +0.000 F 
ENDBRANCH   9  28
TORSDOF 5
ENDMDL
MODEL 6
REMARK VINA RESULT:      -8.1      3.539      4.751
REMARK  Name = 
REMARK  7 active torsions:
REMARK  status: ('A' for Active; 'I' for Inactive)
REMARK    1  A    between atoms: C_1  and  C_2
REMARK    2  A    between atoms: C_2  and  S_3
REMARK    3  A    between atoms: C_2  and  C_10
REMARK    4  A    between atoms: S_3  and  C_4
REMARK    5  A    between atoms: N_8  and  C_9
REMARK    6  A    between atoms: C_14  and  N_15
REMARK    7  A    between atoms: C_23  and  C_24
REMARK                            x       y       z     vdW  Elec       q    Type
REMARK                         _______ _______ _______ _____ _____    ______ ____
ROOT
ATOM      1  N   UNL     1       1.805   8.096  19.391  0.00  0.00    +0.000 N 
ATOM      2  C   UNL     1       2.358   8.336  18.155  0.00  0.00    +0.000 C 
ATOM      3  O   UNL     1       2.247   9.363  17.489  0.00  0.00    +0.000 OA
ATOM      4  N   UNL     1       3.268   7.399  17.733  0.00  0.00    +0.000 N 
ATOM      5  C   UNL     1       3.475   6.140  18.285  0.00  0.00    +0.000 A 
ATOM      6  C   UNL     1       4.772   5.671  18.388  0.00  0.00    +0.000 A 
ATOM      7  C   UNL     1       4.982   4.455  19.030  0.00  0.00    +0.000 A 
ATOM      8  C   UNL     1       3.889   3.701  19.450  0.00  0.00    +0.000 A 
ATOM      9  C   UNL     1       2.605   4.203  19.254  0.00  0.00    +0.000 A 
ATOM     10  N   UNL     1       2.408   5.451  18.739  0.00  0.00    +0.000 NA
ATOM     11  H   UNL     1       2.072   7.219  19.816  0.00  0.00    +0.000 HD
ATOM     12  H   UNL     1       3.923   7.757  17.053  0.00  0.00    +0.000 HD
ENDROOT
BRANCH   1  17
ATOM     13  C   UNL     1      -0.592  10.807  20.272  0.00  0.00    +0.000 A 
ATOM     14  C   UNL     1      -0.494  10.758  21.674  0.00  0.00    +0.000 A 
ATOM     15  C   UNL     1       0.366   9.866  22.314  0.00  0.00    +0.000 A 
ATOM     16  C   UNL     1       1.133   8.976  21.575  0.00  0.00    +0.000 A 
ATOM     17  C   UNL     1       1.064   8.986  20.186  0.00  0.00    +0.000 A 
ATOM     18  C   UNL     1       0.221   9.913  19.540  0.00  0.00    +0.000 A 
BRANCH  13  20
ATOM     19  C   UNL     1      -2.450  11.144  18.529  0.00  0.00    +0.000 C 
ATOM     20  C   UNL     1      -1.507  11.806  19.548  0.00  0.00    +0.000 C 
BRANCH  20  21
ATOM     21  S   UNL     1      -0.513  13.097  18.680  0.00  0.00    +0.000 S 
BRANCH  21  22
ATOM     22  C   UNL     1       0.723  13.441  19.843  0.00  0.00    +0.000 A 
ATOM     23  N   UNL     1       0.564  13.942  21.047  0.00  0.00    +0.000 NA
ATOM     24  N   UNL     1       1.817  14.113  21.599  0.00  0.00    +0.000 NA
ATOM     25  C   UNL     1       2.699  13.701  20.719  0.00  0.00    +0.000 A 
ATOM     26  N   UNL     1       2.055  13.260  19.600  0.00  0.00    +0.000 N 
ATOM     27  C   UNL     1       2.683  12.760  18.408  0.00  0.00    +0.000 C 
ENDBRANCH  21  22
ENDBRANCH  20  21
ENDBRANCH  13  20
ENDBRANCH   1  17
BRANCH   9  28
ATOM     28  C   UNL     1       1.388   3.343  19.578  0.00  0.00    +0.000 C 
ATOM     29  F   UNL     1       1.687   2.263  20.360  0.00  0.00    +0.000 F 
ATOM     30  F   UNL     1       0.417   4.022  20.251  0.00  0.00    +0.000 F 
ATOM     31  F   UNL     1       0.790   2.828  18.466  0.00  0.00    +0.000 F 
ENDBRANCH   9  28
TORSDOF 5
ENDMDL
MODEL 7
REMARK VINA RESULT:      -8.0      3.436      4.357
REMARK  Name = 
REMARK  7 active torsions:
REMARK  status: ('A' for Active; 'I' for Inactive)
REMARK    1  A    between atoms: C_1  and  C_2
REMARK    2  A    between atoms: C_2  and  S_3
REMARK    3  A    between atoms: C_2  and  C_10
REMARK    4  A    between atoms: S_3  and  C_4
REMARK    5  A    between atoms: N_8  and  C_9
REMARK    6  A    between atoms: C_14  and  N_15
REMARK    7  A    between atoms: C_23  and  C_24
REMARK                            x       y       z     vdW  Elec       q    Type
REMARK                         _______ _______ _______ _____ _____    ______ ____
ROOT
ATOM      1  N   UNL     1       1.715   8.240  19.359  0.00  0.00    +0.000 N 
ATOM      2  C   UNL     1       2.281   8.492  18.131  0.00  0.00    +0.000 C 
ATOM      3  O   UNL     1       2.160   9.516  17.464  0.00  0.00    +0.000 OA
ATOM      4  N   UNL     1       3.216   7.573  17.723  0.00  0.00    +0.000 N 
ATOM      5  C   UNL     1       3.439   6.318  18.278  0.00  0.00    +0.000 A 
ATOM      6  C   UNL     1       4.743   5.874  18.401  0.00  0.00    +0.000 A 
ATOM      7  C   UNL     1       4.968   4.663  19.046  0.00  0.00    +0.000 A 
ATOM      8  C   UNL     1       3.884   3.887  19.449  0.00  0.00    +0.000 A 
ATOM      9  C   UNL     1       2.593   4.364  19.234  0.00  0.00    +0.000 A 
ATOM     10  N   UNL     1       2.379   5.608  18.716  0.00  0.00    +0.000 NA
ATOM     11  H   UNL     1       1.993   7.369  19.788  0.00  0.00    +0.000 HD
ATOM     12  H   UNL     1       3.874   7.944  17.053  0.00  0.00    +0.000 HD
ENDROOT
BRANCH   1  17
ATOM     13  C   UNL     1      -0.885  10.761  20.228  0.00  0.00    +0.000 A 
ATOM     14  C   UNL     1      -0.679  10.841  21.616  0.00  0.00    +0.000 A 
ATOM     15  C   UNL     1       0.318  10.098  22.248  0.00  0.00    +0.000 A 
ATOM     16  C   UNL     1       1.119   9.230  21.518  0.00  0.00    +0.000 A 
ATOM     17  C   UNL     1       0.944   9.115  20.143  0.00  0.00    +0.000 A 
ATOM     18  C   UNL     1      -0.039   9.895  19.500  0.00  0.00    +0.000 A 
BRANCH  13  20
ATOM     19  C   UNL     1      -1.569  11.971  18.066  0.00  0.00    +0.000 C 
ATOM     20  C   UNL     1      -1.954  11.598  19.508  0.00  0.00    +0.000 C 
BRANCH  20  21
ATOM     21  S   UNL     1      -2.313  13.150  20.443  0.00  0.00    +0.000 S 
BRANCH  21  22
ATOM     22  C   UNL     1      -3.854  12.794  21.149  0.00  0.00    +0.000 A 
ATOM     23  N   UNL     1      -4.114  12.564  22.415  0.00  0.00    +0.000 NA
ATOM     24  N   UNL     1      -5.455  12.259  22.519  0.00  0.00    +0.000 NA
ATOM     25  C   UNL     1      -5.973  12.325  21.315  0.00  0.00    +0.000 A 
ATOM     26  N   UNL     1      -5.002  12.668  20.420  0.00  0.00    +0.000 N 
ATOM     27  C   UNL     1      -5.177  12.810  19.001  0.00  0.00    +0.000 C 
ENDBRANCH  21  22
ENDBRANCH  20  21
ENDBRANCH  13  20
ENDBRANCH   1  17
BRANCH   9  28
ATOM     28  C   UNL     1       1.389   3.480  19.540  0.00  0.00    +0.000 C 
ATOM     29  F   UNL     1       0.459   4.094  20.330  0.00  0.00    +0.000 F 
ATOM     30  F   UNL     1       0.716   3.088  18.422  0.00  0.00    +0.000 F 
ATOM     31  F   UNL     1       1.725   2.336  20.202  0.00  0.00    +0.000 F 
ENDBRANCH   9  28
TORSDOF 5
ENDMDL
MODEL 8
REMARK VINA RESULT:      -8.0      1.130      1.346
REMARK  Name = 
REMARK  7 active torsions:
REMARK  status: ('A' for Active; 'I' for Inactive)
REMARK    1  A    between atoms: C_1  and  C_2
REMARK    2  A    between atoms: C_2  and  S_3
REMARK    3  A    between atoms: C_2  and  C_10
REMARK    4  A    between atoms: S_3  and  C_4
REMARK    5  A    between atoms: N_8  and  C_9
REMARK    6  A    between atoms: C_14  and  N_15
REMARK    7  A    between atoms: C_23  and  C_24
REMARK                            x       y       z     vdW  Elec       q    Type
REMARK                         _______ _______ _______ _____ _____    ______ ____
ROOT
ATOM      1  N   UNL     1       2.866   6.474  19.344  0.00  0.00    +0.000 N 
ATOM      2  C   UNL     1       2.854   5.150  19.719  0.00  0.00    +0.000 C 
ATOM      3  O   UNL     1       2.161   4.644  20.597  0.00  0.00    +0.000 OA
ATOM      4  N   UNL     1       3.552   4.305  18.891  0.00  0.00    +0.000 N 
ATOM      5  C   UNL     1       4.459   4.677  17.906  0.00  0.00    +0.000 A 
ATOM      6  C   UNL     1       4.458   3.979  16.712  0.00  0.00    +0.000 A 
ATOM      7  C   UNL     1       5.299   4.416  15.694  0.00  0.00    +0.000 A 
ATOM      8  C   UNL     1       6.185   5.462  15.936  0.00  0.00    +0.000 A 
ATOM      9  C   UNL     1       6.181   6.077  17.185  0.00  0.00    +0.000 A 
ATOM     10  N   UNL     1       5.270   5.730  18.138  0.00  0.00    +0.000 NA
ATOM     11  H   UNL     1       3.448   6.687  18.547  0.00  0.00    +0.000 HD
ATOM     12  H   UNL     1       3.234   3.348  18.940  0.00  0.00    +0.000 HD
ENDROOT
BRANCH   1  17
ATOM     13  C   UNL     1       0.998   9.695  19.401  0.00  0.00    +0.000 A 
ATOM     14  C   UNL     1       0.394   9.593  20.666  0.00  0.00    +0.000 A 
ATOM     15  C   UNL     1       0.621   8.494  21.495  0.00  0.00    +0.000 A 
ATOM     16  C   UNL     1       1.435   7.451  21.074  0.00  0.00    +0.000 A 
ATOM     17  C   UNL     1       2.047   7.509  19.827  0.00  0.00    +0.000 A 
ATOM     18  C   UNL     1       1.847   8.637  19.006  0.00  0.00    +0.000 A 
BRANCH  13  20
ATOM     19  C   UNL     1       1.987  11.879  18.474  0.00  0.00    +0.000 C 
ATOM     20  C   UNL     1       0.789  10.914  18.488  0.00  0.00    +0.000 C 
BRANCH  20  21
ATOM     21  S   UNL     1      -0.720  11.855  18.984  0.00  0.00    +0.000 S 
BRANCH  21  22
ATOM     22  C   UNL     1      -1.960  11.039  18.091  0.00  0.00    +0.000 A 
ATOM     23  N   UNL     1      -1.799  10.163  17.125  0.00  0.00    +0.000 NA
ATOM     24  N   UNL     1      -3.051   9.824  16.654  0.00  0.00    +0.000 NA
ATOM     25  C   UNL     1      -3.936  10.493  17.356  0.00  0.00    +0.000 A 
ATOM     26  N   UNL     1      -3.294  11.265  18.280  0.00  0.00    +0.000 N 
ATOM     27  C   UNL     1      -3.922  12.161  19.211  0.00  0.00    +0.000 C 
ENDBRANCH  21  22
ENDBRANCH  20  21
ENDBRANCH  13  20
ENDBRANCH   1  17
BRANCH   9  28
ATOM     28  C   UNL     1       7.231   7.131  17.523  0.00  0.00    +0.000 C 
ATOM     29  F   UNL     1       7.976   6.813  18.623  0.00  0.00    +0.000 F 
ATOM     30  F   UNL     1       8.129   7.332  16.519  0.00  0.00    +0.000 F 
ATOM     31  F   UNL     1       6.688   8.352  17.797  0.00  0.00    +0.000 F 
ENDBRANCH   9  28
TORSDOF 5
ENDMDL
MODEL 9
REMARK VINA RESULT:      -8.0      3.463      4.386
REMARK  Name = 
REMARK  7 active torsions:
REMARK  status: ('A' for Active; 'I' for Inactive)
REMARK    1  A    between atoms: C_1  and  C_2
REMARK    2  A    between atoms: C_2  and  S_3
REMARK    3  A    between atoms: C_2  and  C_10
REMARK    4  A    between atoms: S_3  and  C_4
REMARK    5  A    between atoms: N_8  and  C_9
REMARK    6  A    between atoms: C_14  and  N_15
REMARK    7  A    between atoms: C_23  and  C_24
REMARK                            x       y       z     vdW  Elec       q    Type
REMARK                         _______ _______ _______ _____ _____    ______ ____
ROOT
ATOM      1  N   UNL     1       1.805   8.035  19.493  0.00  0.00    +0.000 N 
ATOM      2  C   UNL     1       2.342   8.297  18.254  0.00  0.00    +0.000 C 
ATOM      3  O   UNL     1       2.226   9.336  17.609  0.00  0.00    +0.000 OA
ATOM      4  N   UNL     1       3.244   7.365  17.802  0.00  0.00    +0.000 N 
ATOM      5  C   UNL     1       3.454   6.096  18.329  0.00  0.00    +0.000 A 
ATOM      6  C   UNL     1       4.751   5.621  18.405  0.00  0.00    +0.000 A 
ATOM      7  C   UNL     1       4.965   4.392  19.022  0.00  0.00    +0.000 A 
ATOM      8  C   UNL     1       3.876   3.634  19.442  0.00  0.00    +0.000 A 
ATOM      9  C   UNL     1       2.591   4.143  19.273  0.00  0.00    +0.000 A 
ATOM     10  N   UNL     1       2.391   5.401  18.784  0.00  0.00    +0.000 NA
ATOM     11  H   UNL     1       2.075   7.150  19.898  0.00  0.00    +0.000 HD
ATOM     12  H   UNL     1       3.891   7.734  17.121  0.00  0.00    +0.000 HD
ENDROOT
BRANCH   1  17
ATOM     13  C   UNL     1      -0.602  10.707  20.460  0.00  0.00    +0.000 A 
ATOM     14  C   UNL     1      -0.458  10.658  21.857  0.00  0.00    +0.000 A 
ATOM     15  C   UNL     1       0.437   9.777  22.466  0.00  0.00    +0.000 A 
ATOM     16  C   UNL     1       1.193   8.901  21.700  0.00  0.00    +0.000 A 
ATOM     17  C   UNL     1       1.077   8.912  20.314  0.00  0.00    +0.000 A 
ATOM     18  C   UNL     1       0.200   9.828  19.698  0.00  0.00    +0.000 A 
BRANCH  13  20
ATOM     19  C   UNL     1      -1.114  12.075  18.345  0.00  0.00    +0.000 C 
ATOM     20  C   UNL     1      -1.556  11.694  19.768  0.00  0.00    +0.000 C 
BRANCH  20  21
ATOM     21  S   UNL     1      -1.737  13.239  20.763  0.00  0.00    +0.000 S 
BRANCH  21  22
ATOM     22  C   UNL     1      -3.254  12.978  21.556  0.00  0.00    +0.000 A 
ATOM     23  N   UNL     1      -4.367  12.533  21.018  0.00  0.00    +0.000 NA
ATOM     24  N   UNL     1      -5.340  12.547  21.996  0.00  0.00    +0.000 NA
ATOM     25  C   UNL     1      -4.788  12.988  23.102  0.00  0.00    +0.000 A 
ATOM     26  N   UNL     1      -3.471  13.264  22.874  0.00  0.00    +0.000 N 
ATOM     27  C   UNL     1      -2.544  13.793  23.835  0.00  0.00    +0.000 C 
ENDBRANCH  21  22
ENDBRANCH  20  21
ENDBRANCH  13  20
ENDBRANCH   1  17
BRANCH   9  28
ATOM     28  C   UNL     1       1.376   3.281  19.597  0.00  0.00    +0.000 C 
ATOM     29  F   UNL     1       0.785   2.747  18.488  0.00  0.00    +0.000 F 
ATOM     30  F   UNL     1       1.673   2.220  20.399  0.00  0.00    +0.000 F 
ATOM     31  F   UNL     1       0.388   3.973  20.234  0.00  0.00    +0.000 F 
ENDBRANCH   9  28
TORSDOF 5
ENDMDL
