MODEL 1
REMARK VINA RESULT:      -8.1      0.000      0.000
REMARK  Name = 
REMARK  10 active torsions:
REMARK  status: ('A' for Active; 'I' for Inactive)
REMARK    1  A    between atoms: C_1  and  O_2
REMARK    2  A    between atoms: O_2  and  C_3
REMARK    3  A    between atoms: C_5  and  N_6
REMARK    4  A    between atoms: C_14  and  N_15
REMARK    5  A    between atoms: N_18  and  C_19
REMARK    6  A    between atoms: C_23  and  C_24
REMARK    7  A    between atoms: C_24  and  C_25
REMARK    8  A    between atoms: C_24  and  S_26
REMARK    9  A    between atoms: S_26  and  C_27
REMARK   10  A    between atoms: N_31  and  C_32
REMARK                            x       y       z     vdW  Elec       q    Type
REMARK                         _______ _______ _______ _____ _____    ______ ____
ROOT
ATOM      1  N   UNL     1       6.955   8.110  17.043  0.00  0.00    +0.000 N 
ATOM      2  C   UNL     1       7.963   8.589  17.871  0.00  0.00    +0.000 C 
ATOM      3  O   UNL     1       8.447   7.925  18.781  0.00  0.00    +0.000 OA
ATOM      4  N   UNL     1       8.351   9.892  17.579  0.00  0.00    +0.000 N 
ATOM      5  H   UNL     1       6.922   8.426  16.083  0.00  0.00    +0.000 HD
ATOM      6  H   UNL     1       7.746  10.421  16.969  0.00  0.00    +0.000 HD
ENDROOT
BRANCH   1  12
ATOM      7  C   UNL     1       6.478   5.720  16.649  0.00  0.00    +0.000 A 
ATOM      8  C   UNL     1       5.684   4.580  16.922  0.00  0.00    +0.000 A 
ATOM      9  C   UNL     1       4.652   4.580  17.873  0.00  0.00    +0.000 A 
ATOM     10  C   UNL     1       4.426   5.779  18.544  0.00  0.00    +0.000 A 
ATOM     11  C   UNL     1       5.167   6.929  18.257  0.00  0.00    +0.000 A 
ATOM     12  C   UNL     1       6.210   6.923  17.324  0.00  0.00    +0.000 A 
BRANCH   9  13
ATOM     13  N   UNL     1       3.882   3.467  18.116  0.00  0.00    +0.000 N 
ATOM     14  C   UNL     1       2.704   3.126  17.307  0.00  0.00    +0.000 C 
ATOM     15  C   UNL     1       1.507   2.858  18.237  0.00  0.00    +0.000 C 
ATOM     16  O   UNL     1       1.807   1.854  19.221  0.00  0.00    +0.000 OA
ATOM     17  C   UNL     1       2.917   2.272  20.036  0.00  0.00    +0.000 C 
ATOM     18  C   UNL     1       4.177   2.506  19.190  0.00  0.00    +0.000 C 
ENDBRANCH   9  13
BRANCH   7  20
ATOM     19  C   UNL     1       7.254   5.042  14.509  0.00  0.00    +0.000 C 
ATOM     20  O   UNL     1       7.521   5.706  15.749  0.00  0.00    +0.000 OA
ENDBRANCH   7  20
ENDBRANCH   1  12
BRANCH   4  21
ATOM     21  C   UNL     1       9.368  10.619  18.275  0.00  0.00    +0.000 A 
ATOM     22  C   UNL     1      10.627  10.882  17.723  0.00  0.00    +0.000 A 
ATOM     23  C   UNL     1      11.600  11.596  18.424  0.00  0.00    +0.000 A 
ATOM     24  C   UNL     1      11.326  12.078  19.697  0.00  0.00    +0.000 A 
ATOM     25  C   UNL     1      10.081  11.833  20.297  0.00  0.00    +0.000 A 
ATOM     26  C   UNL     1       9.106  11.103  19.569  0.00  0.00    +0.000 A 
BRANCH  25  27
ATOM     27  C   UNL     1       9.781  12.348  21.699  0.00  0.00    +0.000 C 
ATOM     28  C   UNL     1       8.421  11.843  22.196  0.00  0.00    +0.000 C 
BRANCH  27  29
ATOM     29  S   UNL     1       9.722  14.177  21.796  0.00  0.00    +0.000 S 
BRANCH  29  30
ATOM     30  C   UNL     1       8.855  14.576  20.362  0.00  0.00    +0.000 A 
ATOM     31  N   UNL     1       7.587  14.350  20.114  0.00  0.00    +0.000 NA
ATOM     32  N   UNL     1       7.347  14.738  18.811  0.00  0.00    +0.000 NA
ATOM     33  C   UNL     1       8.477  15.192  18.315  0.00  0.00    +0.000 A 
ATOM     34  N   UNL     1       9.450  15.129  19.266  0.00  0.00    +0.000 N 
ATOM     35  C   UNL     1      10.808  15.580  19.127  0.00  0.00    +0.000 C 
ENDBRANCH  29  30
ENDBRANCH  27  29
ENDBRANCH  25  27
ENDBRANCH   4  21
TORSDOF 7
ENDMDL
MODEL 2
REMARK VINA RESULT:      -8.0      3.490     10.041
REMARK  Name = 
REMARK  10 active torsions:
REMARK  status: ('A' for Active; 'I' for Inactive)
REMARK    1  A    between atoms: C_1  and  O_2
REMARK    2  A    between atoms: O_2  and  C_3
REMARK    3  A    between atoms: C_5  and  N_6
REMARK    4  A    between atoms: C_14  and  N_15
REMARK    5  A    between atoms: N_18  and  C_19
REMARK    6  A    between atoms: C_23  and  C_24
REMARK    7  A    between atoms: C_24  and  C_25
REMARK    8  A    between atoms: C_24  and  S_26
REMARK    9  A    between atoms: S_26  and  C_27
REMARK   10  A    between atoms: N_31  and  C_32
REMARK                            x       y       z     vdW  Elec       q    Type
REMARK                         _______ _______ _______ _____ _____    ______ ____
ROOT
ATOM      1  N   UNL     1       9.335   9.236  19.224  0.00  0.00    +0.000 N 
ATOM      2  C   UNL     1       8.389   8.519  18.502  0.00  0.00    +0.000 C 
ATOM      3  O   UNL     1       7.723   9.018  17.600  0.00  0.00    +0.000 OA
ATOM      4  N   UNL     1       8.258   7.198  18.914  0.00  0.00    +0.000 N 
ATOM      5  H   UNL     1      10.151   8.751  19.573  0.00  0.00    +0.000 HD
ATOM      6  H   UNL     1       8.681   6.953  19.796  0.00  0.00    +0.000 HD
ENDROOT
BRANCH   1  12
ATOM      7  C   UNL     1       9.177  11.452  20.303  0.00  0.00    +0.000 A 
ATOM      8  C   UNL     1       9.249  12.862  20.195  0.00  0.00    +0.000 A 
ATOM      9  C   UNL     1       9.616  13.517  19.010  0.00  0.00    +0.000 A 
ATOM     10  C   UNL     1       9.899  12.707  17.914  0.00  0.00    +0.000 A 
ATOM     11  C   UNL     1       9.790  11.316  17.985  0.00  0.00    +0.000 A 
ATOM     12  C   UNL     1       9.444  10.661  19.172  0.00  0.00    +0.000 A 
BRANCH   9  13
ATOM     13  N   UNL     1       9.668  14.889  18.920  0.00  0.00    +0.000 N 
ATOM     14  C   UNL     1       8.600  15.758  19.433  0.00  0.00    +0.000 C 
ATOM     15  C   UNL     1       8.184  16.755  18.338  0.00  0.00    +0.000 C 
ATOM     16  O   UNL     1       9.307  17.501  17.837  0.00  0.00    +0.000 OA
ATOM     17  C   UNL     1      10.287  16.610  17.276  0.00  0.00    +0.000 C 
ATOM     18  C   UNL     1      10.801  15.612  18.323  0.00  0.00    +0.000 C 
ENDBRANCH   9  13
BRANCH   7  20
ATOM     19  C   UNL     1       8.350  11.645  22.520  0.00  0.00    +0.000 C 
ATOM     20  O   UNL     1       8.863  10.807  21.479  0.00  0.00    +0.000 OA
ENDBRANCH   7  20
ENDBRANCH   1  12
BRANCH   4  21
ATOM     21  C   UNL     1       7.360   6.246  18.337  0.00  0.00    +0.000 A 
ATOM     22  C   UNL     1       7.487   5.779  17.024  0.00  0.00    +0.000 A 
ATOM     23  C   UNL     1       6.597   4.847  16.488  0.00  0.00    +0.000 A 
ATOM     24  C   UNL     1       5.561   4.347  17.266  0.00  0.00    +0.000 A 
ATOM     25  C   UNL     1       5.387   4.791  18.586  0.00  0.00    +0.000 A 
ATOM     26  C   UNL     1       6.301   5.740  19.112  0.00  0.00    +0.000 A 
BRANCH  25  27
ATOM     27  C   UNL     1       4.243   4.255  19.439  0.00  0.00    +0.000 C 
ATOM     28  C   UNL     1       4.325   2.730  19.581  0.00  0.00    +0.000 C 
BRANCH  27  29
ATOM     29  S   UNL     1       2.590   4.624  18.740  0.00  0.00    +0.000 S 
BRANCH  29  30
ATOM     30  C   UNL     1       2.185   6.088  19.552  0.00  0.00    +0.000 A 
ATOM     31  N   UNL     1       1.601   6.210  20.720  0.00  0.00    +0.000 NA
ATOM     32  N   UNL     1       1.379   7.556  20.929  0.00  0.00    +0.000 NA
ATOM     33  C   UNL     1       1.842   8.205  19.884  0.00  0.00    +0.000 A 
ATOM     34  N   UNL     1       2.380   7.319  19.001  0.00  0.00    +0.000 N 
ATOM     35  C   UNL     1       3.033   7.643  17.761  0.00  0.00    +0.000 C 
ENDBRANCH  29  30
ENDBRANCH  27  29
ENDBRANCH  25  27
ENDBRANCH   4  21
TORSDOF 7
ENDMDL
MODEL 3
REMARK VINA RESULT:      -7.9      3.373     10.931
REMARK  Name = 
REMARK  10 active torsions:
REMARK  status: ('A' for Active; 'I' for Inactive)
REMARK    1  A    between atoms: C_1  and  O_2
REMARK    2  A    between atoms: O_2  and  C_3
REMARK    3  A    between atoms: C_5  and  N_6
REMARK    4  A    between atoms: C_14  and  N_15
REMARK    5  A    between atoms: N_18  and  C_19
REMARK    6  A    between atoms: C_23  and  C_24
REMARK    7  A    between atoms: C_24  and  C_25
REMARK    8  A    between atoms: C_24  and  S_26
REMARK    9  A    between atoms: S_26  and  C_27
REMARK   10  A    between atoms: N_31  and  C_32
REMARK                            x       y       z     vdW  Elec       q    Type
REMARK                         _______ _______ _______ _____ _____    ______ ____
ROOT
ATOM      1  N   UNL     1       9.158   9.196  19.131  0.00  0.00    +0.000 N 
ATOM      2  C   UNL     1       8.345   8.537  18.215  0.00  0.00    +0.000 C 
ATOM      3  O   UNL     1       7.968   9.054  17.169  0.00  0.00    +0.000 OA
ATOM      4  N   UNL     1       7.989   7.253  18.611  0.00  0.00    +0.000 N 
ATOM      5  H   UNL     1       9.814   8.654  19.678  0.00  0.00    +0.000 HD
ATOM      6  H   UNL     1       8.161   7.010  19.575  0.00  0.00    +0.000 HD
ENDROOT
BRANCH   1  12
ATOM      7  C   UNL     1       9.188  11.425  20.193  0.00  0.00    +0.000 A 
ATOM      8  C   UNL     1       9.412  12.819  20.083  0.00  0.00    +0.000 A 
ATOM      9  C   UNL     1       9.894  13.422  18.911  0.00  0.00    +0.000 A 
ATOM     10  C   UNL     1      10.135  12.577  17.831  0.00  0.00    +0.000 A 
ATOM     11  C   UNL     1       9.877  11.206  17.903  0.00  0.00    +0.000 A 
ATOM     12  C   UNL     1       9.417  10.601  19.078  0.00  0.00    +0.000 A 
BRANCH   9  13
ATOM     13  N   UNL     1      10.092  14.780  18.817  0.00  0.00    +0.000 N 
ATOM     14  C   UNL     1       9.350  15.748  19.636  0.00  0.00    +0.000 C 
ATOM     15  C   UNL     1       8.756  16.836  18.725  0.00  0.00    +0.000 C 
ATOM     16  O   UNL     1       9.762  17.462  17.911  0.00  0.00    +0.000 OA
ATOM     17  C   UNL     1      10.404  16.485  17.073  0.00  0.00    +0.000 C 
ATOM     18  C   UNL     1      11.077  15.386  17.908  0.00  0.00    +0.000 C 
ENDBRANCH   9  13
BRANCH   7  20
ATOM     19  C   UNL     1       8.452  11.722  22.431  0.00  0.00    +0.000 C 
ATOM     20  O   UNL     1       8.762  10.826  21.358  0.00  0.00    +0.000 OA
ENDBRANCH   7  20
ENDBRANCH   1  12
BRANCH   4  21
ATOM     21  C   UNL     1       7.165   6.362  17.853  0.00  0.00    +0.000 A 
ATOM     22  C   UNL     1       7.481   5.954  16.553  0.00  0.00    +0.000 A 
ATOM     23  C   UNL     1       6.660   5.082  15.837  0.00  0.00    +0.000 A 
ATOM     24  C   UNL     1       5.502   4.584  16.419  0.00  0.00    +0.000 A 
ATOM     25  C   UNL     1       5.136   4.971  17.717  0.00  0.00    +0.000 A 
ATOM     26  C   UNL     1       5.983   5.860  18.428  0.00  0.00    +0.000 A 
BRANCH  25  27
ATOM     27  C   UNL     1       3.858   4.438  18.354  0.00  0.00    +0.000 C 
ATOM     28  C   UNL     1       3.413   5.321  19.526  0.00  0.00    +0.000 C 
BRANCH  27  29
ATOM     29  S   UNL     1       4.041   2.741  19.023  0.00  0.00    +0.000 S 
BRANCH  29  30
ATOM     30  C   UNL     1       2.867   2.732  20.282  0.00  0.00    +0.000 A 
ATOM     31  N   UNL     1       3.090   2.784  21.574  0.00  0.00    +0.000 NA
ATOM     32  N   UNL     1       1.870   2.647  22.207  0.00  0.00    +0.000 NA
ATOM     33  C   UNL     1       0.949   2.523  21.277  0.00  0.00    +0.000 A 
ATOM     34  N   UNL     1       1.530   2.595  20.048  0.00  0.00    +0.000 N 
ATOM     35  C   UNL     1       0.852   2.554  18.781  0.00  0.00    +0.000 C 
ENDBRANCH  29  30
ENDBRANCH  27  29
ENDBRANCH  25  27
ENDBRANCH   4  21
TORSDOF 7
ENDMDL
MODEL 4
REMARK VINA RESULT:      -7.9      3.060     10.735
REMARK  Name = 
REMARK  10 active torsions:
REMARK  status: ('A' for Active; 'I' for Inactive)
REMARK    1  A    between atoms: C_1  and  O_2
REMARK    2  A    between atoms: O_2  and  C_3
REMARK    3  A    between atoms: C_5  and  N_6
REMARK    4  A    between atoms: C_14  and  N_15
REMARK    5  A    between atoms: N_18  and  C_19
REMARK    6  A    between atoms: C_23  and  C_24
REMARK    7  A    between atoms: C_24  and  C_25
REMARK    8  A    between atoms: C_24  and  S_26
REMARK    9  A    between atoms: S_26  and  C_27
REMARK   10  A    between atoms: N_31  and  C_32
REMARK                            x       y       z     vdW  Elec       q    Type
REMARK                         _______ _______ _______ _____ _____    ______ ____
ROOT
ATOM      1  N   UNL     1       9.228   9.212  18.988  0.00  0.00    +0.000 N 
ATOM      2  C   UNL     1       8.263   8.655  18.157  0.00  0.00    +0.000 C 
ATOM      3  O   UNL     1       7.748   9.271  17.230  0.00  0.00    +0.000 OA
ATOM      4  N   UNL     1       7.927   7.348  18.492  0.00  0.00    +0.000 N 
ATOM      5  H   UNL     1       9.941   8.610  19.378  0.00  0.00    +0.000 HD
ATOM      6  H   UNL     1       8.236   7.016  19.393  0.00  0.00    +0.000 HD
ENDROOT
BRANCH   1  12
ATOM      7  C   UNL     1       9.317  11.375  20.176  0.00  0.00    +0.000 A 
ATOM      8  C   UNL     1       9.578  12.767  20.145  0.00  0.00    +0.000 A 
ATOM      9  C   UNL     1      10.075  13.423  19.009  0.00  0.00    +0.000 A 
ATOM     10  C   UNL     1      10.293  12.636  17.882  0.00  0.00    +0.000 A 
ATOM     11  C   UNL     1      10.000  11.270  17.876  0.00  0.00    +0.000 A 
ATOM     12  C   UNL     1       9.524  10.610  19.015  0.00  0.00    +0.000 A 
BRANCH   9  13
ATOM     13  N   UNL     1      10.309  14.779  18.993  0.00  0.00    +0.000 N 
ATOM     14  C   UNL     1      10.664  15.536  20.201  0.00  0.00    +0.000 C 
ATOM     15  C   UNL     1       9.743  16.763  20.322  0.00  0.00    +0.000 C 
ATOM     16  O   UNL     1       9.772  17.575  19.136  0.00  0.00    +0.000 OA
ATOM     17  C   UNL     1       9.341  16.808  17.998  0.00  0.00    +0.000 C 
ATOM     18  C   UNL     1      10.246  15.589  17.767  0.00  0.00    +0.000 C 
ENDBRANCH   9  13
BRANCH   7  20
ATOM     19  C   UNL     1       8.383  11.568  22.350  0.00  0.00    +0.000 C 
ATOM     20  O   UNL     1       8.875  10.722  21.306  0.00  0.00    +0.000 OA
ENDBRANCH   7  20
ENDBRANCH   1  12
BRANCH   4  21
ATOM     21  C   UNL     1       6.967   6.546  17.799  0.00  0.00    +0.000 A 
ATOM     22  C   UNL     1       7.306   5.705  16.733  0.00  0.00    +0.000 A 
ATOM     23  C   UNL     1       6.349   4.931  16.076  0.00  0.00    +0.000 A 
ATOM     24  C   UNL     1       5.023   4.972  16.484  0.00  0.00    +0.000 A 
ATOM     25  C   UNL     1       4.630   5.807  17.542  0.00  0.00    +0.000 A 
ATOM     26  C   UNL     1       5.618   6.587  18.196  0.00  0.00    +0.000 A 
BRANCH  25  27
ATOM     27  C   UNL     1       3.173   5.866  17.984  0.00  0.00    +0.000 C 
ATOM     28  C   UNL     1       2.649   7.307  17.973  0.00  0.00    +0.000 C 
BRANCH  27  29
ATOM     29  S   UNL     1       2.911   5.231  19.683  0.00  0.00    +0.000 S 
BRANCH  29  30
ATOM     30  C   UNL     1       3.500   3.618  19.549  0.00  0.00    +0.000 A 
ATOM     31  N   UNL     1       4.681   3.173  19.909  0.00  0.00    +0.000 NA
ATOM     32  N   UNL     1       4.756   1.849  19.524  0.00  0.00    +0.000 NA
ATOM     33  C   UNL     1       3.616   1.535  18.949  0.00  0.00    +0.000 A 
ATOM     34  N   UNL     1       2.786   2.614  18.964  0.00  0.00    +0.000 N 
ATOM     35  C   UNL     1       1.434   2.656  18.477  0.00  0.00    +0.000 C 
ENDBRANCH  29  30
ENDBRANCH  27  29
ENDBRANCH  25  27
ENDBRANCH   4  21
TORSDOF 7
ENDMDL
MODEL 5
REMARK VINA RESULT:      -7.8      0.974      1.400
REMARK  Name = 
REMARK  10 active torsions:
REMARK  status: ('A' for Active; 'I' for Inactive)
REMARK    1  A    between atoms: C_1  and  O_2
REMARK    2  A    between atoms: O_2  and  C_3
REMARK    3  A    between atoms: C_5  and  N_6
REMARK    4  A    between atoms: C_14  and  N_15
REMARK    5  A    between atoms: N_18  and  C_19
REMARK    6  A    between atoms: C_23  and  C_24
REMARK    7  A    between atoms: C_24  and  C_25
REMARK    8  A    between atoms: C_24  and  S_26
REMARK    9  A    between atoms: S_26  and  C_27
REMARK   10  A    between atoms: N_31  and  C_32
REMARK                            x       y       z     vdW  Elec       q    Type
REMARK                         _______ _______ _______ _____ _____    ______ ____
ROOT
ATOM      1  N   UNL     1       7.231   7.943  17.120  0.00  0.00    +0.000 N 
ATOM      2  C   UNL     1       8.166   8.530  17.963  0.00  0.00    +0.000 C 
ATOM      3  O   UNL     1       8.625   7.960  18.947  0.00  0.00    +0.000 OA
ATOM      4  N   UNL     1       8.511   9.826  17.595  0.00  0.00    +0.000 N 
ATOM      5  H   UNL     1       7.241   8.185  16.138  0.00  0.00    +0.000 HD
ATOM      6  H   UNL     1       7.919  10.278  16.915  0.00  0.00    +0.000 HD
ENDROOT
BRANCH   1  12
ATOM      7  C   UNL     1       6.578   5.617  16.610  0.00  0.00    +0.000 A 
ATOM      8  C   UNL     1       5.824   4.466  16.948  0.00  0.00    +0.000 A 
ATOM      9  C   UNL     1       5.047   4.380  18.113  0.00  0.00    +0.000 A 
ATOM     10  C   UNL     1       5.034   5.503  18.936  0.00  0.00    +0.000 A 
ATOM     11  C   UNL     1       5.733   6.665  18.599  0.00  0.00    +0.000 A 
ATOM     12  C   UNL     1       6.525   6.744  17.448  0.00  0.00    +0.000 A 
BRANCH   9  13
ATOM     13  N   UNL     1       4.311   3.259  18.418  0.00  0.00    +0.000 N 
ATOM     14  C   UNL     1       3.562   2.503  17.405  0.00  0.00    +0.000 C 
ATOM     15  C   UNL     1       2.116   2.295  17.891  0.00  0.00    +0.000 C 
ATOM     16  O   UNL     1       2.070   1.674  19.187  0.00  0.00    +0.000 OA
ATOM     17  C   UNL     1       2.749   2.492  20.156  0.00  0.00    +0.000 C 
ATOM     18  C   UNL     1       4.222   2.703  19.777  0.00  0.00    +0.000 C 
ENDBRANCH   9  13
BRANCH   7  20
ATOM     19  C   UNL     1       7.016   4.802  14.423  0.00  0.00    +0.000 C 
ATOM     20  O   UNL     1       7.378   5.684  15.491  0.00  0.00    +0.000 OA
ENDBRANCH   7  20
ENDBRANCH   1  12
BRANCH   4  21
ATOM     21  C   UNL     1       9.451  10.652  18.289  0.00  0.00    +0.000 A 
ATOM     22  C   UNL     1      10.665  11.061  17.726  0.00  0.00    +0.000 A 
ATOM     23  C   UNL     1      11.563  11.868  18.425  0.00  0.00    +0.000 A 
ATOM     24  C   UNL     1      11.256  12.300  19.708  0.00  0.00    +0.000 A 
ATOM     25  C   UNL     1      10.055  11.909  20.320  0.00  0.00    +0.000 A 
ATOM     26  C   UNL     1       9.156  11.086  19.594  0.00  0.00    +0.000 A 
BRANCH  25  27
ATOM     27  C   UNL     1       9.720  12.369  21.734  0.00  0.00    +0.000 C 
ATOM     28  C   UNL     1       8.377  11.792  22.201  0.00  0.00    +0.000 C 
BRANCH  27  29
ATOM     29  S   UNL     1       9.583  14.190  21.885  0.00  0.00    +0.000 S 
BRANCH  29  30
ATOM     30  C   UNL     1       8.103  14.500  21.060  0.00  0.00    +0.000 A 
ATOM     31  N   UNL     1       7.909  14.517  19.762  0.00  0.00    +0.000 NA
ATOM     32  N   UNL     1       6.602  14.909  19.549  0.00  0.00    +0.000 NA
ATOM     33  C   UNL     1       6.047  15.109  20.724  0.00  0.00    +0.000 A 
ATOM     34  N   UNL     1       6.952  14.840  21.705  0.00  0.00    +0.000 N 
ATOM     35  C   UNL     1       6.711  14.891  23.122  0.00  0.00    +0.000 C 
ENDBRANCH  29  30
ENDBRANCH  27  29
ENDBRANCH  25  27
ENDBRANCH   4  21
TORSDOF 7
ENDMDL
MODEL 6
REMARK VINA RESULT:      -7.8      0.704      1.245
REMARK  Name = 
REMARK  10 active torsions:
REMARK  status: ('A' for Active; 'I' for Inactive)
REMARK    1  A    between atoms: C_1  and  O_2
REMARK    2  A    between atoms: O_2  and  C_3
REMARK    3  A    between atoms: C_5  and  N_6
REMARK    4  A    between atoms: C_14  and  N_15
REMARK    5  A    between atoms: N_18  and  C_19
REMARK    6  A    between atoms: C_23  and  C_24
REMARK    7  A    between atoms: C_24  and  C_25
REMARK    8  A    between atoms: C_24  and  S_26
REMARK    9  A    between atoms: S_26  and  C_27
REMARK   10  A    between atoms: N_31  and  C_32
REMARK                            x       y       z     vdW  Elec       q    Type
REMARK                         _______ _______ _______ _____ _____    ______ ____
ROOT
ATOM      1  N   UNL     1       7.041   8.083  17.044  0.00  0.00    +0.000 N 
ATOM      2  C   UNL     1       8.008   8.589  17.903  0.00  0.00    +0.000 C 
ATOM      3  O   UNL     1       8.453   7.952  18.852  0.00  0.00    +0.000 OA
ATOM      4  N   UNL     1       8.403   9.886  17.596  0.00  0.00    +0.000 N 
ATOM      5  H   UNL     1       7.051   8.373  16.075  0.00  0.00    +0.000 HD
ATOM      6  H   UNL     1       7.823  10.395  16.945  0.00  0.00    +0.000 HD
ENDROOT
BRANCH   1  12
ATOM      7  C   UNL     1       6.493   5.720  16.585  0.00  0.00    +0.000 A 
ATOM      8  C   UNL     1       5.693   4.584  16.860  0.00  0.00    +0.000 A 
ATOM      9  C   UNL     1       4.719   4.565  17.870  0.00  0.00    +0.000 A 
ATOM     10  C   UNL     1       4.557   5.740  18.600  0.00  0.00    +0.000 A 
ATOM     11  C   UNL     1       5.303   6.886  18.315  0.00  0.00    +0.000 A 
ATOM     12  C   UNL     1       6.289   6.899  17.321  0.00  0.00    +0.000 A 
BRANCH   9  13
ATOM     13  N   UNL     1       3.942   3.456  18.114  0.00  0.00    +0.000 N 
ATOM     14  C   UNL     1       2.767   3.118  17.300  0.00  0.00    +0.000 C 
ATOM     15  C   UNL     1       1.563   2.861  18.225  0.00  0.00    +0.000 C 
ATOM     16  O   UNL     1       1.852   1.861  19.216  0.00  0.00    +0.000 OA
ATOM     17  C   UNL     1       2.960   2.277  20.035  0.00  0.00    +0.000 C 
ATOM     18  C   UNL     1       4.225   2.500  19.195  0.00  0.00    +0.000 C 
ENDBRANCH   9  13
BRANCH   7  20
ATOM     19  C   UNL     1       7.214   4.925  14.467  0.00  0.00    +0.000 C 
ATOM     20  O   UNL     1       7.481   5.723  15.625  0.00  0.00    +0.000 OA
ENDBRANCH   7  20
ENDBRANCH   1  12
BRANCH   4  21
ATOM     21  C   UNL     1       9.383  10.637  18.318  0.00  0.00    +0.000 A 
ATOM     22  C   UNL     1      10.678  10.859  17.835  0.00  0.00    +0.000 A 
ATOM     23  C   UNL     1      11.614  11.597  18.560  0.00  0.00    +0.000 A 
ATOM     24  C   UNL     1      11.267  12.147  19.787  0.00  0.00    +0.000 A 
ATOM     25  C   UNL     1       9.983  11.946  20.317  0.00  0.00    +0.000 A 
ATOM     26  C   UNL     1       9.046  11.190  19.566  0.00  0.00    +0.000 A 
BRANCH  25  27
ATOM     27  C   UNL     1       9.602  12.536  21.669  0.00  0.00    +0.000 C 
ATOM     28  C   UNL     1       8.646  11.607  22.430  0.00  0.00    +0.000 C 
BRANCH  27  29
ATOM     29  S   UNL     1       8.754  14.155  21.534  0.00  0.00    +0.000 S 
BRANCH  29  30
ATOM     30  C   UNL     1       9.901  15.077  20.640  0.00  0.00    +0.000 A 
ATOM     31  N   UNL     1      10.983  15.658  21.101  0.00  0.00    +0.000 NA
ATOM     32  N   UNL     1      11.543  16.370  20.059  0.00  0.00    +0.000 NA
ATOM     33  C   UNL     1      10.785  16.191  19.000  0.00  0.00    +0.000 A 
ATOM     34  N   UNL     1       9.750  15.364  19.315  0.00  0.00    +0.000 N 
ATOM     35  C   UNL     1       8.735  14.888  18.415  0.00  0.00    +0.000 C 
ENDBRANCH  29  30
ENDBRANCH  27  29
ENDBRANCH  25  27
ENDBRANCH   4  21
TORSDOF 7
ENDMDL
MODEL 7
REMARK VINA RESULT:      -7.7      6.470      9.016
REMARK  Name = 
REMARK  10 active torsions:
REMARK  status: ('A' for Active; 'I' for Inactive)
REMARK    1  A    between atoms: C_1  and  O_2
REMARK    2  A    between atoms: O_2  and  C_3
REMARK    3  A    between atoms: C_5  and  N_6
REMARK    4  A    between atoms: C_14  and  N_15
REMARK    5  A    between atoms: N_18  and  C_19
REMARK    6  A    between atoms: C_23  and  C_24
REMARK    7  A    between atoms: C_24  and  C_25
REMARK    8  A    between atoms: C_24  and  S_26
REMARK    9  A    between atoms: S_26  and  C_27
REMARK   10  A    between atoms: N_31  and  C_32
REMARK                            x       y       z     vdW  Elec       q    Type
REMARK                         _______ _______ _______ _____ _____    ______ ____
ROOT
ATOM      1  N   UNL     1       3.133   6.037  19.134  0.00  0.00    +0.000 N 
ATOM      2  C   UNL     1       2.364   7.195  19.154  0.00  0.00    +0.000 C 
ATOM      3  O   UNL     1       2.093   7.830  18.140  0.00  0.00    +0.000 OA
ATOM      4  N   UNL     1       1.956   7.571  20.429  0.00  0.00    +0.000 N 
ATOM      5  H   UNL     1       2.944   5.316  19.818  0.00  0.00    +0.000 HD
ATOM      6  H   UNL     1       2.413   7.116  21.205  0.00  0.00    +0.000 HD
ENDROOT
BRANCH   1  12
ATOM      7  C   UNL     1       3.761   4.320  17.475  0.00  0.00    +0.000 A 
ATOM      8  C   UNL     1       4.565   3.931  16.376  0.00  0.00    +0.000 A 
ATOM      9  C   UNL     1       5.468   4.803  15.747  0.00  0.00    +0.000 A 
ATOM     10  C   UNL     1       5.554   6.091  16.268  0.00  0.00    +0.000 A 
ATOM     11  C   UNL     1       4.805   6.481  17.381  0.00  0.00    +0.000 A 
ATOM     12  C   UNL     1       3.889   5.619  17.995  0.00  0.00    +0.000 A 
BRANCH   9  13
ATOM     13  N   UNL     1       6.251   4.403  14.688  0.00  0.00    +0.000 N 
ATOM     14  C   UNL     1       7.544   5.028  14.379  0.00  0.00    +0.000 C 
ATOM     15  C   UNL     1       7.577   5.418  12.890  0.00  0.00    +0.000 C 
ATOM     16  O   UNL     1       7.288   4.299  12.035  0.00  0.00    +0.000 OA
ATOM     17  C   UNL     1       5.981   3.774  12.327  0.00  0.00    +0.000 C 
ATOM     18  C   UNL     1       5.878   3.304  13.785  0.00  0.00    +0.000 C 
ENDBRANCH   9  13
BRANCH   7  20
ATOM     19  C   UNL     1       3.325   2.173  18.392  0.00  0.00    +0.000 C 
ATOM     20  O   UNL     1       2.841   3.480  18.062  0.00  0.00    +0.000 OA
ENDBRANCH   7  20
ENDBRANCH   1  12
BRANCH   4  21
ATOM     21  C   UNL     1       1.156   8.718  20.728  0.00  0.00    +0.000 A 
ATOM     22  C   UNL     1       0.818   9.090  22.034  0.00  0.00    +0.000 A 
ATOM     23  C   UNL     1       0.038  10.216  22.297  0.00  0.00    +0.000 A 
ATOM     24  C   UNL     1      -0.413  11.009  21.251  0.00  0.00    +0.000 A 
ATOM     25  C   UNL     1      -0.109  10.673  19.923  0.00  0.00    +0.000 A 
ATOM     26  C   UNL     1       0.684   9.523  19.675  0.00  0.00    +0.000 A 
BRANCH  25  27
ATOM     27  C   UNL     1      -0.614  11.533  18.770  0.00  0.00    +0.000 C 
ATOM     28  C   UNL     1      -0.063  12.961  18.861  0.00  0.00    +0.000 C 
BRANCH  27  29
ATOM     29  S   UNL     1      -2.440  11.682  18.730  0.00  0.00    +0.000 S 
BRANCH  29  30
ATOM     30  C   UNL     1      -2.818  10.959  17.214  0.00  0.00    +0.000 A 
ATOM     31  N   UNL     1      -2.043  10.187  16.489  0.00  0.00    +0.000 NA
ATOM     32  N   UNL     1      -2.712   9.924  15.310  0.00  0.00    +0.000 NA
ATOM     33  C   UNL     1      -3.872  10.539  15.364  0.00  0.00    +0.000 A 
ATOM     34  N   UNL     1      -3.991  11.185  16.556  0.00  0.00    +0.000 N 
ATOM     35  C   UNL     1      -5.134  11.927  17.013  0.00  0.00    +0.000 C 
ENDBRANCH  29  30
ENDBRANCH  27  29
ENDBRANCH  25  27
ENDBRANCH   4  21
TORSDOF 7
ENDMDL
MODEL 8
REMARK VINA RESULT:      -7.7      3.108     10.758
REMARK  Name = 
REMARK  10 active torsions:
REMARK  status: ('A' for Active; 'I' for Inactive)
REMARK    1  A    between atoms: C_1  and  O_2
REMARK    2  A    between atoms: O_2  and  C_3
REMARK    3  A    between atoms: C_5  and  N_6
REMARK    4  A    between atoms: C_14  and  N_15
REMARK    5  A    between atoms: N_18  and  C_19
REMARK    6  A    between atoms: C_23  and  C_24
REMARK    7  A    between atoms: C_24  and  C_25
REMARK    8  A    between atoms: C_24  and  S_26
REMARK    9  A    between atoms: S_26  and  C_27
REMARK   10  A    between atoms: N_31  and  C_32
REMARK                            x       y       z     vdW  Elec       q    Type
REMARK                         _______ _______ _______ _____ _____    ______ ____
ROOT
ATOM      1  N   UNL     1       9.328   9.367  18.963  0.00  0.00    +0.000 N 
ATOM      2  C   UNL     1       8.332   8.875  18.128  0.00  0.00    +0.000 C 
ATOM      3  O   UNL     1       7.813   9.548  17.244  0.00  0.00    +0.000 OA
ATOM      4  N   UNL     1       7.970   7.562  18.407  0.00  0.00    +0.000 N 
ATOM      5  H   UNL     1      10.034   8.729  19.307  0.00  0.00    +0.000 HD
ATOM      6  H   UNL     1       8.290   7.179  19.284  0.00  0.00    +0.000 HD
ENDROOT
BRANCH   1  12
ATOM      7  C   UNL     1       9.406  11.490  20.220  0.00  0.00    +0.000 A 
ATOM      8  C   UNL     1       9.706  12.874  20.247  0.00  0.00    +0.000 A 
ATOM      9  C   UNL     1      10.289  13.549  19.163  0.00  0.00    +0.000 A 
ATOM     10  C   UNL     1      10.553  12.788  18.028  0.00  0.00    +0.000 A 
ATOM     11  C   UNL     1      10.223  11.432  17.962  0.00  0.00    +0.000 A 
ATOM     12  C   UNL     1       9.661  10.754  19.050  0.00  0.00    +0.000 A 
BRANCH   9  13
ATOM     13  N   UNL     1      10.561  14.897  19.203  0.00  0.00    +0.000 N 
ATOM     14  C   UNL     1      11.731  15.449  19.899  0.00  0.00    +0.000 C 
ATOM     15  C   UNL     1      11.278  16.585  20.834  0.00  0.00    +0.000 C 
ATOM     16  O   UNL     1      10.530  17.592  20.131  0.00  0.00    +0.000 OA
ATOM     17  C   UNL     1       9.355  17.014  19.535  0.00  0.00    +0.000 C 
ATOM     18  C   UNL     1       9.720  15.904  18.538  0.00  0.00    +0.000 C 
ENDBRANCH   9  13
BRANCH   7  20
ATOM     19  C   UNL     1       8.376  11.648  22.354  0.00  0.00    +0.000 C 
ATOM     20  O   UNL     1       8.878  10.819  21.301  0.00  0.00    +0.000 OA
ENDBRANCH   7  20
ENDBRANCH   1  12
BRANCH   4  21
ATOM     21  C   UNL     1       6.974   6.818  17.699  0.00  0.00    +0.000 A 
ATOM     22  C   UNL     1       7.288   5.869  16.719  0.00  0.00    +0.000 A 
ATOM     23  C   UNL     1       6.296   5.157  16.044  0.00  0.00    +0.000 A 
ATOM     24  C   UNL     1       4.959   5.369  16.349  0.00  0.00    +0.000 A 
ATOM     25  C   UNL     1       4.592   6.317  17.317  0.00  0.00    +0.000 A 
ATOM     26  C   UNL     1       5.615   7.033  17.991  0.00  0.00    +0.000 A 
BRANCH  25  27
ATOM     27  C   UNL     1       3.125   6.564  17.644  0.00  0.00    +0.000 C 
ATOM     28  C   UNL     1       2.850   8.056  17.868  0.00  0.00    +0.000 C 
BRANCH  27  29
ATOM     29  S   UNL     1       2.571   5.701  19.163  0.00  0.00    +0.000 S 
BRANCH  29  30
ATOM     30  C   UNL     1       2.399   4.081  18.603  0.00  0.00    +0.000 A 
ATOM     31  N   UNL     1       1.371   3.566  17.972  0.00  0.00    +0.000 NA
ATOM     32  N   UNL     1       1.622   2.218  17.809  0.00  0.00    +0.000 NA
ATOM     33  C   UNL     1       2.797   1.964  18.341  0.00  0.00    +0.000 A 
ATOM     34  N   UNL     1       3.333   3.114  18.833  0.00  0.00    +0.000 N 
ATOM     35  C   UNL     1       4.626   3.259  19.443  0.00  0.00    +0.000 C 
ENDBRANCH  29  30
ENDBRANCH  27  29
ENDBRANCH  25  27
ENDBRANCH   4  21
TORSDOF 7
ENDMDL
MODEL 9
REMARK VINA RESULT:      -7.7      3.603      9.919
REMARK  Name = 
REMARK  10 active torsions:
REMARK  status: ('A' for Active; 'I' for Inactive)
REMARK    1  A    between atoms: C_1  and  O_2
REMARK    2  A    between atoms: O_2  and  C_3
REMARK    3  A    between atoms: C_5  and  N_6
REMARK    4  A    between atoms: C_14  and  N_15
REMARK    5  A    between atoms: N_18  and  C_19
REMARK    6  A    between atoms: C_23  and  C_24
REMARK    7  A    between atoms: C_24  and  C_25
REMARK    8  A    between atoms: C_24  and  S_26
REMARK    9  A    between atoms: S_26  and  C_27
REMARK   10  A    between atoms: N_31  and  C_32
REMARK                            x       y       z     vdW  Elec       q    Type
REMARK                         _______ _______ _______ _____ _____    ______ ____
ROOT
ATOM      1  N   UNL     1       9.316   9.109  19.102  0.00  0.00    +0.000 N 
ATOM      2  C   UNL     1       8.352   8.438  18.359  0.00  0.00    +0.000 C 
ATOM      3  O   UNL     1       7.768   8.951  17.411  0.00  0.00    +0.000 OA
ATOM      4  N   UNL     1       8.103   7.146  18.807  0.00  0.00    +0.000 N 
ATOM      5  H   UNL     1      10.076   8.578  19.506  0.00  0.00    +0.000 HD
ATOM      6  H   UNL     1       8.465   6.903  19.717  0.00  0.00    +0.000 HD
ENDROOT
BRANCH   1  12
ATOM      7  C   UNL     1       9.287  11.366  20.102  0.00  0.00    +0.000 A 
ATOM      8  C   UNL     1       9.471  12.763  19.952  0.00  0.00    +0.000 A 
ATOM      9  C   UNL     1       9.929  13.347  18.761  0.00  0.00    +0.000 A 
ATOM     10  C   UNL     1      10.190  12.480  17.704  0.00  0.00    +0.000 A 
ATOM     11  C   UNL     1       9.972  11.104  17.815  0.00  0.00    +0.000 A 
ATOM     12  C   UNL     1       9.535  10.519  19.009  0.00  0.00    +0.000 A 
BRANCH   9  13
ATOM     13  N   UNL     1      10.088  14.707  18.630  0.00  0.00    +0.000 N 
ATOM     14  C   UNL     1       9.161  15.675  19.230  0.00  0.00    +0.000 C 
ATOM     15  C   UNL     1       8.716  16.686  18.159  0.00  0.00    +0.000 C 
ATOM     16  O   UNL     1       9.837  17.321  17.521  0.00  0.00    +0.000 OA
ATOM     17  C   UNL     1      10.670  16.337  16.883  0.00  0.00    +0.000 C 
ATOM     18  C   UNL     1      11.208  15.316  17.896  0.00  0.00    +0.000 C 
ENDBRANCH   9  13
BRANCH   7  20
ATOM     19  C   UNL     1       8.454  11.703  22.300  0.00  0.00    +0.000 C 
ATOM     20  O   UNL     1       8.883  10.789  21.286  0.00  0.00    +0.000 OA
ENDBRANCH   7  20
ENDBRANCH   1  12
BRANCH   4  21
ATOM     21  C   UNL     1       7.162   6.242  18.220  0.00  0.00    +0.000 A 
ATOM     22  C   UNL     1       7.537   5.221  17.340  0.00  0.00    +0.000 A 
ATOM     23  C   UNL     1       6.598   4.352  16.783  0.00  0.00    +0.000 A 
ATOM     24  C   UNL     1       5.254   4.478  17.110  0.00  0.00    +0.000 A 
ATOM     25  C   UNL     1       4.827   5.492  17.981  0.00  0.00    +0.000 A 
ATOM     26  C   UNL     1       5.797   6.367  18.535  0.00  0.00    +0.000 A 
BRANCH  25  27
ATOM     27  C   UNL     1       3.352   5.643  18.331  0.00  0.00    +0.000 C 
ATOM     28  C   UNL     1       2.509   4.552  17.661  0.00  0.00    +0.000 C 
BRANCH  27  29
ATOM     29  S   UNL     1       2.646   7.247  17.796  0.00  0.00    +0.000 S 
BRANCH  29  30
ATOM     30  C   UNL     1       1.992   7.851  19.270  0.00  0.00    +0.000 A 
ATOM     31  N   UNL     1       1.934   7.230  20.424  0.00  0.00    +0.000 NA
ATOM     32  N   UNL     1       1.238   8.046  21.295  0.00  0.00    +0.000 NA
ATOM     33  C   UNL     1       0.905   9.136  20.641  0.00  0.00    +0.000 A 
ATOM     34  N   UNL     1       1.380   9.066  19.367  0.00  0.00    +0.000 N 
ATOM     35  C   UNL     1       1.267  10.084  18.358  0.00  0.00    +0.000 C 
ENDBRANCH  29  30
ENDBRANCH  27  29
ENDBRANCH  25  27
ENDBRANCH   4  21
TORSDOF 7
ENDMDL
