MODEL 1
REMARK VINA RESULT:     -10.4      0.000      0.000
REMARK  Name = 
REMARK  8 active torsions:
REMARK  status: ('A' for Active; 'I' for Inactive)
REMARK    1  A    between atoms: C_1  and  N_2
REMARK    2  A    between atoms: C_6  and  C_7
REMARK    3  A    between atoms: C_7  and  C_8
REMARK    4  A    between atoms: C_8  and  C_9
REMARK    5  A    between atoms: C_13  and  N_14
REMARK    6  A    between atoms: C_19  and  C_20
REMARK    7  A    between atoms: C_20  and  N_21
REMARK    8  A    between atoms: C_29  and  C_30
REMARK                            x       y       z     vdW  Elec       q    Type
REMARK                         _______ _______ _______ _____ _____    ______ ____
ROOT
ATOM      1  N   UNL     1       1.346   8.249  20.272  0.00  0.00    +0.000 N 
ATOM      2  C   UNL     1       1.441   6.894  20.778  0.00  0.00    +0.000 C 
ATOM      3  C   UNL     1       2.191   6.165  19.734  0.00  0.00    +0.000 A 
ATOM      4  C   UNL     1       2.617   7.051  18.751  0.00  0.00    +0.000 A 
ATOM      5  C   UNL     1       3.399   6.616  17.694  0.00  0.00    +0.000 A 
ATOM      6  C   UNL     1       3.727   5.243  17.638  0.00  0.00    +0.000 A 
ATOM      7  C   UNL     1       3.236   4.353  18.624  0.00  0.00    +0.000 A 
ATOM      8  C   UNL     1       2.458   4.801  19.693  0.00  0.00    +0.000 A 
ATOM      9  C   UNL     1       2.054   8.394  19.072  0.00  0.00    +0.000 C 
ATOM     10  O   UNL     1       2.213   9.375  18.366  0.00  0.00    +0.000 OA
ENDROOT
BRANCH   1  15
ATOM     11  C   UNL     1      -0.909  11.216  20.712  0.00  0.00    +0.000 A 
ATOM     12  C   UNL     1      -1.064  11.200  22.105  0.00  0.00    +0.000 A 
ATOM     13  C   UNL     1      -0.485  10.193  22.896  0.00  0.00    +0.000 A 
ATOM     14  C   UNL     1       0.301   9.179  22.322  0.00  0.00    +0.000 A 
ATOM     15  C   UNL     1       0.500   9.165  20.952  0.00  0.00    +0.000 A 
ATOM     16  C   UNL     1      -0.140  10.165  20.191  0.00  0.00    +0.000 A 
BRANCH  11  17
ATOM     17  C   UNL     1      -1.542  12.322  19.715  0.00  0.00    +0.000 C 
ATOM     18  C   UNL     1      -0.611  12.806  18.574  0.00  0.00    +0.000 C 
ATOM     19  O   UNL     1      -0.666  14.176  19.013  0.00  0.00    +0.000 OA
ATOM     20  C   UNL     1      -1.471  13.819  20.155  0.00  0.00    +0.000 C 
BRANCH  17  21
ATOM     21  C   UNL     1      -2.952  11.908  19.221  0.00  0.00    +0.000 C 
BRANCH  21  27
ATOM     22  C   UNL     1      -5.269  12.140  17.075  0.00  0.00    +0.000 C 
ATOM     23  N   UNL     1      -4.017  11.444  16.934  0.00  0.00    +0.000 N 
ATOM     24  C   UNL     1      -3.641  10.738  15.828  0.00  0.00    +0.000 A 
ATOM     25  N   UNL     1      -2.465  10.197  16.038  0.00  0.00    +0.000 NA
ATOM     26  N   UNL     1      -2.067  10.538  17.304  0.00  0.00    +0.000 NA
ATOM     27  C   UNL     1      -2.990  11.320  17.841  0.00  0.00    +0.000 A 
ENDBRANCH  21  27
ENDBRANCH  17  21
ENDBRANCH  11  17
ENDBRANCH   1  15
BRANCH   8  28
ATOM     28  C   UNL     1       1.930   3.835  20.723  0.00  0.00    +0.000 C 
ATOM     29  F   UNL     1       2.300   2.544  20.509  0.00  0.00    +0.000 F 
ATOM     30  F   UNL     1       2.346   4.142  21.982  0.00  0.00    +0.000 F 
ATOM     31  F   UNL     1       0.570   3.821  20.764  0.00  0.00    +0.000 F 
ENDBRANCH   8  28
BRANCH   6  32
ATOM     32  C   UNL     1       4.651   4.682  16.575  0.00  0.00    +0.000 C 
BRANCH  32  33
ATOM     33  N   UNL     1       6.052   5.130  16.716  0.00  0.00    +0.000 NA
ATOM     34  C   UNL     1       6.160   6.574  16.440  0.00  0.00    +0.000 C 
ATOM     35  C   UNL     1       7.508   7.173  16.844  0.00  0.00    +0.000 C 
ATOM     36  C   UNL     1       7.739   7.003  18.341  0.00  0.00    +0.000 C 
ATOM     37  C   UNL     1       7.573   5.587  18.783  0.00  0.00    +0.000 C 
ATOM     38  C   UNL     1       8.127   4.414  18.021  0.00  0.00    +0.000 C 
ATOM     39  C   UNL     1       6.640   4.702  18.007  0.00  0.00    +0.000 C 
ENDBRANCH  32  33
ENDBRANCH   6  32
TORSDOF 7
ENDMDL
MODEL 2
REMARK VINA RESULT:     -10.1      1.841      2.843
REMARK  Name = 
REMARK  8 active torsions:
REMARK  status: ('A' for Active; 'I' for Inactive)
REMARK    1  A    between atoms: C_1  and  N_2
REMARK    2  A    between atoms: C_6  and  C_7
REMARK    3  A    between atoms: C_7  and  C_8
REMARK    4  A    between atoms: C_8  and  C_9
REMARK    5  A    between atoms: C_13  and  N_14
REMARK    6  A    between atoms: C_19  and  C_20
REMARK    7  A    between atoms: C_20  and  N_21
REMARK    8  A    between atoms: C_29  and  C_30
REMARK                            x       y       z     vdW  Elec       q    Type
REMARK                         _______ _______ _______ _____ _____    ______ ____
ROOT
ATOM      1  N   UNL     1       1.439   8.021  20.264  0.00  0.00    +0.000 N 
ATOM      2  C   UNL     1       1.496   6.694  20.843  0.00  0.00    +0.000 C 
ATOM      3  C   UNL     1       2.203   5.883  19.830  0.00  0.00    +0.000 A 
ATOM      4  C   UNL     1       2.643   6.698  18.793  0.00  0.00    +0.000 A 
ATOM      5  C   UNL     1       3.391   6.178  17.750  0.00  0.00    +0.000 A 
ATOM      6  C   UNL     1       3.670   4.794  17.765  0.00  0.00    +0.000 A 
ATOM      7  C   UNL     1       3.166   3.976  18.806  0.00  0.00    +0.000 A 
ATOM      8  C   UNL     1       2.422   4.510  19.860  0.00  0.00    +0.000 A 
ATOM      9  C   UNL     1       2.131   8.075  19.048  0.00  0.00    +0.000 C 
ATOM     10  O   UNL     1       2.312   9.010  18.286  0.00  0.00    +0.000 OA
ENDROOT
BRANCH   1  15
ATOM     11  C   UNL     1      -0.760  11.047  20.563  0.00  0.00    +0.000 A 
ATOM     12  C   UNL     1      -0.848  11.149  21.958  0.00  0.00    +0.000 A 
ATOM     13  C   UNL     1      -0.242  10.201  22.801  0.00  0.00    +0.000 A 
ATOM     14  C   UNL     1       0.505   9.132  22.277  0.00  0.00    +0.000 A 
ATOM     15  C   UNL     1       0.637   9.002  20.905  0.00  0.00    +0.000 A 
ATOM     16  C   UNL     1      -0.028   9.945  20.095  0.00  0.00    +0.000 A 
BRANCH  11  17
ATOM     17  C   UNL     1      -1.429  12.076  19.508  0.00  0.00    +0.000 C 
ATOM     18  C   UNL     1      -2.979  12.098  19.485  0.00  0.00    +0.000 C 
ATOM     19  O   UNL     1      -3.036  11.719  18.097  0.00  0.00    +0.000 OA
ATOM     20  C   UNL     1      -1.601  11.590  18.033  0.00  0.00    +0.000 C 
BRANCH  17  21
ATOM     21  C   UNL     1      -0.798  13.488  19.605  0.00  0.00    +0.000 C 
BRANCH  21  27
ATOM     22  C   UNL     1       1.284  14.572  21.731  0.00  0.00    +0.000 C 
ATOM     23  N   UNL     1       1.572  13.999  20.444  0.00  0.00    +0.000 N 
ATOM     24  C   UNL     1       2.824  13.854  19.921  0.00  0.00    +0.000 A 
ATOM     25  N   UNL     1       2.736  13.334  18.720  0.00  0.00    +0.000 NA
ATOM     26  N   UNL     1       1.407  13.147  18.442  0.00  0.00    +0.000 NA
ATOM     27  C   UNL     1       0.698  13.519  19.495  0.00  0.00    +0.000 A 
ENDBRANCH  21  27
ENDBRANCH  17  21
ENDBRANCH  11  17
ENDBRANCH   1  15
BRANCH   8  28
ATOM     28  C   UNL     1       1.879   3.621  20.950  0.00  0.00    +0.000 C 
ATOM     29  F   UNL     1       2.232   2.314  20.823  0.00  0.00    +0.000 F 
ATOM     30  F   UNL     1       2.294   4.006  22.187  0.00  0.00    +0.000 F 
ATOM     31  F   UNL     1       0.519   3.626  20.987  0.00  0.00    +0.000 F 
ENDBRANCH   8  28
BRANCH   6  32
ATOM     32  C   UNL     1       4.556   4.143  16.721  0.00  0.00    +0.000 C 
BRANCH  32  33
ATOM     33  N   UNL     1       5.933   4.680  16.698  0.00  0.00    +0.000 NA
ATOM     34  C   UNL     1       5.967   5.974  15.992  0.00  0.00    +0.000 C 
ATOM     35  C   UNL     1       7.283   6.734  16.174  0.00  0.00    +0.000 C 
ATOM     36  C   UNL     1       7.519   7.041  17.648  0.00  0.00    +0.000 C 
ATOM     37  C   UNL     1       7.426   5.823  18.504  0.00  0.00    +0.000 C 
ATOM     38  C   UNL     1       8.040   4.502  18.130  0.00  0.00    +0.000 C 
ATOM     39  C   UNL     1       6.540   4.698  18.050  0.00  0.00    +0.000 C 
ENDBRANCH  32  33
ENDBRANCH   6  32
TORSDOF 7
ENDMDL
MODEL 3
REMARK VINA RESULT:     -10.1      2.915      8.944
REMARK  Name = 
REMARK  8 active torsions:
REMARK  status: ('A' for Active; 'I' for Inactive)
REMARK    1  A    between atoms: C_1  and  N_2
REMARK    2  A    between atoms: C_6  and  C_7
REMARK    3  A    between atoms: C_7  and  C_8
REMARK    4  A    between atoms: C_8  and  C_9
REMARK    5  A    between atoms: C_13  and  N_14
REMARK    6  A    between atoms: C_19  and  C_20
REMARK    7  A    between atoms: C_20  and  N_21
REMARK    8  A    between atoms: C_29  and  C_30
REMARK                            x       y       z     vdW  Elec       q    Type
REMARK                         _______ _______ _______ _____ _____    ______ ____
ROOT
ATOM      1  N   UNL     1       2.313   7.343  19.343  0.00  0.00    +0.000 N 
ATOM      2  C   UNL     1       1.537   7.707  20.511  0.00  0.00    +0.000 C 
ATOM      3  C   UNL     1       0.983   9.038  20.183  0.00  0.00    +0.000 A 
ATOM      4  C   UNL     1       1.302   9.372  18.872  0.00  0.00    +0.000 A 
ATOM      5  C   UNL     1       0.838  10.549  18.307  0.00  0.00    +0.000 A 
ATOM      6  C   UNL     1       0.054  11.403  19.113  0.00  0.00    +0.000 A 
ATOM      7  C   UNL     1      -0.212  11.062  20.463  0.00  0.00    +0.000 A 
ATOM      8  C   UNL     1       0.249   9.869  21.021  0.00  0.00    +0.000 A 
ATOM      9  C   UNL     1       2.184   8.300  18.328  0.00  0.00    +0.000 C 
ATOM     10  O   UNL     1       2.670   8.333  17.211  0.00  0.00    +0.000 OA
ENDROOT
BRANCH   1  15
ATOM     11  C   UNL     1       5.403   5.266  18.874  0.00  0.00    +0.000 A 
ATOM     12  C   UNL     1       4.925   4.018  19.294  0.00  0.00    +0.000 A 
ATOM     13  C   UNL     1       3.617   3.862  19.785  0.00  0.00    +0.000 A 
ATOM     14  C   UNL     1       2.726   4.947  19.842  0.00  0.00    +0.000 A 
ATOM     15  C   UNL     1       3.147   6.196  19.418  0.00  0.00    +0.000 A 
ATOM     16  C   UNL     1       4.482   6.319  18.980  0.00  0.00    +0.000 A 
BRANCH  11  17
ATOM     17  C   UNL     1       6.891   5.553  18.305  0.00  0.00    +0.000 C 
ATOM     18  C   UNL     1       7.951   5.941  19.368  0.00  0.00    +0.000 C 
ATOM     19  O   UNL     1       8.215   7.212  18.744  0.00  0.00    +0.000 OA
ATOM     20  C   UNL     1       7.192   6.983  17.754  0.00  0.00    +0.000 C 
BRANCH  17  21
ATOM     21  C   UNL     1       7.366   4.429  17.349  0.00  0.00    +0.000 C 
BRANCH  21  27
ATOM     22  C   UNL     1       4.664   3.517  15.971  0.00  0.00    +0.000 C 
ATOM     23  N   UNL     1       5.772   4.196  15.353  0.00  0.00    +0.000 N 
ATOM     24  C   UNL     1       5.835   4.538  14.033  0.00  0.00    +0.000 A 
ATOM     25  N   UNL     1       6.990   5.108  13.787  0.00  0.00    +0.000 NA
ATOM     26  N   UNL     1       7.703   5.130  14.956  0.00  0.00    +0.000 NA
ATOM     27  C   UNL     1       6.959   4.606  15.916  0.00  0.00    +0.000 A 
ENDBRANCH  21  27
ENDBRANCH  17  21
ENDBRANCH  11  17
ENDBRANCH   1  15
BRANCH   8  28
ATOM     28  C   UNL     1      -0.030   9.533  22.464  0.00  0.00    +0.000 C 
ATOM     29  F   UNL     1      -0.844   8.456  22.632  0.00  0.00    +0.000 F 
ATOM     30  F   UNL     1       1.107   9.259  23.160  0.00  0.00    +0.000 F 
ATOM     31  F   UNL     1      -0.641  10.556  23.121  0.00  0.00    +0.000 F 
ENDBRANCH   8  28
BRANCH   6  32
ATOM     32  C   UNL     1      -0.578  12.667  18.565  0.00  0.00    +0.000 C 
BRANCH  32  33
ATOM     33  N   UNL     1       0.163  13.897  18.916  0.00  0.00    +0.000 NA
ATOM     34  C   UNL     1      -0.268  14.398  20.234  0.00  0.00    +0.000 C 
ATOM     35  C   UNL     1       0.645  15.487  20.801  0.00  0.00    +0.000 C 
ATOM     36  C   UNL     1       2.060  14.953  20.985  0.00  0.00    +0.000 C 
ATOM     37  C   UNL     1       2.599  14.330  19.740  0.00  0.00    +0.000 C 
ATOM     38  C   UNL     1       2.431  14.938  18.374  0.00  0.00    +0.000 C 
ATOM     39  C   UNL     1       1.627  13.718  18.772  0.00  0.00    +0.000 C 
ENDBRANCH  32  33
ENDBRANCH   6  32
TORSDOF 7
ENDMDL
MODEL 4
REMARK VINA RESULT:     -10.1      1.955      2.926
REMARK  Name = 
REMARK  8 active torsions:
REMARK  status: ('A' for Active; 'I' for Inactive)
REMARK    1  A    between atoms: C_1  and  N_2
REMARK    2  A    between atoms: C_6  and  C_7
REMARK    3  A    between atoms: C_7  and  C_8
REMARK    4  A    between atoms: C_8  and  C_9
REMARK    5  A    between atoms: C_13  and  N_14
REMARK    6  A    between atoms: C_19  and  C_20
REMARK    7  A    between atoms: C_20  and  N_21
REMARK    8  A    between atoms: C_29  and  C_30
REMARK                            x       y       z     vdW  Elec       q    Type
REMARK                         _______ _______ _______ _____ _____    ______ ____
ROOT
ATOM      1  N   UNL     1       1.345   8.245  20.417  0.00  0.00    +0.000 N 
ATOM      2  C   UNL     1       1.472   6.889  20.913  0.00  0.00    +0.000 C 
ATOM      3  C   UNL     1       2.201   6.175  19.845  0.00  0.00    +0.000 A 
ATOM      4  C   UNL     1       2.587   7.071  18.855  0.00  0.00    +0.000 A 
ATOM      5  C   UNL     1       3.344   6.650  17.774  0.00  0.00    +0.000 A 
ATOM      6  C   UNL     1       3.688   5.282  17.701  0.00  0.00    +0.000 A 
ATOM      7  C   UNL     1       3.236   4.381  18.697  0.00  0.00    +0.000 A 
ATOM      8  C   UNL     1       2.484   4.814  19.790  0.00  0.00    +0.000 A 
ATOM      9  C   UNL     1       2.017   8.404  19.198  0.00  0.00    +0.000 C 
ATOM     10  O   UNL     1       2.143   9.390  18.492  0.00  0.00    +0.000 OA
ENDROOT
BRANCH   1  15
ATOM     11  C   UNL     1      -0.899  11.206  20.945  0.00  0.00    +0.000 A 
ATOM     12  C   UNL     1      -1.042  11.159  22.339  0.00  0.00    +0.000 A 
ATOM     13  C   UNL     1      -0.457  10.132  23.101  0.00  0.00    +0.000 A 
ATOM     14  C   UNL     1       0.321   9.130  22.497  0.00  0.00    +0.000 A 
ATOM     15  C   UNL     1       0.507   9.147  21.125  0.00  0.00    +0.000 A 
ATOM     16  C   UNL     1      -0.137  10.165  20.393  0.00  0.00    +0.000 A 
BRANCH  11  17
ATOM     17  C   UNL     1      -1.539  12.335  19.978  0.00  0.00    +0.000 C 
ATOM     18  C   UNL     1      -3.084  12.317  19.859  0.00  0.00    +0.000 C 
ATOM     19  O   UNL     1      -3.044  12.106  18.435  0.00  0.00    +0.000 OA
ATOM     20  C   UNL     1      -1.604  12.026  18.448  0.00  0.00    +0.000 C 
BRANCH  17  21
ATOM     21  C   UNL     1      -0.964  13.742  20.282  0.00  0.00    +0.000 C 
BRANCH  21  27
ATOM     22  C   UNL     1       1.518  13.382  18.349  0.00  0.00    +0.000 C 
ATOM     23  N   UNL     1       1.545  13.606  19.770  0.00  0.00    +0.000 N 
ATOM     24  C   UNL     1       2.681  13.675  20.524  0.00  0.00    +0.000 A 
ATOM     25  N   UNL     1       2.357  13.849  21.782  0.00  0.00    +0.000 NA
ATOM     26  N   UNL     1       0.989  13.882  21.862  0.00  0.00    +0.000 NA
ATOM     27  C   UNL     1       0.492  13.765  20.641  0.00  0.00    +0.000 A 
ENDBRANCH  21  27
ENDBRANCH  17  21
ENDBRANCH  11  17
ENDBRANCH   1  15
BRANCH   8  28
ATOM     28  C   UNL     1       1.998   3.837  20.830  0.00  0.00    +0.000 C 
ATOM     29  F   UNL     1       2.454   2.568  20.650  0.00  0.00    +0.000 F 
ATOM     30  F   UNL     1       2.366   4.196  22.089  0.00  0.00    +0.000 F 
ATOM     31  F   UNL     1       0.641   3.735  20.844  0.00  0.00    +0.000 F 
ENDBRANCH   8  28
BRANCH   6  32
ATOM     32  C   UNL     1       4.588   4.737  16.610  0.00  0.00    +0.000 C 
BRANCH  32  33
ATOM     33  N   UNL     1       5.995   5.171  16.735  0.00  0.00    +0.000 NA
ATOM     34  C   UNL     1       6.116   6.611  16.441  0.00  0.00    +0.000 C 
ATOM     35  C   UNL     1       7.474   7.200  16.829  0.00  0.00    +0.000 C 
ATOM     36  C   UNL     1       7.714   7.045  18.325  0.00  0.00    +0.000 C 
ATOM     37  C   UNL     1       7.536   5.636  18.786  0.00  0.00    +0.000 C 
ATOM     38  C   UNL     1       8.072   4.449  18.033  0.00  0.00    +0.000 C 
ATOM     39  C   UNL     1       6.588   4.752  18.027  0.00  0.00    +0.000 C 
ENDBRANCH  32  33
ENDBRANCH   6  32
TORSDOF 7
ENDMDL
MODEL 5
REMARK VINA RESULT:     -10.0      2.396      9.160
REMARK  Name = 
REMARK  8 active torsions:
REMARK  status: ('A' for Active; 'I' for Inactive)
REMARK    1  A    between atoms: C_1  and  N_2
REMARK    2  A    between atoms: C_6  and  C_7
REMARK    3  A    between atoms: C_7  and  C_8
REMARK    4  A    between atoms: C_8  and  C_9
REMARK    5  A    between atoms: C_13  and  N_14
REMARK    6  A    between atoms: C_19  and  C_20
REMARK    7  A    between atoms: C_20  and  N_21
REMARK    8  A    between atoms: C_29  and  C_30
REMARK                            x       y       z     vdW  Elec       q    Type
REMARK                         _______ _______ _______ _____ _____    ______ ____
ROOT
ATOM      1  N   UNL     1       2.323   7.295  19.396  0.00  0.00    +0.000 N 
ATOM      2  C   UNL     1       1.584   7.647  20.591  0.00  0.00    +0.000 C 
ATOM      3  C   UNL     1       0.989   8.964  20.279  0.00  0.00    +0.000 A 
ATOM      4  C   UNL     1       1.251   9.300  18.956  0.00  0.00    +0.000 A 
ATOM      5  C   UNL     1       0.740  10.463  18.406  0.00  0.00    +0.000 A 
ATOM      6  C   UNL     1      -0.032  11.303  19.237  0.00  0.00    +0.000 A 
ATOM      7  C   UNL     1      -0.240  10.963  20.597  0.00  0.00    +0.000 A 
ATOM      8  C   UNL     1       0.268   9.782  21.142  0.00  0.00    +0.000 A 
ATOM      9  C   UNL     1       2.135   8.245  18.384  0.00  0.00    +0.000 C 
ATOM     10  O   UNL     1       2.579   8.283  17.249  0.00  0.00    +0.000 OA
ENDROOT
BRANCH   1  15
ATOM     11  C   UNL     1       5.443   5.288  18.830  0.00  0.00    +0.000 A 
ATOM     12  C   UNL     1       5.006   4.029  19.263  0.00  0.00    +0.000 A 
ATOM     13  C   UNL     1       3.717   3.843  19.793  0.00  0.00    +0.000 A 
ATOM     14  C   UNL     1       2.805   4.909  19.879  0.00  0.00    +0.000 A 
ATOM     15  C   UNL     1       3.185   6.167  19.444  0.00  0.00    +0.000 A 
ATOM     16  C   UNL     1       4.502   6.320  18.966  0.00  0.00    +0.000 A 
BRANCH  11  17
ATOM     17  C   UNL     1       6.906   5.608  18.217  0.00  0.00    +0.000 C 
ATOM     18  C   UNL     1       7.981   6.050  19.242  0.00  0.00    +0.000 C 
ATOM     19  O   UNL     1       8.189   7.316  18.588  0.00  0.00    +0.000 OA
ATOM     20  C   UNL     1       7.148   7.036  17.629  0.00  0.00    +0.000 C 
BRANCH  17  21
ATOM     21  C   UNL     1       7.390   4.480  17.270  0.00  0.00    +0.000 C 
BRANCH  21  27
ATOM     22  C   UNL     1       4.687   3.558  15.903  0.00  0.00    +0.000 C 
ATOM     23  N   UNL     1       5.796   4.228  15.277  0.00  0.00    +0.000 N 
ATOM     24  C   UNL     1       5.859   4.555  13.953  0.00  0.00    +0.000 A 
ATOM     25  N   UNL     1       7.015   5.121  13.701  0.00  0.00    +0.000 NA
ATOM     26  N   UNL     1       7.729   5.154  14.870  0.00  0.00    +0.000 NA
ATOM     27  C   UNL     1       6.983   4.642  15.835  0.00  0.00    +0.000 A 
ENDBRANCH  21  27
ENDBRANCH  17  21
ENDBRANCH  11  17
ENDBRANCH   1  15
BRANCH   8  28
ATOM     28  C   UNL     1       0.050   9.446  22.595  0.00  0.00    +0.000 C 
ATOM     29  F   UNL     1      -0.740   8.358  22.797  0.00  0.00    +0.000 F 
ATOM     30  F   UNL     1       1.217   9.191  23.247  0.00  0.00    +0.000 F 
ATOM     31  F   UNL     1      -0.550  10.462  23.273  0.00  0.00    +0.000 F 
ENDBRANCH   8  28
BRANCH   6  32
ATOM     32  C   UNL     1      -0.711  12.551  18.709  0.00  0.00    +0.000 C 
BRANCH  32  33
ATOM     33  N   UNL     1      -1.945  12.272  17.944  0.00  0.00    +0.000 NA
ATOM     34  C   UNL     1      -1.628  11.523  16.714  0.00  0.00    +0.000 C 
ATOM     35  C   UNL     1      -2.861  10.943  16.019  0.00  0.00    +0.000 C 
ATOM     36  C   UNL     1      -3.583   9.970  16.941  0.00  0.00    +0.000 C 
ATOM     37  C   UNL     1      -3.893  10.572  18.272  0.00  0.00    +0.000 C 
ATOM     38  C   UNL     1      -4.430  11.966  18.441  0.00  0.00    +0.000 C 
ATOM     39  C   UNL     1      -2.991  11.654  18.792  0.00  0.00    +0.000 C 
ENDBRANCH  32  33
ENDBRANCH   6  32
TORSDOF 7
ENDMDL
MODEL 6
REMARK VINA RESULT:     -10.0      1.748      2.287
REMARK  Name = 
REMARK  8 active torsions:
REMARK  status: ('A' for Active; 'I' for Inactive)
REMARK    1  A    between atoms: C_1  and  N_2
REMARK    2  A    between atoms: C_6  and  C_7
REMARK    3  A    between atoms: C_7  and  C_8
REMARK    4  A    between atoms: C_8  and  C_9
REMARK    5  A    between atoms: C_13  and  N_14
REMARK    6  A    between atoms: C_19  and  C_20
REMARK    7  A    between atoms: C_20  and  N_21
REMARK    8  A    between atoms: C_29  and  C_30
REMARK                            x       y       z     vdW  Elec       q    Type
REMARK                         _______ _______ _______ _____ _____    ______ ____
ROOT
ATOM      1  N   UNL     1       1.299   8.211  20.349  0.00  0.00    +0.000 N 
ATOM      2  C   UNL     1       1.413   6.858  20.854  0.00  0.00    +0.000 C 
ATOM      3  C   UNL     1       2.150   6.133  19.797  0.00  0.00    +0.000 A 
ATOM      4  C   UNL     1       2.552   7.022  18.806  0.00  0.00    +0.000 A 
ATOM      5  C   UNL     1       3.319   6.592  17.736  0.00  0.00    +0.000 A 
ATOM      6  C   UNL     1       3.655   5.222  17.674  0.00  0.00    +0.000 A 
ATOM      7  C   UNL     1       3.189   4.328  18.670  0.00  0.00    +0.000 A 
ATOM      8  C   UNL     1       2.427   4.771  19.752  0.00  0.00    +0.000 A 
ATOM      9  C   UNL     1       1.985   8.361  19.137  0.00  0.00    +0.000 C 
ATOM     10  O   UNL     1       2.124   9.342  18.427  0.00  0.00    +0.000 OA
ENDROOT
BRANCH   1  15
ATOM     11  C   UNL     1      -1.096  11.064  20.803  0.00  0.00    +0.000 A 
ATOM     12  C   UNL     1      -1.127  11.137  22.202  0.00  0.00    +0.000 A 
ATOM     13  C   UNL     1      -0.416  10.223  23.000  0.00  0.00    +0.000 A 
ATOM     14  C   UNL     1       0.380   9.219  22.422  0.00  0.00    +0.000 A 
ATOM     15  C   UNL     1       0.459   9.121  21.044  0.00  0.00    +0.000 A 
ATOM     16  C   UNL     1      -0.309  10.026  20.282  0.00  0.00    +0.000 A 
BRANCH  11  17
ATOM     17  C   UNL     1      -1.884  12.058  19.799  0.00  0.00    +0.000 C 
ATOM     18  C   UNL     1      -2.801  11.369  18.757  0.00  0.00    +0.000 C 
ATOM     19  O   UNL     1      -2.082  11.933  17.644  0.00  0.00    +0.000 OA
ATOM     20  C   UNL     1      -1.125  12.553  18.526  0.00  0.00    +0.000 C 
BRANCH  17  21
ATOM     21  C   UNL     1      -2.585  13.209  20.564  0.00  0.00    +0.000 C 
BRANCH  21  27
ATOM     22  C   UNL     1      -5.406  13.524  19.161  0.00  0.00    +0.000 C 
ATOM     23  N   UNL     1      -5.141  13.016  20.481  0.00  0.00    +0.000 N 
ATOM     24  C   UNL     1      -6.099  12.604  21.361  0.00  0.00    +0.000 A 
ATOM     25  N   UNL     1      -5.528  12.236  22.483  0.00  0.00    +0.000 NA
ATOM     26  N   UNL     1      -4.178  12.423  22.346  0.00  0.00    +0.000 NA
ATOM     27  C   UNL     1      -3.934  12.866  21.124  0.00  0.00    +0.000 A 
ENDBRANCH  21  27
ENDBRANCH  17  21
ENDBRANCH  11  17
ENDBRANCH   1  15
BRANCH   8  28
ATOM     28  C   UNL     1       1.924   3.802  20.792  0.00  0.00    +0.000 C 
ATOM     29  F   UNL     1       2.324   4.095  22.058  0.00  0.00    +0.000 F 
ATOM     30  F   UNL     1       0.566   3.742  20.829  0.00  0.00    +0.000 F 
ATOM     31  F   UNL     1       2.355   2.532  20.561  0.00  0.00    +0.000 F 
ENDBRANCH   8  28
BRANCH   6  32
ATOM     32  C   UNL     1       4.564   4.667  16.595  0.00  0.00    +0.000 C 
BRANCH  32  33
ATOM     33  N   UNL     1       5.967   5.118  16.717  0.00  0.00    +0.000 NA
ATOM     34  C   UNL     1       6.066   6.564  16.443  0.00  0.00    +0.000 C 
ATOM     35  C   UNL     1       7.419   7.166  16.829  0.00  0.00    +0.000 C 
ATOM     36  C   UNL     1       7.672   6.991  18.321  0.00  0.00    +0.000 C 
ATOM     37  C   UNL     1       7.518   5.573  18.762  0.00  0.00    +0.000 C 
ATOM     38  C   UNL     1       8.063   4.405  17.988  0.00  0.00    +0.000 C 
ATOM     39  C   UNL     1       6.575   4.688  17.997  0.00  0.00    +0.000 C 
ENDBRANCH  32  33
ENDBRANCH   6  32
TORSDOF 7
ENDMDL
MODEL 7
REMARK VINA RESULT:     -10.0      2.038      3.121
REMARK  Name = 
REMARK  8 active torsions:
REMARK  status: ('A' for Active; 'I' for Inactive)
REMARK    1  A    between atoms: C_1  and  N_2
REMARK    2  A    between atoms: C_6  and  C_7
REMARK    3  A    between atoms: C_7  and  C_8
REMARK    4  A    between atoms: C_8  and  C_9
REMARK    5  A    between atoms: C_13  and  N_14
REMARK    6  A    between atoms: C_19  and  C_20
REMARK    7  A    between atoms: C_20  and  N_21
REMARK    8  A    between atoms: C_29  and  C_30
REMARK                            x       y       z     vdW  Elec       q    Type
REMARK                         _______ _______ _______ _____ _____    ______ ____
ROOT
ATOM      1  N   UNL     1       1.357   8.011  20.445  0.00  0.00    +0.000 N 
ATOM      2  C   UNL     1       1.443   6.650  20.934  0.00  0.00    +0.000 C 
ATOM      3  C   UNL     1       2.162   5.922  19.868  0.00  0.00    +0.000 A 
ATOM      4  C   UNL     1       2.581   6.813  18.887  0.00  0.00    +0.000 A 
ATOM      5  C   UNL     1       3.335   6.378  17.810  0.00  0.00    +0.000 A 
ATOM      6  C   UNL     1       3.642   5.002  17.732  0.00  0.00    +0.000 A 
ATOM      7  C   UNL     1       3.158   4.107  18.719  0.00  0.00    +0.000 A 
ATOM      8  C   UNL     1       2.408   4.555  19.808  0.00  0.00    +0.000 A 
ATOM      9  C   UNL     1       2.043   8.160  19.233  0.00  0.00    +0.000 C 
ATOM     10  O   UNL     1       2.202   9.146  18.534  0.00  0.00    +0.000 OA
ENDROOT
BRANCH   1  15
ATOM     11  C   UNL     1      -0.654  11.126  21.027  0.00  0.00    +0.000 A 
ATOM     12  C   UNL     1      -0.937  10.982  22.393  0.00  0.00    +0.000 A 
ATOM     13  C   UNL     1      -0.525   9.846  23.111  0.00  0.00    +0.000 A 
ATOM     14  C   UNL     1       0.216   8.824  22.494  0.00  0.00    +0.000 A 
ATOM     15  C   UNL     1       0.538   8.932  21.152  0.00  0.00    +0.000 A 
ATOM     16  C   UNL     1       0.063  10.063  20.457  0.00  0.00    +0.000 A 
BRANCH  11  17
ATOM     17  C   UNL     1      -1.091  12.385  20.111  0.00  0.00    +0.000 C 
ATOM     18  C   UNL     1      -2.318  12.152  19.193  0.00  0.00    +0.000 C 
ATOM     19  O   UNL     1      -1.566  12.424  17.996  0.00  0.00    +0.000 OA
ATOM     20  C   UNL     1      -0.347  12.584  18.751  0.00  0.00    +0.000 C 
BRANCH  17  21
ATOM     21  C   UNL     1      -1.186  13.692  20.939  0.00  0.00    +0.000 C 
BRANCH  21  27
ATOM     22  C   UNL     1       0.047  16.291  19.614  0.00  0.00    +0.000 C 
ATOM     23  N   UNL     1       0.633  15.476  20.646  0.00  0.00    +0.000 N 
ATOM     24  C   UNL     1       1.857  15.697  21.207  0.00  0.00    +0.000 A 
ATOM     25  N   UNL     1       2.108  14.755  22.085  0.00  0.00    +0.000 NA
ATOM     26  N   UNL     1       1.042  13.895  22.092  0.00  0.00    +0.000 NA
ATOM     27  C   UNL     1       0.131  14.343  21.243  0.00  0.00    +0.000 A 
ENDBRANCH  21  27
ENDBRANCH  17  21
ENDBRANCH  11  17
ENDBRANCH   1  15
BRANCH   8  28
ATOM     28  C   UNL     1       1.887   3.585  20.838  0.00  0.00    +0.000 C 
ATOM     29  F   UNL     1       2.274   3.870  22.109  0.00  0.00    +0.000 F 
ATOM     30  F   UNL     1       0.527   3.535  20.859  0.00  0.00    +0.000 F 
ATOM     31  F   UNL     1       2.311   2.313  20.606  0.00  0.00    +0.000 F 
ENDBRANCH   8  28
BRANCH   6  32
ATOM     32  C   UNL     1       4.537   4.439  16.645  0.00  0.00    +0.000 C 
BRANCH  32  33
ATOM     33  N   UNL     1       5.930   4.927  16.717  0.00  0.00    +0.000 NA
ATOM     34  C   UNL     1       6.012   6.318  16.234  0.00  0.00    +0.000 C 
ATOM     35  C   UNL     1       7.350   6.993  16.545  0.00  0.00    +0.000 C 
ATOM     36  C   UNL     1       7.582   7.046  18.050  0.00  0.00    +0.000 C 
ATOM     37  C   UNL     1       7.441   5.706  18.694  0.00  0.00    +0.000 C 
ATOM     38  C   UNL     1       8.016   4.446  18.109  0.00  0.00    +0.000 C 
ATOM     39  C   UNL     1       6.525   4.702  18.056  0.00  0.00    +0.000 C 
ENDBRANCH  32  33
ENDBRANCH   6  32
TORSDOF 7
ENDMDL
MODEL 8
REMARK VINA RESULT:      -9.9      1.951      2.920
REMARK  Name = 
REMARK  8 active torsions:
REMARK  status: ('A' for Active; 'I' for Inactive)
REMARK    1  A    between atoms: C_1  and  N_2
REMARK    2  A    between atoms: C_6  and  C_7
REMARK    3  A    between atoms: C_7  and  C_8
REMARK    4  A    between atoms: C_8  and  C_9
REMARK    5  A    between atoms: C_13  and  N_14
REMARK    6  A    between atoms: C_19  and  C_20
REMARK    7  A    between atoms: C_20  and  N_21
REMARK    8  A    between atoms: C_29  and  C_30
REMARK                            x       y       z     vdW  Elec       q    Type
REMARK                         _______ _______ _______ _____ _____    ______ ____
ROOT
ATOM      1  N   UNL     1       1.402   7.990  20.413  0.00  0.00    +0.000 N 
ATOM      2  C   UNL     1       1.478   6.648  20.953  0.00  0.00    +0.000 C 
ATOM      3  C   UNL     1       2.182   5.872  19.911  0.00  0.00    +0.000 A 
ATOM      4  C   UNL     1       2.602   6.720  18.893  0.00  0.00    +0.000 A 
ATOM      5  C   UNL     1       3.344   6.237  17.828  0.00  0.00    +0.000 A 
ATOM      6  C   UNL     1       3.637   4.856  17.801  0.00  0.00    +0.000 A 
ATOM      7  C   UNL     1       3.152   4.005  18.825  0.00  0.00    +0.000 A 
ATOM      8  C   UNL     1       2.415   4.501  19.901  0.00  0.00    +0.000 A 
ATOM      9  C   UNL     1       2.080   8.085  19.191  0.00  0.00    +0.000 C 
ATOM     10  O   UNL     1       2.243   9.041  18.453  0.00  0.00    +0.000 OA
ENDROOT
BRANCH   1  15
ATOM     11  C   UNL     1      -0.691  11.074  20.849  0.00  0.00    +0.000 A 
ATOM     12  C   UNL     1      -0.870  11.053  22.239  0.00  0.00    +0.000 A 
ATOM     13  C   UNL     1      -0.361  10.006  23.028  0.00  0.00    +0.000 A 
ATOM     14  C   UNL     1       0.376   8.956  22.456  0.00  0.00    +0.000 A 
ATOM     15  C   UNL     1       0.597   8.945  21.089  0.00  0.00    +0.000 A 
ATOM     16  C   UNL     1       0.027   9.987  20.329  0.00  0.00    +0.000 A 
BRANCH  11  17
ATOM     17  C   UNL     1      -1.245  12.223  19.854  0.00  0.00    +0.000 C 
ATOM     18  C   UNL     1      -2.622  11.938  19.202  0.00  0.00    +0.000 C 
ATOM     19  O   UNL     1      -2.086  12.008  17.867  0.00  0.00    +0.000 OA
ATOM     20  C   UNL     1      -0.749  12.198  18.372  0.00  0.00    +0.000 C 
BRANCH  17  21
ATOM     21  C   UNL     1      -1.150  13.631  20.495  0.00  0.00    +0.000 C 
BRANCH  21  27
ATOM     22  C   UNL     1       1.998  13.638  20.838  0.00  0.00    +0.000 C 
ATOM     23  N   UNL     1       1.208  14.523  20.024  0.00  0.00    +0.000 N 
ATOM     24  C   UNL     1       1.712  15.545  19.273  0.00  0.00    +0.000 A 
ATOM     25  N   UNL     1       0.726  16.179  18.685  0.00  0.00    +0.000 NA
ATOM     26  N   UNL     1      -0.444  15.576  19.063  0.00  0.00    +0.000 NA
ATOM     27  C   UNL     1      -0.157  14.552  19.851  0.00  0.00    +0.000 A 
ENDBRANCH  21  27
ENDBRANCH  17  21
ENDBRANCH  11  17
ENDBRANCH   1  15
BRANCH   8  28
ATOM     28  C   UNL     1       1.892   3.577  20.972  0.00  0.00    +0.000 C 
ATOM     29  F   UNL     1       2.261   3.929  22.232  0.00  0.00    +0.000 F 
ATOM     30  F   UNL     1       0.533   3.512  20.980  0.00  0.00    +0.000 F 
ATOM     31  F   UNL     1       2.333   2.300  20.808  0.00  0.00    +0.000 F 
ENDBRANCH   8  28
BRANCH   6  32
ATOM     32  C   UNL     1       4.518   4.243  16.730  0.00  0.00    +0.000 C 
BRANCH  32  33
ATOM     33  N   UNL     1       5.905   4.753  16.744  0.00  0.00    +0.000 NA
ATOM     34  C   UNL     1       5.990   6.029  16.008  0.00  0.00    +0.000 C 
ATOM     35  C   UNL     1       7.313   6.767  16.220  0.00  0.00    +0.000 C 
ATOM     36  C   UNL     1       7.503   7.107  17.693  0.00  0.00    +0.000 C 
ATOM     37  C   UNL     1       7.355   5.912  18.575  0.00  0.00    +0.000 C 
ATOM     38  C   UNL     1       7.955   4.571  18.255  0.00  0.00    +0.000 C 
ATOM     39  C   UNL     1       6.464   4.793  18.116  0.00  0.00    +0.000 C 
ENDBRANCH  32  33
ENDBRANCH   6  32
TORSDOF 7
ENDMDL
MODEL 9
REMARK VINA RESULT:      -9.9      1.927      2.930
REMARK  Name = 
REMARK  8 active torsions:
REMARK  status: ('A' for Active; 'I' for Inactive)
REMARK    1  A    between atoms: C_1  and  N_2
REMARK    2  A    between atoms: C_6  and  C_7
REMARK    3  A    between atoms: C_7  and  C_8
REMARK    4  A    between atoms: C_8  and  C_9
REMARK    5  A    between atoms: C_13  and  N_14
REMARK    6  A    between atoms: C_19  and  C_20
REMARK    7  A    between atoms: C_20  and  N_21
REMARK    8  A    between atoms: C_29  and  C_30
REMARK                            x       y       z     vdW  Elec       q    Type
REMARK                         _______ _______ _______ _____ _____    ______ ____
ROOT
ATOM      1  N   UNL     1       1.485   7.928  20.238  0.00  0.00    +0.000 N 
ATOM      2  C   UNL     1       1.534   6.605  20.825  0.00  0.00    +0.000 C 
ATOM      3  C   UNL     1       2.229   5.781  19.814  0.00  0.00    +0.000 A 
ATOM      4  C   UNL     1       2.669   6.585  18.769  0.00  0.00    +0.000 A 
ATOM      5  C   UNL     1       3.408   6.052  17.726  0.00  0.00    +0.000 A 
ATOM      6  C   UNL     1       3.676   4.666  17.749  0.00  0.00    +0.000 A 
ATOM      7  C   UNL     1       3.170   3.860  18.799  0.00  0.00    +0.000 A 
ATOM      8  C   UNL     1       2.437   4.406  19.853  0.00  0.00    +0.000 A 
ATOM      9  C   UNL     1       2.170   7.968  19.017  0.00  0.00    +0.000 C 
ATOM     10  O   UNL     1       2.354   8.896  18.247  0.00  0.00    +0.000 OA
ENDROOT
BRANCH   1  15
ATOM     11  C   UNL     1      -0.785  10.904  20.517  0.00  0.00    +0.000 A 
ATOM     12  C   UNL     1      -0.788  11.079  21.907  0.00  0.00    +0.000 A 
ATOM     13  C   UNL     1      -0.101  10.197  22.759  0.00  0.00    +0.000 A 
ATOM     14  C   UNL     1       0.644   9.122  22.245  0.00  0.00    +0.000 A 
ATOM     15  C   UNL     1       0.694   8.921  20.876  0.00  0.00    +0.000 A 
ATOM     16  C   UNL     1      -0.050   9.799  20.061  0.00  0.00    +0.000 A 
BRANCH  11  17
ATOM     17  C   UNL     1      -1.551  11.854  19.454  0.00  0.00    +0.000 C 
ATOM     18  C   UNL     1      -2.652  12.770  20.046  0.00  0.00    +0.000 C 
ATOM     19  O   UNL     1      -3.680  12.189  19.221  0.00  0.00    +0.000 OA
ATOM     20  C   UNL     1      -2.750  11.237  18.664  0.00  0.00    +0.000 C 
BRANCH  17  21
ATOM     21  C   UNL     1      -0.554  12.609  18.538  0.00  0.00    +0.000 C 
BRANCH  21  27
ATOM     22  C   UNL     1       2.594  12.533  18.204  0.00  0.00    +0.000 C 
ATOM     23  N   UNL     1       1.831  13.374  19.087  0.00  0.00    +0.000 N 
ATOM     24  C   UNL     1       2.370  14.276  19.959  0.00  0.00    +0.000 A 
ATOM     25  N   UNL     1       1.407  14.849  20.640  0.00  0.00    +0.000 NA
ATOM     26  N   UNL     1       0.220  14.308  20.224  0.00  0.00    +0.000 NA
ATOM     27  C   UNL     1       0.467  13.435  19.262  0.00  0.00    +0.000 A 
ENDBRANCH  21  27
ENDBRANCH  17  21
ENDBRANCH  11  17
ENDBRANCH   1  15
BRANCH   8  28
ATOM     28  C   UNL     1       1.892   3.529  20.952  0.00  0.00    +0.000 C 
ATOM     29  F   UNL     1       2.327   3.869  22.195  0.00  0.00    +0.000 F 
ATOM     30  F   UNL     1       0.533   3.554  21.007  0.00  0.00    +0.000 F 
ATOM     31  F   UNL     1       2.243   2.225  20.789  0.00  0.00    +0.000 F 
ENDBRANCH   8  28
BRANCH   6  32
ATOM     32  C   UNL     1       4.551   4.000  16.705  0.00  0.00    +0.000 C 
BRANCH  32  33
ATOM     33  N   UNL     1       5.925   4.542  16.656  0.00  0.00    +0.000 NA
ATOM     34  C   UNL     1       5.966   5.763  15.831  0.00  0.00    +0.000 C 
ATOM     35  C   UNL     1       7.275   6.545  15.964  0.00  0.00    +0.000 C 
ATOM     36  C   UNL     1       7.483   6.992  17.405  0.00  0.00    +0.000 C 
ATOM     37  C   UNL     1       7.380   5.859  18.372  0.00  0.00    +0.000 C 
ATOM     38  C   UNL     1       8.006   4.512  18.135  0.00  0.00    +0.000 C 
ATOM     39  C   UNL     1       6.508   4.691  18.010  0.00  0.00    +0.000 C 
ENDBRANCH  32  33
ENDBRANCH   6  32
TORSDOF 7
ENDMDL
