MODEL 1
REMARK VINA RESULT:      -8.7      0.000      0.000
REMARK  Name = 
REMARK  9 active torsions:
REMARK  status: ('A' for Active; 'I' for Inactive)
REMARK    1  A    between atoms: C_1  and  C_2
REMARK    2  A    between atoms: C_2  and  C_3
REMARK    3  A    between atoms: C_2  and  C_10
REMARK    4  A    between atoms: C_3  and  C_4
REMARK    5  A    between atoms: N_8  and  C_9
REMARK    6  A    between atoms: C_14  and  N_15
REMARK    7  A    between atoms: C_16  and  C_18
REMARK    8  A    between atoms: C_20  and  C_21
REMARK    9  A    between atoms: C_26  and  O_27
REMARK                            x       y       z     vdW  Elec       q    Type
REMARK                         _______ _______ _______ _____ _____    ______ ____
ROOT
ATOM      1  N   UNL     1       0.661   7.766  21.199  0.00  0.00    +0.000 N 
ATOM      2  C   UNL     1       1.605   7.543  20.218  0.00  0.00    +0.000 C 
ATOM      3  O   UNL     1       2.062   8.364  19.430  0.00  0.00    +0.000 OA
ATOM      4  H   UNL     1       0.356   6.949  21.718  0.00  0.00    +0.000 HD
ENDROOT
BRANCH   1   9
ATOM      5  C   UNL     1      -0.804  11.153  20.690  0.00  0.00    +0.000 A 
ATOM      6  C   UNL     1      -1.053  11.531  22.021  0.00  0.00    +0.000 A 
ATOM      7  C   UNL     1      -0.766  10.667  23.065  0.00  0.00    +0.000 A 
ATOM      8  C   UNL     1      -0.206   9.424  22.803  0.00  0.00    +0.000 A 
ATOM      9  C   UNL     1       0.061   9.013  21.495  0.00  0.00    +0.000 A 
ATOM     10  C   UNL     1      -0.260   9.876  20.443  0.00  0.00    +0.000 A 
BRANCH   5  12
ATOM     11  C   UNL     1       0.216  12.960  19.208  0.00  0.00    +0.000 C 
ATOM     12  C   UNL     1      -1.028  12.117  19.528  0.00  0.00    +0.000 C 
BRANCH  12  13
ATOM     13  C   UNL     1      -1.506  11.307  18.304  0.00  0.00    +0.000 C 
BRANCH  13  14
ATOM     14  C   UNL     1      -2.961  11.490  18.014  0.00  0.00    +0.000 A 
ATOM     15  N   UNL     1      -3.874  11.877  18.884  0.00  0.00    +0.000 NA
ATOM     16  C   UNL     1      -5.062  11.895  18.200  0.00  0.00    +0.000 A 
ATOM     17  C   UNL     1      -4.876  11.512  16.900  0.00  0.00    +0.000 A 
ATOM     18  N   UNL     1      -3.538  11.263  16.785  0.00  0.00    +0.000 N 
ATOM     19  C   UNL     1      -2.860  10.844  15.582  0.00  0.00    +0.000 C 
ENDBRANCH  13  14
ENDBRANCH  12  13
ENDBRANCH   5  12
ENDBRANCH   1   9
BRANCH   2  20
ATOM     20  C   UNL     1       2.096   6.139  20.105  0.00  0.00    +0.000 A 
ATOM     21  C   UNL     1       2.728   5.780  18.923  0.00  0.00    +0.000 A 
ATOM     22  C   UNL     1       3.108   4.461  18.757  0.00  0.00    +0.000 A 
ATOM     23  C   UNL     1       2.959   3.577  19.827  0.00  0.00    +0.000 A 
ATOM     24  C   UNL     1       2.343   4.035  20.982  0.00  0.00    +0.000 A 
ATOM     25  N   UNL     1       1.878   5.294  21.145  0.00  0.00    +0.000 NA
BRANCH  22  26
ATOM     26  C   UNL     1       3.639   3.937  17.472  0.00  0.00    +0.000 C 
ATOM     27  O   UNL     1       2.945   3.131  16.855  0.00  0.00    +0.000 OA
ATOM     28  N   UNL     1       4.825   4.441  16.957  0.00  0.00    +0.000 N 
ATOM     29  C   UNL     1       5.188   4.179  15.571  0.00  0.00    +0.000 C 
ATOM     30  C   UNL     1       6.398   5.066  15.281  0.00  0.00    +0.000 C 
ATOM     31  C   UNL     1       6.393   6.101  16.397  0.00  0.00    +0.000 C 
ATOM     32  C   UNL     1       5.797   5.334  17.566  0.00  0.00    +0.000 C 
BRANCH  31  33
ATOM     33  O   UNL     1       7.688   6.601  16.674  0.00  0.00    +0.000 OA
ATOM     34  H   UNL     1       8.098   6.886  15.839  0.00  0.00    +0.000 HD
ENDBRANCH  31  33
ENDBRANCH  22  26
ENDBRANCH   2  20
TORSDOF 7
ENDMDL
MODEL 2
REMARK VINA RESULT:      -8.7      1.491      2.034
REMARK  Name = 
REMARK  9 active torsions:
REMARK  status: ('A' for Active; 'I' for Inactive)
REMARK    1  A    between atoms: C_1  and  C_2
REMARK    2  A    between atoms: C_2  and  C_3
REMARK    3  A    between atoms: C_2  and  C_10
REMARK    4  A    between atoms: C_3  and  C_4
REMARK    5  A    between atoms: N_8  and  C_9
REMARK    6  A    between atoms: C_14  and  N_15
REMARK    7  A    between atoms: C_16  and  C_18
REMARK    8  A    between atoms: C_20  and  C_21
REMARK    9  A    between atoms: C_26  and  O_27
REMARK                            x       y       z     vdW  Elec       q    Type
REMARK                         _______ _______ _______ _____ _____    ______ ____
ROOT
ATOM      1  N   UNL     1       2.151   7.391  20.539  0.00  0.00    +0.000 N 
ATOM      2  C   UNL     1       1.805   6.056  20.509  0.00  0.00    +0.000 C 
ATOM      3  O   UNL     1       0.733   5.562  20.838  0.00  0.00    +0.000 OA
ATOM      4  H   UNL     1       3.109   7.610  20.288  0.00  0.00    +0.000 HD
ENDROOT
BRANCH   1   9
ATOM      5  C   UNL     1      -0.129  10.327  20.294  0.00  0.00    +0.000 A 
ATOM      6  C   UNL     1      -0.325  10.619  21.655  0.00  0.00    +0.000 A 
ATOM      7  C   UNL     1       0.267   9.839  22.635  0.00  0.00    +0.000 A 
ATOM      8  C   UNL     1       1.080   8.772  22.277  0.00  0.00    +0.000 A 
ATOM      9  C   UNL     1       1.302   8.452  20.936  0.00  0.00    +0.000 A 
ATOM     10  C   UNL     1       0.677   9.222  19.950  0.00  0.00    +0.000 A 
BRANCH   5  12
ATOM     11  C   UNL     1       0.385  12.057  18.492  0.00  0.00    +0.000 C 
ATOM     12  C   UNL     1      -0.696  11.221  19.194  0.00  0.00    +0.000 C 
BRANCH  12  13
ATOM     13  C   UNL     1      -1.477  10.336  18.199  0.00  0.00    +0.000 C 
BRANCH  13  14
ATOM     14  C   UNL     1      -2.817  10.897  17.845  0.00  0.00    +0.000 A 
ATOM     15  N   UNL     1      -3.656  11.469  18.689  0.00  0.00    +0.000 NA
ATOM     16  C   UNL     1      -4.755  11.818  17.947  0.00  0.00    +0.000 A 
ATOM     17  C   UNL     1      -4.590  11.454  16.638  0.00  0.00    +0.000 A 
ATOM     18  N   UNL     1      -3.353  10.877  16.578  0.00  0.00    +0.000 N 
ATOM     19  C   UNL     1      -2.729  10.348  15.389  0.00  0.00    +0.000 C 
ENDBRANCH  13  14
ENDBRANCH  12  13
ENDBRANCH   5  12
ENDBRANCH   1   9
BRANCH   2  20
ATOM     20  C   UNL     1       2.873   5.126  20.042  0.00  0.00    +0.000 A 
ATOM     21  C   UNL     1       4.002   5.691  19.468  0.00  0.00    +0.000 A 
ATOM     22  C   UNL     1       4.964   4.848  18.942  0.00  0.00    +0.000 A 
ATOM     23  C   UNL     1       4.824   3.471  19.124  0.00  0.00    +0.000 A 
ATOM     24  C   UNL     1       3.674   2.998  19.738  0.00  0.00    +0.000 A 
ATOM     25  N   UNL     1       2.672   3.790  20.183  0.00  0.00    +0.000 NA
BRANCH  22  26
ATOM     26  C   UNL     1       6.126   5.347  18.162  0.00  0.00    +0.000 C 
ATOM     27  O   UNL     1       7.073   5.818  18.790  0.00  0.00    +0.000 OA
ATOM     28  N   UNL     1       6.161   5.174  16.786  0.00  0.00    +0.000 N 
ATOM     29  C   UNL     1       7.409   5.362  16.059  0.00  0.00    +0.000 C 
ATOM     30  C   UNL     1       7.145   4.863  14.639  0.00  0.00    +0.000 C 
ATOM     31  C   UNL     1       5.881   4.023  14.755  0.00  0.00    +0.000 C 
ATOM     32  C   UNL     1       5.123   4.707  15.881  0.00  0.00    +0.000 C 
BRANCH  31  33
ATOM     33  O   UNL     1       5.146   3.985  13.546  0.00  0.00    +0.000 OA
ATOM     34  H   UNL     1       4.911   4.896  13.295  0.00  0.00    +0.000 HD
ENDBRANCH  31  33
ENDBRANCH  22  26
ENDBRANCH   2  20
TORSDOF 7
ENDMDL
MODEL 3
REMARK VINA RESULT:      -8.6      1.202      1.567
REMARK  Name = 
REMARK  9 active torsions:
REMARK  status: ('A' for Active; 'I' for Inactive)
REMARK    1  A    between atoms: C_1  and  C_2
REMARK    2  A    between atoms: C_2  and  C_3
REMARK    3  A    between atoms: C_2  and  C_10
REMARK    4  A    between atoms: C_3  and  C_4
REMARK    5  A    between atoms: N_8  and  C_9
REMARK    6  A    between atoms: C_14  and  N_15
REMARK    7  A    between atoms: C_16  and  C_18
REMARK    8  A    between atoms: C_20  and  C_21
REMARK    9  A    between atoms: C_26  and  O_27
REMARK                            x       y       z     vdW  Elec       q    Type
REMARK                         _______ _______ _______ _____ _____    ______ ____
ROOT
ATOM      1  N   UNL     1       1.034   7.897  21.200  0.00  0.00    +0.000 N 
ATOM      2  C   UNL     1       1.674   7.664  20.000  0.00  0.00    +0.000 C 
ATOM      3  O   UNL     1       1.696   8.398  19.018  0.00  0.00    +0.000 OA
ATOM      4  H   UNL     1       1.074   7.144  21.879  0.00  0.00    +0.000 HD
ENDROOT
BRANCH   1   9
ATOM      5  C   UNL     1      -0.747  11.142  20.788  0.00  0.00    +0.000 A 
ATOM      6  C   UNL     1      -1.087  11.423  22.122  0.00  0.00    +0.000 A 
ATOM      7  C   UNL     1      -0.755  10.539  23.136  0.00  0.00    +0.000 A 
ATOM      8  C   UNL     1      -0.061   9.373  22.841  0.00  0.00    +0.000 A 
ATOM      9  C   UNL     1       0.299   9.060  21.528  0.00  0.00    +0.000 A 
ATOM     10  C   UNL     1      -0.066   9.940  20.504  0.00  0.00    +0.000 A 
BRANCH   5  12
ATOM     11  C   UNL     1       0.183  13.044  19.367  0.00  0.00    +0.000 C 
ATOM     12  C   UNL     1      -1.021  12.138  19.665  0.00  0.00    +0.000 C 
BRANCH  12  13
ATOM     13  C   UNL     1      -1.476  11.355  18.415  0.00  0.00    +0.000 C 
BRANCH  13  14
ATOM     14  C   UNL     1      -2.928  11.534  18.108  0.00  0.00    +0.000 A 
ATOM     15  N   UNL     1      -3.847  11.946  18.961  0.00  0.00    +0.000 NA
ATOM     16  C   UNL     1      -5.029  11.950  18.267  0.00  0.00    +0.000 A 
ATOM     17  C   UNL     1      -4.834  11.534  16.978  0.00  0.00    +0.000 A 
ATOM     18  N   UNL     1      -3.495  11.278  16.880  0.00  0.00    +0.000 N 
ATOM     19  C   UNL     1      -2.809  10.827  15.694  0.00  0.00    +0.000 C 
ENDBRANCH  13  14
ENDBRANCH  12  13
ENDBRANCH   5  12
ENDBRANCH   1   9
BRANCH   2  20
ATOM     20  C   UNL     1       2.395   6.362  19.897  0.00  0.00    +0.000 A 
ATOM     21  C   UNL     1       3.742   6.406  19.569  0.00  0.00    +0.000 A 
ATOM     22  C   UNL     1       4.410   5.211  19.375  0.00  0.00    +0.000 A 
ATOM     23  C   UNL     1       3.741   4.015  19.641  0.00  0.00    +0.000 A 
ATOM     24  C   UNL     1       2.400   4.071  19.994  0.00  0.00    +0.000 A 
ATOM     25  N   UNL     1       1.693   5.218  20.105  0.00  0.00    +0.000 NA
BRANCH  22  26
ATOM     26  C   UNL     1       5.803   5.146  18.862  0.00  0.00    +0.000 C 
ATOM     27  O   UNL     1       6.714   5.148  19.688  0.00  0.00    +0.000 OA
ATOM     28  N   UNL     1       6.034   4.979  17.505  0.00  0.00    +0.000 N 
ATOM     29  C   UNL     1       7.357   4.597  17.031  0.00  0.00    +0.000 C 
ATOM     30  C   UNL     1       7.193   4.269  15.548  0.00  0.00    +0.000 C 
ATOM     31  C   UNL     1       5.694   4.075  15.361  0.00  0.00    +0.000 C 
ATOM     32  C   UNL     1       5.100   5.021  16.391  0.00  0.00    +0.000 C 
BRANCH  31  33
ATOM     33  O   UNL     1       5.273   4.369  14.041  0.00  0.00    +0.000 OA
ATOM     34  H   UNL     1       5.655   3.708  13.438  0.00  0.00    +0.000 HD
ENDBRANCH  31  33
ENDBRANCH  22  26
ENDBRANCH   2  20
TORSDOF 7
ENDMDL
MODEL 4
REMARK VINA RESULT:      -8.5      6.655      9.493
REMARK  Name = 
REMARK  9 active torsions:
REMARK  status: ('A' for Active; 'I' for Inactive)
REMARK    1  A    between atoms: C_1  and  C_2
REMARK    2  A    between atoms: C_2  and  C_3
REMARK    3  A    between atoms: C_2  and  C_10
REMARK    4  A    between atoms: C_3  and  C_4
REMARK    5  A    between atoms: N_8  and  C_9
REMARK    6  A    between atoms: C_14  and  N_15
REMARK    7  A    between atoms: C_16  and  C_18
REMARK    8  A    between atoms: C_20  and  C_21
REMARK    9  A    between atoms: C_26  and  O_27
REMARK                            x       y       z     vdW  Elec       q    Type
REMARK                         _______ _______ _______ _____ _____    ______ ____
ROOT
ATOM      1  N   UNL     1       7.736   9.112  17.693  0.00  0.00    +0.000 N 
ATOM      2  C   UNL     1       7.788   7.776  18.030  0.00  0.00    +0.000 C 
ATOM      3  O   UNL     1       8.513   7.251  18.867  0.00  0.00    +0.000 OA
ATOM      4  H   UNL     1       7.115   9.355  16.928  0.00  0.00    +0.000 HD
ENDROOT
BRANCH   1   9
ATOM      5  C   UNL     1       9.226  12.477  18.272  0.00  0.00    +0.000 A 
ATOM      6  C   UNL     1      10.068  12.204  19.364  0.00  0.00    +0.000 A 
ATOM      7  C   UNL     1      10.119  10.934  19.914  0.00  0.00    +0.000 A 
ATOM      8  C   UNL     1       9.352   9.911  19.374  0.00  0.00    +0.000 A 
ATOM      9  C   UNL     1       8.506  10.141  18.287  0.00  0.00    +0.000 A 
ATOM     10  C   UNL     1       8.433  11.432  17.755  0.00  0.00    +0.000 A 
BRANCH   5  12
ATOM     11  C   UNL     1       7.955  14.660  17.921  0.00  0.00    +0.000 C 
ATOM     12  C   UNL     1       9.215  13.843  17.592  0.00  0.00    +0.000 C 
BRANCH  12  13
ATOM     13  C   UNL     1      10.506  14.594  17.979  0.00  0.00    +0.000 C 
BRANCH  13  14
ATOM     14  C   UNL     1      10.338  16.080  17.988  0.00  0.00    +0.000 A 
ATOM     15  N   UNL     1      10.329  16.857  16.921  0.00  0.00    +0.000 NA
ATOM     16  C   UNL     1      10.165  18.135  17.389  0.00  0.00    +0.000 A 
ATOM     17  C   UNL     1      10.078  18.142  18.755  0.00  0.00    +0.000 A 
ATOM     18  N   UNL     1      10.180  16.832  19.129  0.00  0.00    +0.000 N 
ATOM     19  C   UNL     1      10.125  16.338  20.484  0.00  0.00    +0.000 C 
ENDBRANCH  13  14
ENDBRANCH  12  13
ENDBRANCH   5  12
ENDBRANCH   1   9
BRANCH   2  20
ATOM     20  C   UNL     1       6.869   6.883  17.266  0.00  0.00    +0.000 A 
ATOM     21  C   UNL     1       5.597   6.687  17.784  0.00  0.00    +0.000 A 
ATOM     22  C   UNL     1       4.759   5.791  17.146  0.00  0.00    +0.000 A 
ATOM     23  C   UNL     1       5.175   5.221  15.941  0.00  0.00    +0.000 A 
ATOM     24  C   UNL     1       6.454   5.500  15.484  0.00  0.00    +0.000 A 
ATOM     25  N   UNL     1       7.333   6.300  16.130  0.00  0.00    +0.000 NA
BRANCH  22  26
ATOM     26  C   UNL     1       3.445   5.385  17.708  0.00  0.00    +0.000 C 
ATOM     27  O   UNL     1       2.537   6.214  17.691  0.00  0.00    +0.000 OA
ATOM     28  N   UNL     1       3.247   4.077  18.128  0.00  0.00    +0.000 N 
ATOM     29  C   UNL     1       1.898   3.587  18.376  0.00  0.00    +0.000 C 
ATOM     30  C   UNL     1       2.031   2.079  18.577  0.00  0.00    +0.000 C 
ATOM     31  C   UNL     1       3.401   1.734  18.011  0.00  0.00    +0.000 C 
ATOM     32  C   UNL     1       4.205   2.995  18.281  0.00  0.00    +0.000 C 
BRANCH  31  33
ATOM     33  O   UNL     1       3.963   0.586  18.619  0.00  0.00    +0.000 OA
ATOM     34  H   UNL     1       4.109  -0.090  17.934  0.00  0.00    +0.000 HD
ENDBRANCH  31  33
ENDBRANCH  22  26
ENDBRANCH   2  20
TORSDOF 7
ENDMDL
MODEL 5
REMARK VINA RESULT:      -8.4      2.299      3.439
REMARK  Name = 
REMARK  9 active torsions:
REMARK  status: ('A' for Active; 'I' for Inactive)
REMARK    1  A    between atoms: C_1  and  C_2
REMARK    2  A    between atoms: C_2  and  C_3
REMARK    3  A    between atoms: C_2  and  C_10
REMARK    4  A    between atoms: C_3  and  C_4
REMARK    5  A    between atoms: N_8  and  C_9
REMARK    6  A    between atoms: C_14  and  N_15
REMARK    7  A    between atoms: C_16  and  C_18
REMARK    8  A    between atoms: C_20  and  C_21
REMARK    9  A    between atoms: C_26  and  O_27
REMARK                            x       y       z     vdW  Elec       q    Type
REMARK                         _______ _______ _______ _____ _____    ______ ____
ROOT
ATOM      1  N   UNL     1       2.191   7.207  20.476  0.00  0.00    +0.000 N 
ATOM      2  C   UNL     1       1.769   5.894  20.446  0.00  0.00    +0.000 C 
ATOM      3  O   UNL     1       0.641   5.474  20.678  0.00  0.00    +0.000 OA
ATOM      4  H   UNL     1       3.182   7.360  20.317  0.00  0.00    +0.000 HD
ENDROOT
BRANCH   1   9
ATOM      5  C   UNL     1       0.088  10.231  19.921  0.00  0.00    +0.000 A 
ATOM      6  C   UNL     1      -0.182  10.607  21.248  0.00  0.00    +0.000 A 
ATOM      7  C   UNL     1       0.303   9.856  22.306  0.00  0.00    +0.000 A 
ATOM      8  C   UNL     1       1.081   8.732  22.061  0.00  0.00    +0.000 A 
ATOM      9  C   UNL     1       1.375   8.328  20.757  0.00  0.00    +0.000 A 
ATOM     10  C   UNL     1       0.857   9.071  19.692  0.00  0.00    +0.000 A 
BRANCH   5  12
ATOM     11  C   UNL     1      -1.404  10.385  17.858  0.00  0.00    +0.000 C 
ATOM     12  C   UNL     1      -0.358  11.087  18.739  0.00  0.00    +0.000 C 
BRANCH  12  13
ATOM     13  C   UNL     1      -0.874  12.438  19.280  0.00  0.00    +0.000 C 
BRANCH  13  14
ATOM     14  C   UNL     1       0.112  13.549  19.114  0.00  0.00    +0.000 A 
ATOM     15  N   UNL     1       1.292  13.447  18.532  0.00  0.00    +0.000 NA
ATOM     16  C   UNL     1       1.861  14.691  18.615  0.00  0.00    +0.000 A 
ATOM     17  C   UNL     1       1.025  15.563  19.258  0.00  0.00    +0.000 A 
ATOM     18  N   UNL     1      -0.089  14.834  19.566  0.00  0.00    +0.000 N 
ATOM     19  C   UNL     1      -1.263  15.335  20.239  0.00  0.00    +0.000 C 
ENDBRANCH  13  14
ENDBRANCH  12  13
ENDBRANCH   5  12
ENDBRANCH   1   9
BRANCH   2  20
ATOM     20  C   UNL     1       2.819   4.888  20.114  0.00  0.00    +0.000 A 
ATOM     21  C   UNL     1       4.010   5.363  19.584  0.00  0.00    +0.000 A 
ATOM     22  C   UNL     1       4.962   4.445  19.181  0.00  0.00    +0.000 A 
ATOM     23  C   UNL     1       4.743   3.091  19.439  0.00  0.00    +0.000 A 
ATOM     24  C   UNL     1       3.533   2.711  20.001  0.00  0.00    +0.000 A 
ATOM     25  N   UNL     1       2.544   3.575  20.325  0.00  0.00    +0.000 NA
BRANCH  22  26
ATOM     26  C   UNL     1       6.195   4.839  18.452  0.00  0.00    +0.000 C 
ATOM     27  O   UNL     1       7.198   5.083  19.121  0.00  0.00    +0.000 OA
ATOM     28  N   UNL     1       6.217   4.815  17.065  0.00  0.00    +0.000 N 
ATOM     29  C   UNL     1       7.487   4.885  16.355  0.00  0.00    +0.000 C 
ATOM     30  C   UNL     1       7.163   4.593  14.890  0.00  0.00    +0.000 C 
ATOM     31  C   UNL     1       5.782   3.954  14.922  0.00  0.00    +0.000 C 
ATOM     32  C   UNL     1       5.129   4.619  16.122  0.00  0.00    +0.000 C 
BRANCH  31  33
ATOM     33  O   UNL     1       5.062   4.165  13.721  0.00  0.00    +0.000 OA
ATOM     34  H   UNL     1       5.181   3.389  13.146  0.00  0.00    +0.000 HD
ENDBRANCH  31  33
ENDBRANCH  22  26
ENDBRANCH   2  20
TORSDOF 7
ENDMDL
MODEL 6
REMARK VINA RESULT:      -8.3      6.515      9.436
REMARK  Name = 
REMARK  9 active torsions:
REMARK  status: ('A' for Active; 'I' for Inactive)
REMARK    1  A    between atoms: C_1  and  C_2
REMARK    2  A    between atoms: C_2  and  C_3
REMARK    3  A    between atoms: C_2  and  C_10
REMARK    4  A    between atoms: C_3  and  C_4
REMARK    5  A    between atoms: N_8  and  C_9
REMARK    6  A    between atoms: C_14  and  N_15
REMARK    7  A    between atoms: C_16  and  C_18
REMARK    8  A    between atoms: C_20  and  C_21
REMARK    9  A    between atoms: C_26  and  O_27
REMARK                            x       y       z     vdW  Elec       q    Type
REMARK                         _______ _______ _______ _____ _____    ______ ____
ROOT
ATOM      1  N   UNL     1       7.675   8.837  17.538  0.00  0.00    +0.000 N 
ATOM      2  C   UNL     1       7.743   7.520  17.942  0.00  0.00    +0.000 C 
ATOM      3  O   UNL     1       8.446   7.054  18.831  0.00  0.00    +0.000 OA
ATOM      4  H   UNL     1       7.080   9.028  16.739  0.00  0.00    +0.000 HD
ENDROOT
BRANCH   1   9
ATOM      5  C   UNL     1       8.814  12.318  18.221  0.00  0.00    +0.000 A 
ATOM      6  C   UNL     1       9.848  12.077  19.142  0.00  0.00    +0.000 A 
ATOM      7  C   UNL     1      10.143  10.786  19.550  0.00  0.00    +0.000 A 
ATOM      8  C   UNL     1       9.430   9.714  19.030  0.00  0.00    +0.000 A 
ATOM      9  C   UNL     1       8.398   9.911  18.110  0.00  0.00    +0.000 A 
ATOM     10  C   UNL     1       8.083  11.218  17.726  0.00  0.00    +0.000 A 
BRANCH   5  12
ATOM     11  C   UNL     1       7.027  13.970  17.461  0.00  0.00    +0.000 C 
ATOM     12  C   UNL     1       8.526  13.718  17.689  0.00  0.00    +0.000 C 
BRANCH  12  13
ATOM     13  C   UNL     1       9.142  14.748  18.661  0.00  0.00    +0.000 C 
BRANCH  13  14
ATOM     14  C   UNL     1      10.191  15.600  18.022  0.00  0.00    +0.000 A 
ATOM     15  N   UNL     1      11.342  15.168  17.540  0.00  0.00    +0.000 NA
ATOM     16  C   UNL     1      11.992  16.279  17.067  0.00  0.00    +0.000 A 
ATOM     17  C   UNL     1      11.235  17.402  17.264  0.00  0.00    +0.000 A 
ATOM     18  N   UNL     1      10.089  16.964  17.864  0.00  0.00    +0.000 N 
ATOM     19  C   UNL     1       8.972  17.792  18.251  0.00  0.00    +0.000 C 
ENDBRANCH  13  14
ENDBRANCH  12  13
ENDBRANCH   5  12
ENDBRANCH   1   9
BRANCH   2  20
ATOM     20  C   UNL     1       6.874   6.570  17.188  0.00  0.00    +0.000 A 
ATOM     21  C   UNL     1       5.633   6.274  17.733  0.00  0.00    +0.000 A 
ATOM     22  C   UNL     1       4.849   5.326  17.102  0.00  0.00    +0.000 A 
ATOM     23  C   UNL     1       5.277   4.802  15.881  0.00  0.00    +0.000 A 
ATOM     24  C   UNL     1       6.521   5.180  15.398  0.00  0.00    +0.000 A 
ATOM     25  N   UNL     1       7.353   6.036  16.034  0.00  0.00    +0.000 NA
BRANCH  22  26
ATOM     26  C   UNL     1       3.583   4.817  17.689  0.00  0.00    +0.000 C 
ATOM     27  O   UNL     1       2.530   5.144  17.143  0.00  0.00    +0.000 OA
ATOM     28  N   UNL     1       3.622   3.918  18.745  0.00  0.00    +0.000 N 
ATOM     29  C   UNL     1       2.425   3.175  19.115  0.00  0.00    +0.000 C 
ATOM     30  C   UNL     1       2.880   2.126  20.129  0.00  0.00    +0.000 C 
ATOM     31  C   UNL     1       4.391   2.058  19.959  0.00  0.00    +0.000 C 
ATOM     32  C   UNL     1       4.750   3.476  19.548  0.00  0.00    +0.000 C 
BRANCH  31  33
ATOM     33  O   UNL     1       5.049   1.649  21.144  0.00  0.00    +0.000 OA
ATOM     34  H   UNL     1       5.836   1.131  20.901  0.00  0.00    +0.000 HD
ENDBRANCH  31  33
ENDBRANCH  22  26
ENDBRANCH   2  20
TORSDOF 7
ENDMDL
MODEL 7
REMARK VINA RESULT:      -8.3      6.845      9.826
REMARK  Name = 
REMARK  9 active torsions:
REMARK  status: ('A' for Active; 'I' for Inactive)
REMARK    1  A    between atoms: C_1  and  C_2
REMARK    2  A    between atoms: C_2  and  C_3
REMARK    3  A    between atoms: C_2  and  C_10
REMARK    4  A    between atoms: C_3  and  C_4
REMARK    5  A    between atoms: N_8  and  C_9
REMARK    6  A    between atoms: C_14  and  N_15
REMARK    7  A    between atoms: C_16  and  C_18
REMARK    8  A    between atoms: C_20  and  C_21
REMARK    9  A    between atoms: C_26  and  O_27
REMARK                            x       y       z     vdW  Elec       q    Type
REMARK                         _______ _______ _______ _____ _____    ______ ____
ROOT
ATOM      1  N   UNL     1       7.795   9.048  17.707  0.00  0.00    +0.000 N 
ATOM      2  C   UNL     1       7.846   7.713  18.050  0.00  0.00    +0.000 C 
ATOM      3  O   UNL     1       8.582   7.189  18.878  0.00  0.00    +0.000 OA
ATOM      4  H   UNL     1       7.162   9.291  16.952  0.00  0.00    +0.000 HD
ENDROOT
BRANCH   1   9
ATOM      5  C   UNL     1       9.378  12.385  18.194  0.00  0.00    +0.000 A 
ATOM      6  C   UNL     1      10.176  12.132  19.323  0.00  0.00    +0.000 A 
ATOM      7  C   UNL     1      10.167  10.885  19.928  0.00  0.00    +0.000 A 
ATOM      8  C   UNL     1       9.383   9.865  19.405  0.00  0.00    +0.000 A 
ATOM      9  C   UNL     1       8.579  10.076  18.282  0.00  0.00    +0.000 A 
ATOM     10  C   UNL     1       8.567  11.345  17.695  0.00  0.00    +0.000 A 
BRANCH   5  12
ATOM     11  C   UNL     1       8.577  14.804  18.126  0.00  0.00    +0.000 C 
ATOM     12  C   UNL     1       9.435  13.720  17.457  0.00  0.00    +0.000 C 
BRANCH  12  13
ATOM     13  C   UNL     1      10.912  14.149  17.333  0.00  0.00    +0.000 C 
BRANCH  13  14
ATOM     14  C   UNL     1      11.120  15.609  17.581  0.00  0.00    +0.000 A 
ATOM     15  N   UNL     1      10.882  16.576  16.714  0.00  0.00    +0.000 NA
ATOM     16  C   UNL     1      11.222  17.741  17.349  0.00  0.00    +0.000 A 
ATOM     17  C   UNL     1      11.676  17.488  18.614  0.00  0.00    +0.000 A 
ATOM     18  N   UNL     1      11.601  16.132  18.759  0.00  0.00    +0.000 N 
ATOM     19  C   UNL     1      11.960  15.391  19.945  0.00  0.00    +0.000 C 
ENDBRANCH  13  14
ENDBRANCH  12  13
ENDBRANCH   5  12
ENDBRANCH   1   9
BRANCH   2  20
ATOM     20  C   UNL     1       6.909   6.822  17.306  0.00  0.00    +0.000 A 
ATOM     21  C   UNL     1       5.682   6.556  17.896  0.00  0.00    +0.000 A 
ATOM     22  C   UNL     1       4.834   5.658  17.273  0.00  0.00    +0.000 A 
ATOM     23  C   UNL     1       5.188   5.158  16.019  0.00  0.00    +0.000 A 
ATOM     24  C   UNL     1       6.425   5.504  15.493  0.00  0.00    +0.000 A 
ATOM     25  N   UNL     1       7.316   6.307  16.118  0.00  0.00    +0.000 NA
BRANCH  22  26
ATOM     26  C   UNL     1       3.575   5.179  17.899  0.00  0.00    +0.000 C 
ATOM     27  O   UNL     1       2.516   5.632  17.467  0.00  0.00    +0.000 OA
ATOM     28  N   UNL     1       3.617   4.177  18.857  0.00  0.00    +0.000 N 
ATOM     29  C   UNL     1       2.395   3.482  19.240  0.00  0.00    +0.000 C 
ATOM     30  C   UNL     1       2.836   2.307  20.110  0.00  0.00    +0.000 C 
ATOM     31  C   UNL     1       4.323   2.154  19.823  0.00  0.00    +0.000 C 
ATOM     32  C   UNL     1       4.760   3.579  19.528  0.00  0.00    +0.000 C 
BRANCH  31  33
ATOM     33  O   UNL     1       5.026   1.581  20.912  0.00  0.00    +0.000 OA
ATOM     34  H   UNL     1       4.718   0.667  21.035  0.00  0.00    +0.000 HD
ENDBRANCH  31  33
ENDBRANCH  22  26
ENDBRANCH   2  20
TORSDOF 7
ENDMDL
MODEL 8
REMARK VINA RESULT:      -8.3      2.343      9.499
REMARK  Name = 
REMARK  9 active torsions:
REMARK  status: ('A' for Active; 'I' for Inactive)
REMARK    1  A    between atoms: C_1  and  C_2
REMARK    2  A    between atoms: C_2  and  C_3
REMARK    3  A    between atoms: C_2  and  C_10
REMARK    4  A    between atoms: C_3  and  C_4
REMARK    5  A    between atoms: N_8  and  C_9
REMARK    6  A    between atoms: C_14  and  N_15
REMARK    7  A    between atoms: C_16  and  C_18
REMARK    8  A    between atoms: C_20  and  C_21
REMARK    9  A    between atoms: C_26  and  O_27
REMARK                            x       y       z     vdW  Elec       q    Type
REMARK                         _______ _______ _______ _____ _____    ______ ____
ROOT
ATOM      1  N   UNL     1       1.685   8.086  19.696  0.00  0.00    +0.000 N 
ATOM      2  C   UNL     1       1.839   8.851  18.559  0.00  0.00    +0.000 C 
ATOM      3  O   UNL     1       2.399   8.527  17.518  0.00  0.00    +0.000 OA
ATOM      4  H   UNL     1       1.247   8.546  20.487  0.00  0.00    +0.000 HD
ENDROOT
BRANCH   1   9
ATOM      5  C   UNL     1       3.458   4.883  19.010  0.00  0.00    +0.000 A 
ATOM      6  C   UNL     1       2.985   4.091  20.071  0.00  0.00    +0.000 A 
ATOM      7  C   UNL     1       2.116   4.620  21.012  0.00  0.00    +0.000 A 
ATOM      8  C   UNL     1       1.686   5.935  20.899  0.00  0.00    +0.000 A 
ATOM      9  C   UNL     1       2.130   6.752  19.856  0.00  0.00    +0.000 A 
ATOM     10  C   UNL     1       3.032   6.225  18.928  0.00  0.00    +0.000 A 
BRANCH   5  12
ATOM     11  C   UNL     1       3.929   2.882  17.501  0.00  0.00    +0.000 C 
ATOM     12  C   UNL     1       4.346   4.303  17.913  0.00  0.00    +0.000 C 
BRANCH  12  13
ATOM     13  C   UNL     1       4.340   5.274  16.713  0.00  0.00    +0.000 C 
BRANCH  13  14
ATOM     14  C   UNL     1       5.422   4.986  15.722  0.00  0.00    +0.000 A 
ATOM     15  N   UNL     1       5.277   4.295  14.607  0.00  0.00    +0.000 NA
ATOM     16  C   UNL     1       6.514   4.266  14.019  0.00  0.00    +0.000 A 
ATOM     17  C   UNL     1       7.427   4.943  14.781  0.00  0.00    +0.000 A 
ATOM     18  N   UNL     1       6.726   5.405  15.858  0.00  0.00    +0.000 N 
ATOM     19  C   UNL     1       7.267   6.196  16.938  0.00  0.00    +0.000 C 
ENDBRANCH  13  14
ENDBRANCH  12  13
ENDBRANCH   5  12
ENDBRANCH   1   9
BRANCH   2  20
ATOM     20  C   UNL     1       1.274  10.230  18.630  0.00  0.00    +0.000 A 
ATOM     21  C   UNL     1      -0.048  10.355  19.031  0.00  0.00    +0.000 A 
ATOM     22  C   UNL     1      -0.623  11.613  19.015  0.00  0.00    +0.000 A 
ATOM     23  C   UNL     1       0.180  12.717  18.722  0.00  0.00    +0.000 A 
ATOM     24  C   UNL     1       1.502  12.496  18.361  0.00  0.00    +0.000 A 
ATOM     25  N   UNL     1       2.071  11.272  18.279  0.00  0.00    +0.000 NA
BRANCH  22  26
ATOM     26  C   UNL     1      -2.070  11.835  19.265  0.00  0.00    +0.000 C 
ATOM     27  O   UNL     1      -2.386  12.438  20.290  0.00  0.00    +0.000 OA
ATOM     28  N   UNL     1      -3.003  11.462  18.308  0.00  0.00    +0.000 N 
ATOM     29  C   UNL     1      -4.371  11.954  18.392  0.00  0.00    +0.000 C 
ATOM     30  C   UNL     1      -5.041  11.557  17.077  0.00  0.00    +0.000 C 
ATOM     31  C   UNL     1      -3.886  11.230  16.141  0.00  0.00    +0.000 C 
ATOM     32  C   UNL     1      -2.825  10.692  17.087  0.00  0.00    +0.000 C 
BRANCH  31  33
ATOM     33  O   UNL     1      -4.250  10.297  15.141  0.00  0.00    +0.000 OA
ATOM     34  H   UNL     1      -4.073  10.690  14.268  0.00  0.00    +0.000 HD
ENDBRANCH  31  33
ENDBRANCH  22  26
ENDBRANCH   2  20
TORSDOF 7
ENDMDL
MODEL 9
REMARK VINA RESULT:      -8.3      6.569      9.476
REMARK  Name = 
REMARK  9 active torsions:
REMARK  status: ('A' for Active; 'I' for Inactive)
REMARK    1  A    between atoms: C_1  and  C_2
REMARK    2  A    between atoms: C_2  and  C_3
REMARK    3  A    between atoms: C_2  and  C_10
REMARK    4  A    between atoms: C_3  and  C_4
REMARK    5  A    between atoms: N_8  and  C_9
REMARK    6  A    between atoms: C_14  and  N_15
REMARK    7  A    between atoms: C_16  and  C_18
REMARK    8  A    between atoms: C_20  and  C_21
REMARK    9  A    between atoms: C_26  and  O_27
REMARK                            x       y       z     vdW  Elec       q    Type
REMARK                         _______ _______ _______ _____ _____    ______ ____
ROOT
ATOM      1  N   UNL     1       8.014   9.227  17.962  0.00  0.00    +0.000 N 
ATOM      2  C   UNL     1       8.013   7.877  18.242  0.00  0.00    +0.000 C 
ATOM      3  O   UNL     1       8.689   7.295  19.082  0.00  0.00    +0.000 OA
ATOM      4  H   UNL     1       7.431   9.522  17.185  0.00  0.00    +0.000 HD
ENDROOT
BRANCH   1   9
ATOM      5  C   UNL     1      10.004  12.325  18.529  0.00  0.00    +0.000 A 
ATOM      6  C   UNL     1      10.398  12.140  19.866  0.00  0.00    +0.000 A 
ATOM      7  C   UNL     1       9.988  11.021  20.573  0.00  0.00    +0.000 A 
ATOM      8  C   UNL     1       9.199  10.059  19.955  0.00  0.00    +0.000 A 
ATOM      9  C   UNL     1       8.790  10.205  18.628  0.00  0.00    +0.000 A 
ATOM     10  C   UNL     1       9.179  11.351  17.928  0.00  0.00    +0.000 A 
BRANCH   5  12
ATOM     11  C   UNL     1      11.145  13.062  16.371  0.00  0.00    +0.000 C 
ATOM     12  C   UNL     1      10.511  13.502  17.701  0.00  0.00    +0.000 C 
BRANCH  12  13
ATOM     13  C   UNL     1       9.344  14.488  17.483  0.00  0.00    +0.000 C 
BRANCH  13  14
ATOM     14  C   UNL     1       9.769  15.920  17.547  0.00  0.00    +0.000 A 
ATOM     15  N   UNL     1      10.939  16.391  17.157  0.00  0.00    +0.000 NA
ATOM     16  C   UNL     1      10.904  17.738  17.406  0.00  0.00    +0.000 A 
ATOM     17  C   UNL     1       9.703  18.097  17.956  0.00  0.00    +0.000 A 
ATOM     18  N   UNL     1       8.983  16.939  18.036  0.00  0.00    +0.000 N 
ATOM     19  C   UNL     1       7.636  16.818  18.540  0.00  0.00    +0.000 C 
ENDBRANCH  13  14
ENDBRANCH  12  13
ENDBRANCH   5  12
ENDBRANCH   1   9
BRANCH   2  20
ATOM     20  C   UNL     1       7.098   7.047  17.405  0.00  0.00    +0.000 A 
ATOM     21  C   UNL     1       5.796   6.887  17.856  0.00  0.00    +0.000 A 
ATOM     22  C   UNL     1       4.955   6.046  17.148  0.00  0.00    +0.000 A 
ATOM     23  C   UNL     1       5.407   5.498  15.947  0.00  0.00    +0.000 A 
ATOM     24  C   UNL     1       6.717   5.739  15.561  0.00  0.00    +0.000 A 
ATOM     25  N   UNL     1       7.593   6.482  16.274  0.00  0.00    +0.000 NA
BRANCH  22  26
ATOM     26  C   UNL     1       3.601   5.676  17.633  0.00  0.00    +0.000 C 
ATOM     27  O   UNL     1       2.729   6.544  17.607  0.00  0.00    +0.000 OA
ATOM     28  N   UNL     1       3.328   4.364  17.992  0.00  0.00    +0.000 N 
ATOM     29  C   UNL     1       1.950   3.924  18.158  0.00  0.00    +0.000 C 
ATOM     30  C   UNL     1       2.010   2.405  18.307  0.00  0.00    +0.000 C 
ATOM     31  C   UNL     1       3.391   2.023  17.791  0.00  0.00    +0.000 C 
ATOM     32  C   UNL     1       4.233   3.236  18.147  0.00  0.00    +0.000 C 
BRANCH  31  33
ATOM     33  O   UNL     1       3.875   0.829  18.379  0.00  0.00    +0.000 OA
ATOM     34  H   UNL     1       4.206   1.033  19.271  0.00  0.00    +0.000 HD
ENDBRANCH  31  33
ENDBRANCH  22  26
ENDBRANCH   2  20
TORSDOF 7
ENDMDL
