MODEL 1
REMARK VINA RESULT:      -8.5      0.000      0.000
REMARK  Name = 
REMARK  7 active torsions:
REMARK  status: ('A' for Active; 'I' for Inactive)
REMARK    1  A    between atoms: C_1  and  C_2
REMARK    2  A    between atoms: C_2  and  S_3
REMARK    3  A    between atoms: C_2  and  C_10
REMARK    4  A    between atoms: S_3  and  C_4
REMARK    5  A    between atoms: N_8  and  C_9
REMARK    6  A    between atoms: C_14  and  C_15
REMARK    7  A    between atoms: C_17  and  C_18
REMARK                            x       y       z     vdW  Elec       q    Type
REMARK                         _______ _______ _______ _____ _____    ______ ____
ROOT
ATOM      1  C   UNL     1       4.360   4.993  16.896  0.00  0.00    +0.000 A 
ATOM      2  C   UNL     1       3.685   3.781  17.110  0.00  0.00    +0.000 A 
ATOM      3  C   UNL     1       2.552   3.720  17.923  0.00  0.00    +0.000 A 
ATOM      4  C   UNL     1       2.072   4.872  18.542  0.00  0.00    +0.000 A 
ATOM      5  C   UNL     1       2.725   6.097  18.362  0.00  0.00    +0.000 A 
ATOM      6  C   UNL     1       3.867   6.142  17.547  0.00  0.00    +0.000 A 
ENDROOT
BRANCH   5   7
ATOM      7  C   UNL     1       2.181   7.312  18.944  0.00  0.00    +0.000 A 
ATOM      8  C   UNL     1       1.694   7.643  20.183  0.00  0.00    +0.000 A 
ATOM      9  C   UNL     1       1.201   8.967  20.044  0.00  0.00    +0.000 A 
ATOM     10  N   UNL     1       1.438   9.423  18.804  0.00  0.00    +0.000 NA
ATOM     11  O   UNL     1       2.052   8.389  18.123  0.00  0.00    +0.000 OA
BRANCH   9  12
ATOM     12  C   UNL     1       0.487   9.756  21.042  0.00  0.00    +0.000 A 
ATOM     13  C   UNL     1       0.172   9.209  22.294  0.00  0.00    +0.000 A 
ATOM     14  C   UNL     1      -0.555   9.951  23.232  0.00  0.00    +0.000 A 
ATOM     15  C   UNL     1      -0.977  11.242  22.921  0.00  0.00    +0.000 A 
ATOM     16  C   UNL     1      -0.665  11.798  21.681  0.00  0.00    +0.000 A 
ATOM     17  C   UNL     1       0.066  11.060  20.748  0.00  0.00    +0.000 A 
ENDBRANCH   9  12
ENDBRANCH   5   7
BRANCH   1  19
ATOM     18  C   UNL     1       5.496   4.218  14.729  0.00  0.00    +0.000 C 
ATOM     19  C   UNL     1       5.567   5.126  15.964  0.00  0.00    +0.000 C 
BRANCH  19  20
ATOM     20  S   UNL     1       7.110   4.790  16.907  0.00  0.00    +0.000 S 
BRANCH  20  21
ATOM     21  C   UNL     1       7.532   6.360  17.483  0.00  0.00    +0.000 A 
ATOM     22  N   UNL     1       7.498   7.493  16.820  0.00  0.00    +0.000 NA
ATOM     23  N   UNL     1       8.009   8.475  17.645  0.00  0.00    +0.000 NA
ATOM     24  C   UNL     1       8.321   7.907  18.790  0.00  0.00    +0.000 A 
ATOM     25  N   UNL     1       8.017   6.580  18.738  0.00  0.00    +0.000 N 
ATOM     26  C   UNL     1       8.206   5.621  19.793  0.00  0.00    +0.000 C 
ENDBRANCH  20  21
ENDBRANCH  19  20
ENDBRANCH   1  19
TORSDOF 5
ENDMDL
MODEL 2
REMARK VINA RESULT:      -8.2      3.587      5.176
REMARK  Name = 
REMARK  7 active torsions:
REMARK  status: ('A' for Active; 'I' for Inactive)
REMARK    1  A    between atoms: C_1  and  C_2
REMARK    2  A    between atoms: C_2  and  S_3
REMARK    3  A    between atoms: C_2  and  C_10
REMARK    4  A    between atoms: S_3  and  C_4
REMARK    5  A    between atoms: N_8  and  C_9
REMARK    6  A    between atoms: C_14  and  C_15
REMARK    7  A    between atoms: C_17  and  C_18
REMARK                            x       y       z     vdW  Elec       q    Type
REMARK                         _______ _______ _______ _____ _____    ______ ____
ROOT
ATOM      1  C   UNL     1       2.326   7.476  19.283  0.00  0.00    +0.000 A 
ATOM      2  C   UNL     1       2.353   8.081  18.017  0.00  0.00    +0.000 A 
ATOM      3  C   UNL     1       1.661   9.268  17.770  0.00  0.00    +0.000 A 
ATOM      4  C   UNL     1       0.926   9.874  18.786  0.00  0.00    +0.000 A 
ATOM      5  C   UNL     1       0.866   9.294  20.058  0.00  0.00    +0.000 A 
ATOM      6  C   UNL     1       1.560   8.096  20.291  0.00  0.00    +0.000 A 
ENDROOT
BRANCH   5   7
ATOM      7  C   UNL     1       0.163   9.965  21.138  0.00  0.00    +0.000 A 
ATOM      8  C   UNL     1      -0.736  11.000  21.196  0.00  0.00    +0.000 A 
ATOM      9  C   UNL     1      -0.931  11.242  22.581  0.00  0.00    +0.000 A 
ATOM     10  N   UNL     1      -0.232  10.358  23.311  0.00  0.00    +0.000 NA
ATOM     11  O   UNL     1       0.446   9.562  22.407  0.00  0.00    +0.000 OA
BRANCH   9  12
ATOM     12  C   UNL     1      -1.718  12.309  23.192  0.00  0.00    +0.000 A 
ATOM     13  C   UNL     1      -3.040  12.077  23.598  0.00  0.00    +0.000 A 
ATOM     14  C   UNL     1      -3.809  13.114  24.139  0.00  0.00    +0.000 A 
ATOM     15  C   UNL     1      -3.262  14.389  24.272  0.00  0.00    +0.000 A 
ATOM     16  C   UNL     1      -1.947  14.629  23.877  0.00  0.00    +0.000 A 
ATOM     17  C   UNL     1      -1.178  13.593  23.343  0.00  0.00    +0.000 A 
ENDBRANCH   9  12
ENDBRANCH   5   7
BRANCH   1  19
ATOM     18  C   UNL     1       4.011   5.715  18.478  0.00  0.00    +0.000 C 
ATOM     19  C   UNL     1       3.117   6.210  19.623  0.00  0.00    +0.000 C 
BRANCH  19  20
ATOM     20  S   UNL     1       1.954   4.880  20.136  0.00  0.00    +0.000 S 
BRANCH  20  21
ATOM     21  C   UNL     1       2.262   3.656  18.959  0.00  0.00    +0.000 A 
ATOM     22  N   UNL     1       1.667   3.492  17.800  0.00  0.00    +0.000 NA
ATOM     23  N   UNL     1       2.166   2.335  17.236  0.00  0.00    +0.000 NA
ATOM     24  C   UNL     1       3.061   1.844  18.066  0.00  0.00    +0.000 A 
ATOM     25  N   UNL     1       3.167   2.656  19.154  0.00  0.00    +0.000 N 
ATOM     26  C   UNL     1       4.041   2.463  20.280  0.00  0.00    +0.000 C 
ENDBRANCH  20  21
ENDBRANCH  19  20
ENDBRANCH   1  19
TORSDOF 5
ENDMDL
MODEL 3
REMARK VINA RESULT:      -8.1      1.756      2.186
REMARK  Name = 
REMARK  7 active torsions:
REMARK  status: ('A' for Active; 'I' for Inactive)
REMARK    1  A    between atoms: C_1  and  C_2
REMARK    2  A    between atoms: C_2  and  S_3
REMARK    3  A    between atoms: C_2  and  C_10
REMARK    4  A    between atoms: S_3  and  C_4
REMARK    5  A    between atoms: N_8  and  C_9
REMARK    6  A    between atoms: C_14  and  C_15
REMARK    7  A    between atoms: C_17  and  C_18
REMARK                            x       y       z     vdW  Elec       q    Type
REMARK                         _______ _______ _______ _____ _____    ______ ____
ROOT
ATOM      1  C   UNL     1       4.395   4.891  16.823  0.00  0.00    +0.000 A 
ATOM      2  C   UNL     1       3.725   3.705  17.161  0.00  0.00    +0.000 A 
ATOM      3  C   UNL     1       2.568   3.727  17.942  0.00  0.00    +0.000 A 
ATOM      4  C   UNL     1       2.058   4.938  18.402  0.00  0.00    +0.000 A 
ATOM      5  C   UNL     1       2.705   6.141  18.096  0.00  0.00    +0.000 A 
ATOM      6  C   UNL     1       3.871   6.103  17.315  0.00  0.00    +0.000 A 
ENDROOT
BRANCH   5   7
ATOM      7  C   UNL     1       2.130   7.410  18.510  0.00  0.00    +0.000 A 
ATOM      8  C   UNL     1       1.782   8.562  17.852  0.00  0.00    +0.000 A 
ATOM      9  C   UNL     1       1.393   9.467  18.873  0.00  0.00    +0.000 A 
ATOM     10  N   UNL     1       1.448   8.867  20.073  0.00  0.00    +0.000 NA
ATOM     11  O   UNL     1       1.906   7.583  19.841  0.00  0.00    +0.000 OA
BRANCH   9  12
ATOM     12  C   UNL     1       1.026  10.871  18.720  0.00  0.00    +0.000 A 
ATOM     13  C   UNL     1       2.008  11.846  18.491  0.00  0.00    +0.000 A 
ATOM     14  C   UNL     1       1.658  13.197  18.393  0.00  0.00    +0.000 A 
ATOM     15  C   UNL     1       0.326  13.583  18.529  0.00  0.00    +0.000 A 
ATOM     16  C   UNL     1      -0.659  12.623  18.752  0.00  0.00    +0.000 A 
ATOM     17  C   UNL     1      -0.311  11.273  18.844  0.00  0.00    +0.000 A 
ENDBRANCH   9  12
ENDBRANCH   5   7
BRANCH   1  19
ATOM     18  C   UNL     1       5.582   3.911  14.769  0.00  0.00    +0.000 C 
ATOM     19  C   UNL     1       5.630   4.927  15.918  0.00  0.00    +0.000 C 
BRANCH  19  20
ATOM     20  S   UNL     1       7.141   4.662  16.933  0.00  0.00    +0.000 S 
BRANCH  20  21
ATOM     21  C   UNL     1       7.524   6.267  17.436  0.00  0.00    +0.000 A 
ATOM     22  N   UNL     1       7.493   7.363  16.713  0.00  0.00    +0.000 NA
ATOM     23  N   UNL     1       7.967   8.395  17.498  0.00  0.00    +0.000 NA
ATOM     24  C   UNL     1       8.255   7.892  18.680  0.00  0.00    +0.000 A 
ATOM     25  N   UNL     1       7.972   6.560  18.690  0.00  0.00    +0.000 N 
ATOM     26  C   UNL     1       8.145   5.660  19.798  0.00  0.00    +0.000 C 
ENDBRANCH  20  21
ENDBRANCH  19  20
ENDBRANCH   1  19
TORSDOF 5
ENDMDL
MODEL 4
REMARK VINA RESULT:      -8.0      3.623      6.920
REMARK  Name = 
REMARK  7 active torsions:
REMARK  status: ('A' for Active; 'I' for Inactive)
REMARK    1  A    between atoms: C_1  and  C_2
REMARK    2  A    between atoms: C_2  and  S_3
REMARK    3  A    between atoms: C_2  and  C_10
REMARK    4  A    between atoms: S_3  and  C_4
REMARK    5  A    between atoms: N_8  and  C_9
REMARK    6  A    between atoms: C_14  and  C_15
REMARK    7  A    between atoms: C_17  and  C_18
REMARK                            x       y       z     vdW  Elec       q    Type
REMARK                         _______ _______ _______ _____ _____    ______ ____
ROOT
ATOM      1  C   UNL     1       5.105   3.948  16.725  0.00  0.00    +0.000 A 
ATOM      2  C   UNL     1       5.569   3.615  15.443  0.00  0.00    +0.000 A 
ATOM      3  C   UNL     1       6.573   4.360  14.823  0.00  0.00    +0.000 A 
ATOM      4  C   UNL     1       7.135   5.456  15.473  0.00  0.00    +0.000 A 
ATOM      5  C   UNL     1       6.690   5.826  16.748  0.00  0.00    +0.000 A 
ATOM      6  C   UNL     1       5.674   5.073  17.357  0.00  0.00    +0.000 A 
ENDROOT
BRANCH   5   7
ATOM      7  C   UNL     1       7.328   6.921  17.458  0.00  0.00    +0.000 A 
ATOM      8  C   UNL     1       7.439   8.271  17.234  0.00  0.00    +0.000 A 
ATOM      9  C   UNL     1       8.307   8.744  18.253  0.00  0.00    +0.000 A 
ATOM     10  N   UNL     1       8.646   7.740  19.078  0.00  0.00    +0.000 NA
ATOM     11  O   UNL     1       8.031   6.607  18.580  0.00  0.00    +0.000 OA
BRANCH   9  12
ATOM     12  C   UNL     1       8.834  10.095  18.411  0.00  0.00    +0.000 A 
ATOM     13  C   UNL     1       9.816  10.371  19.373  0.00  0.00    +0.000 A 
ATOM     14  C   UNL     1      10.285  11.677  19.556  0.00  0.00    +0.000 A 
ATOM     15  C   UNL     1       9.771  12.715  18.782  0.00  0.00    +0.000 A 
ATOM     16  C   UNL     1       8.798  12.452  17.819  0.00  0.00    +0.000 A 
ATOM     17  C   UNL     1       8.334  11.148  17.632  0.00  0.00    +0.000 A 
ENDBRANCH   9  12
ENDBRANCH   5   7
BRANCH   1  19
ATOM     18  C   UNL     1       2.608   3.533  17.149  0.00  0.00    +0.000 C 
ATOM     19  C   UNL     1       4.052   3.128  17.474  0.00  0.00    +0.000 C 
BRANCH  19  20
ATOM     20  S   UNL     1       4.350   3.255  19.285  0.00  0.00    +0.000 S 
BRANCH  20  21
ATOM     21  C   UNL     1       3.151   4.397  19.770  0.00  0.00    +0.000 A 
ATOM     22  N   UNL     1       3.189   5.704  19.639  0.00  0.00    +0.000 NA
ATOM     23  N   UNL     1       2.063   6.217  20.249  0.00  0.00    +0.000 NA
ATOM     24  C   UNL     1       1.368   5.201  20.717  0.00  0.00    +0.000 A 
ATOM     25  N   UNL     1       2.008   4.037  20.418  0.00  0.00    +0.000 N 
ATOM     26  C   UNL     1       1.564   2.710  20.754  0.00  0.00    +0.000 C 
ENDBRANCH  20  21
ENDBRANCH  19  20
ENDBRANCH   1  19
TORSDOF 5
ENDMDL
MODEL 5
REMARK VINA RESULT:      -8.0      3.727      7.130
REMARK  Name = 
REMARK  7 active torsions:
REMARK  status: ('A' for Active; 'I' for Inactive)
REMARK    1  A    between atoms: C_1  and  C_2
REMARK    2  A    between atoms: C_2  and  S_3
REMARK    3  A    between atoms: C_2  and  C_10
REMARK    4  A    between atoms: S_3  and  C_4
REMARK    5  A    between atoms: N_8  and  C_9
REMARK    6  A    between atoms: C_14  and  C_15
REMARK    7  A    between atoms: C_17  and  C_18
REMARK                            x       y       z     vdW  Elec       q    Type
REMARK                         _______ _______ _______ _____ _____    ______ ____
ROOT
ATOM      1  C   UNL     1       5.109   4.016  16.688  0.00  0.00    +0.000 A 
ATOM      2  C   UNL     1       5.482   3.806  15.351  0.00  0.00    +0.000 A 
ATOM      3  C   UNL     1       6.422   4.627  14.727  0.00  0.00    +0.000 A 
ATOM      4  C   UNL     1       7.008   5.679  15.427  0.00  0.00    +0.000 A 
ATOM      5  C   UNL     1       6.653   5.927  16.758  0.00  0.00    +0.000 A 
ATOM      6  C   UNL     1       5.701   5.098  17.372  0.00  0.00    +0.000 A 
ENDROOT
BRANCH   5   7
ATOM      7  C   UNL     1       7.319   6.975  17.513  0.00  0.00    +0.000 A 
ATOM      8  C   UNL     1       7.409   8.338  17.382  0.00  0.00    +0.000 A 
ATOM      9  C   UNL     1       8.325   8.745  18.386  0.00  0.00    +0.000 A 
ATOM     10  N   UNL     1       8.714   7.688  19.118  0.00  0.00    +0.000 NA
ATOM     11  O   UNL     1       8.081   6.587  18.571  0.00  0.00    +0.000 OA
BRANCH   9  12
ATOM     12  C   UNL     1       8.851  10.087  18.615  0.00  0.00    +0.000 A 
ATOM     13  C   UNL     1       8.701  11.088  17.644  0.00  0.00    +0.000 A 
ATOM     14  C   UNL     1       9.249  12.360  17.845  0.00  0.00    +0.000 A 
ATOM     15  C   UNL     1       9.953  12.637  19.015  0.00  0.00    +0.000 A 
ATOM     16  C   UNL     1      10.103  11.652  19.989  0.00  0.00    +0.000 A 
ATOM     17  C   UNL     1       9.552  10.384  19.791  0.00  0.00    +0.000 A 
ENDBRANCH   9  12
ENDBRANCH   5   7
BRANCH   1  19
ATOM     18  C   UNL     1       2.656   3.422  17.156  0.00  0.00    +0.000 C 
ATOM     19  C   UNL     1       4.132   3.107  17.438  0.00  0.00    +0.000 C 
BRANCH  19  20
ATOM     20  S   UNL     1       4.464   3.208  19.244  0.00  0.00    +0.000 S 
BRANCH  20  21
ATOM     21  C   UNL     1       2.884   3.461  19.889  0.00  0.00    +0.000 A 
ATOM     22  N   UNL     1       2.010   2.549  20.250  0.00  0.00    +0.000 NA
ATOM     23  N   UNL     1       0.852   3.204  20.618  0.00  0.00    +0.000 NA
ATOM     24  C   UNL     1       1.068   4.495  20.484  0.00  0.00    +0.000 A 
ATOM     25  N   UNL     1       2.341   4.701  20.046  0.00  0.00    +0.000 N 
ATOM     26  C   UNL     1       2.957   5.974  19.784  0.00  0.00    +0.000 C 
ENDBRANCH  20  21
ENDBRANCH  19  20
ENDBRANCH   1  19
TORSDOF 5
ENDMDL
MODEL 6
REMARK VINA RESULT:      -8.0      0.898      1.696
REMARK  Name = 
REMARK  7 active torsions:
REMARK  status: ('A' for Active; 'I' for Inactive)
REMARK    1  A    between atoms: C_1  and  C_2
REMARK    2  A    between atoms: C_2  and  S_3
REMARK    3  A    between atoms: C_2  and  C_10
REMARK    4  A    between atoms: S_3  and  C_4
REMARK    5  A    between atoms: N_8  and  C_9
REMARK    6  A    between atoms: C_14  and  C_15
REMARK    7  A    between atoms: C_17  and  C_18
REMARK                            x       y       z     vdW  Elec       q    Type
REMARK                         _______ _______ _______ _____ _____    ______ ____
ROOT
ATOM      1  C   UNL     1       4.635   5.051  16.487  0.00  0.00    +0.000 A 
ATOM      2  C   UNL     1       4.217   3.776  16.901  0.00  0.00    +0.000 A 
ATOM      3  C   UNL     1       3.259   3.622  17.904  0.00  0.00    +0.000 A 
ATOM      4  C   UNL     1       2.699   4.742  18.516  0.00  0.00    +0.000 A 
ATOM      5  C   UNL     1       3.100   6.029  18.138  0.00  0.00    +0.000 A 
ATOM      6  C   UNL     1       4.069   6.169  17.133  0.00  0.00    +0.000 A 
ENDROOT
BRANCH   5   7
ATOM      7  C   UNL     1       2.461   7.197  18.720  0.00  0.00    +0.000 A 
ATOM      8  C   UNL     1       1.990   7.504  19.972  0.00  0.00    +0.000 A 
ATOM      9  C   UNL     1       1.366   8.771  19.830  0.00  0.00    +0.000 A 
ATOM     10  N   UNL     1       1.512   9.223  18.574  0.00  0.00    +0.000 NA
ATOM     11  O   UNL     1       2.198   8.239  17.887  0.00  0.00    +0.000 OA
BRANCH   9  12
ATOM     12  C   UNL     1       0.615   9.507  20.841  0.00  0.00    +0.000 A 
ATOM     13  C   UNL     1       0.387  10.884  20.700  0.00  0.00    +0.000 A 
ATOM     14  C   UNL     1      -0.291  11.597  21.696  0.00  0.00    +0.000 A 
ATOM     15  C   UNL     1      -0.740  10.940  22.839  0.00  0.00    +0.000 A 
ATOM     16  C   UNL     1      -0.524   9.571  22.987  0.00  0.00    +0.000 A 
ATOM     17  C   UNL     1       0.147   8.858  21.992  0.00  0.00    +0.000 A 
ENDBRANCH   9  12
ENDBRANCH   5   7
BRANCH   1  19
ATOM     18  C   UNL     1       5.241   4.585  14.037  0.00  0.00    +0.000 C 
ATOM     19  C   UNL     1       5.635   5.276  15.349  0.00  0.00    +0.000 C 
BRANCH  19  20
ATOM     20  S   UNL     1       7.304   4.716  15.881  0.00  0.00    +0.000 S 
BRANCH  20  21
ATOM     21  C   UNL     1       7.312   5.140  17.554  0.00  0.00    +0.000 A 
ATOM     22  N   UNL     1       7.104   4.350  18.582  0.00  0.00    +0.000 NA
ATOM     23  N   UNL     1       7.112   5.133  19.718  0.00  0.00    +0.000 NA
ATOM     24  C   UNL     1       7.342   6.373  19.343  0.00  0.00    +0.000 A 
ATOM     25  N   UNL     1       7.494   6.418  17.990  0.00  0.00    +0.000 N 
ATOM     26  C   UNL     1       7.763   7.591  17.201  0.00  0.00    +0.000 C 
ENDBRANCH  20  21
ENDBRANCH  19  20
ENDBRANCH   1  19
TORSDOF 5
ENDMDL
MODEL 7
REMARK VINA RESULT:      -8.0      3.647      5.558
REMARK  Name = 
REMARK  7 active torsions:
REMARK  status: ('A' for Active; 'I' for Inactive)
REMARK    1  A    between atoms: C_1  and  C_2
REMARK    2  A    between atoms: C_2  and  S_3
REMARK    3  A    between atoms: C_2  and  C_10
REMARK    4  A    between atoms: S_3  and  C_4
REMARK    5  A    between atoms: N_8  and  C_9
REMARK    6  A    between atoms: C_14  and  C_15
REMARK    7  A    between atoms: C_17  and  C_18
REMARK                            x       y       z     vdW  Elec       q    Type
REMARK                         _______ _______ _______ _____ _____    ______ ____
ROOT
ATOM      1  C   UNL     1       2.363   7.699  18.960  0.00  0.00    +0.000 A 
ATOM      2  C   UNL     1       2.502   8.435  17.773  0.00  0.00    +0.000 A 
ATOM      3  C   UNL     1       1.900   9.686  17.624  0.00  0.00    +0.000 A 
ATOM      4  C   UNL     1       1.144  10.226  18.662  0.00  0.00    +0.000 A 
ATOM      5  C   UNL     1       0.973   9.517  19.856  0.00  0.00    +0.000 A 
ATOM      6  C   UNL     1       1.578   8.257  19.989  0.00  0.00    +0.000 A 
ENDROOT
BRANCH   5   7
ATOM      7  C   UNL     1       0.250  10.113  20.966  0.00  0.00    +0.000 A 
ATOM      8  C   UNL     1      -0.684  11.113  21.072  0.00  0.00    +0.000 A 
ATOM      9  C   UNL     1      -0.885  11.284  22.467  0.00  0.00    +0.000 A 
ATOM     10  N   UNL     1      -0.155  10.391  23.155  0.00  0.00    +0.000 NA
ATOM     11  O   UNL     1       0.548   9.661  22.215  0.00  0.00    +0.000 OA
BRANCH   9  12
ATOM     12  C   UNL     1      -1.707  12.293  23.127  0.00  0.00    +0.000 A 
ATOM     13  C   UNL     1      -1.186  13.562  23.415  0.00  0.00    +0.000 A 
ATOM     14  C   UNL     1      -1.961  14.511  24.092  0.00  0.00    +0.000 A 
ATOM     15  C   UNL     1      -3.258  14.195  24.488  0.00  0.00    +0.000 A 
ATOM     16  C   UNL     1      -3.789  12.939  24.201  0.00  0.00    +0.000 A 
ATOM     17  C   UNL     1      -3.018  11.993  23.521  0.00  0.00    +0.000 A 
ENDBRANCH   9  12
ENDBRANCH   5   7
BRANCH   1  19
ATOM     18  C   UNL     1       4.396   6.212  18.468  0.00  0.00    +0.000 C 
ATOM     19  C   UNL     1       3.053   6.353  19.197  0.00  0.00    +0.000 C 
BRANCH  19  20
ATOM     20  S   UNL     1       1.921   4.989  18.705  0.00  0.00    +0.000 S 
BRANCH  20  21
ATOM     21  C   UNL     1       1.873   4.025  20.135  0.00  0.00    +0.000 A 
ATOM     22  N   UNL     1       2.210   4.381  21.353  0.00  0.00    +0.000 NA
ATOM     23  N   UNL     1       2.101   3.265  22.159  0.00  0.00    +0.000 NA
ATOM     24  C   UNL     1       1.685   2.271  21.404  0.00  0.00    +0.000 A 
ATOM     25  N   UNL     1       1.510   2.711  20.127  0.00  0.00    +0.000 N 
ATOM     26  C   UNL     1       1.059   1.926  19.009  0.00  0.00    +0.000 C 
ENDBRANCH  20  21
ENDBRANCH  19  20
ENDBRANCH   1  19
TORSDOF 5
ENDMDL
MODEL 8
REMARK VINA RESULT:      -7.9      2.473      4.048
REMARK  Name = 
REMARK  7 active torsions:
REMARK  status: ('A' for Active; 'I' for Inactive)
REMARK    1  A    between atoms: C_1  and  C_2
REMARK    2  A    between atoms: C_2  and  S_3
REMARK    3  A    between atoms: C_2  and  C_10
REMARK    4  A    between atoms: S_3  and  C_4
REMARK    5  A    between atoms: N_8  and  C_9
REMARK    6  A    between atoms: C_14  and  C_15
REMARK    7  A    between atoms: C_17  and  C_18
REMARK                            x       y       z     vdW  Elec       q    Type
REMARK                         _______ _______ _______ _____ _____    ______ ____
ROOT
ATOM      1  C   UNL     1       2.431   6.767  19.117  0.00  0.00    +0.000 A 
ATOM      2  C   UNL     1       2.726   7.432  17.916  0.00  0.00    +0.000 A 
ATOM      3  C   UNL     1       2.319   8.749  17.703  0.00  0.00    +0.000 A 
ATOM      4  C   UNL     1       1.605   9.430  18.687  0.00  0.00    +0.000 A 
ATOM      5  C   UNL     1       1.282   8.796  19.892  0.00  0.00    +0.000 A 
ATOM      6  C   UNL     1       1.692   7.468  20.091  0.00  0.00    +0.000 A 
ENDROOT
BRANCH   5   7
ATOM      7  C   UNL     1       0.606   9.529  20.948  0.00  0.00    +0.000 A 
ATOM      8  C   UNL     1      -0.340  10.523  20.968  0.00  0.00    +0.000 A 
ATOM      9  C   UNL     1      -0.471  10.881  22.335  0.00  0.00    +0.000 A 
ATOM     10  N   UNL     1       0.310  10.099  23.097  0.00  0.00    +0.000 NA
ATOM     11  O   UNL     1       0.977   9.256  22.229  0.00  0.00    +0.000 OA
BRANCH   9  12
ATOM     12  C   UNL     1      -1.277  11.960  22.895  0.00  0.00    +0.000 A 
ATOM     13  C   UNL     1      -2.576  11.714  23.363  0.00  0.00    +0.000 A 
ATOM     14  C   UNL     1      -3.365  12.760  23.855  0.00  0.00    +0.000 A 
ATOM     15  C   UNL     1      -2.862  14.059  23.877  0.00  0.00    +0.000 A 
ATOM     16  C   UNL     1      -1.570  14.315  23.421  0.00  0.00    +0.000 A 
ATOM     17  C   UNL     1      -0.781  13.270  22.935  0.00  0.00    +0.000 A 
ENDBRANCH   9  12
ENDBRANCH   5   7
BRANCH   1  19
ATOM     18  C   UNL     1       2.370   4.789  20.752  0.00  0.00    +0.000 C 
ATOM     19  C   UNL     1       2.909   5.345  19.427  0.00  0.00    +0.000 C 
BRANCH  19  20
ATOM     20  S   UNL     1       4.747   5.303  19.425  0.00  0.00    +0.000 S 
BRANCH  20  21
ATOM     21  C   UNL     1       5.096   4.776  17.820  0.00  0.00    +0.000 A 
ATOM     22  N   UNL     1       4.244   4.369  16.907  0.00  0.00    +0.000 NA
ATOM     23  N   UNL     1       4.973   3.957  15.810  0.00  0.00    +0.000 NA
ATOM     24  C   UNL     1       6.246   4.143  16.088  0.00  0.00    +0.000 A 
ATOM     25  N   UNL     1       6.366   4.676  17.336  0.00  0.00    +0.000 N 
ATOM     26  C   UNL     1       7.594   5.027  17.998  0.00  0.00    +0.000 C 
ENDBRANCH  20  21
ENDBRANCH  19  20
ENDBRANCH   1  19
TORSDOF 5
ENDMDL
MODEL 9
REMARK VINA RESULT:      -7.8      4.501      7.485
REMARK  Name = 
REMARK  7 active torsions:
REMARK  status: ('A' for Active; 'I' for Inactive)
REMARK    1  A    between atoms: C_1  and  C_2
REMARK    2  A    between atoms: C_2  and  S_3
REMARK    3  A    between atoms: C_2  and  C_10
REMARK    4  A    between atoms: S_3  and  C_4
REMARK    5  A    between atoms: N_8  and  C_9
REMARK    6  A    between atoms: C_14  and  C_15
REMARK    7  A    between atoms: C_17  and  C_18
REMARK                            x       y       z     vdW  Elec       q    Type
REMARK                         _______ _______ _______ _____ _____    ______ ____
ROOT
ATOM      1  C   UNL     1       5.248   4.515  17.346  0.00  0.00    +0.000 A 
ATOM      2  C   UNL     1       5.558   4.137  16.030  0.00  0.00    +0.000 A 
ATOM      3  C   UNL     1       6.467   4.869  15.264  0.00  0.00    +0.000 A 
ATOM      4  C   UNL     1       7.084   5.997  15.799  0.00  0.00    +0.000 A 
ATOM      5  C   UNL     1       6.792   6.412  17.104  0.00  0.00    +0.000 A 
ATOM      6  C   UNL     1       5.871   5.670  17.860  0.00  0.00    +0.000 A 
ENDROOT
BRANCH   5   7
ATOM      7  C   UNL     1       7.492   7.542  17.689  0.00  0.00    +0.000 A 
ATOM      8  C   UNL     1       7.571   8.878  17.387  0.00  0.00    +0.000 A 
ATOM      9  C   UNL     1       8.536   9.403  18.286  0.00  0.00    +0.000 A 
ATOM     10  N   UNL     1       8.964   8.443  19.122  0.00  0.00    +0.000 NA
ATOM     11  O   UNL     1       8.308   7.286  18.747  0.00  0.00    +0.000 OA
BRANCH   9  12
ATOM     12  C   UNL     1       9.068  10.762  18.321  0.00  0.00    +0.000 A 
ATOM     13  C   UNL     1       8.375  11.816  17.709  0.00  0.00    +0.000 A 
ATOM     14  C   UNL     1       8.911  13.109  17.702  0.00  0.00    +0.000 A 
ATOM     15  C   UNL     1      10.145  13.353  18.301  0.00  0.00    +0.000 A 
ATOM     16  C   UNL     1      10.840  12.314  18.918  0.00  0.00    +0.000 A 
ATOM     17  C   UNL     1      10.302  11.025  18.930  0.00  0.00    +0.000 A 
ENDBRANCH   9  12
ENDBRANCH   5   7
BRANCH   1  19
ATOM     18  C   UNL     1       3.868   2.371  17.644  0.00  0.00    +0.000 C 
ATOM     19  C   UNL     1       4.308   3.711  18.249  0.00  0.00    +0.000 C 
BRANCH  19  20
ATOM     20  S   UNL     1       2.835   4.732  18.661  0.00  0.00    +0.000 S 
BRANCH  20  21
ATOM     21  C   UNL     1       2.270   3.984  20.110  0.00  0.00    +0.000 A 
ATOM     22  N   UNL     1       2.691   4.192  21.336  0.00  0.00    +0.000 NA
ATOM     23  N   UNL     1       2.023   3.310  22.162  0.00  0.00    +0.000 NA
ATOM     24  C   UNL     1       1.205   2.605  21.409  0.00  0.00    +0.000 A 
ATOM     25  N   UNL     1       1.314   3.012  20.114  0.00  0.00    +0.000 N 
ATOM     26  C   UNL     1       0.582   2.489  18.992  0.00  0.00    +0.000 C 
ENDBRANCH  20  21
ENDBRANCH  19  20
ENDBRANCH   1  19
TORSDOF 5
ENDMDL
