MODEL 1
REMARK VINA RESULT:      -8.5      0.000      0.000
REMARK  Name = 
REMARK  6 active torsions:
REMARK  status: ('A' for Active; 'I' for Inactive)
REMARK    1  A    between atoms: C_1  and  C_2
REMARK    2  A    between atoms: C_2  and  S_3
REMARK    3  A    between atoms: C_2  and  C_10
REMARK    4  A    between atoms: S_3  and  C_4
REMARK    5  A    between atoms: N_8  and  C_9
REMARK    6  A    between atoms: C_14  and  N_15
REMARK                            x       y       z     vdW  Elec       q    Type
REMARK                         _______ _______ _______ _____ _____    ______ ____
ROOT
ATOM      1  C   UNL     1       4.496   5.218  17.199  0.00  0.00    +0.000 A 
ATOM      2  C   UNL     1       5.210   4.225  16.510  0.00  0.00    +0.000 A 
ATOM      3  C   UNL     1       6.520   4.424  16.116  0.00  0.00    +0.000 A 
ATOM      4  C   UNL     1       7.157   5.635  16.382  0.00  0.00    +0.000 A 
ATOM      5  C   UNL     1       6.488   6.641  17.059  0.00  0.00    +0.000 A 
ATOM      6  C   UNL     1       5.180   6.421  17.503  0.00  0.00    +0.000 A 
ENDROOT
BRANCH   5   7
ATOM      7  N   UNL     1       7.096   7.884  17.291  0.00  0.00    +0.000 N 
ATOM      8  C   UNL     1       8.085   8.142  18.224  0.00  0.00    +0.000 C 
ATOM      9  O   UNL     1       8.580   7.343  19.001  0.00  0.00    +0.000 OA
ATOM     10  N   UNL     1       8.494   9.462  18.229  0.00  0.00    +0.000 N 
ATOM     11  C   UNL     1       8.003  10.525  17.400  0.00  0.00    +0.000 C 
ATOM     12  C   UNL     1       9.013  11.628  17.617  0.00  0.00    +0.000 C 
ATOM     13  C   UNL     1       9.567  11.400  19.046  0.00  0.00    +0.000 C 
ATOM     14  C   UNL     1      11.100  11.440  19.077  0.00  0.00    +0.000 C 
ATOM     15  N   UNL     1      11.443  12.420  20.056  0.00  0.00    +0.000 N 
ATOM     16  C   UNL     1      10.365  12.913  20.741  0.00  0.00    +0.000 C 
ATOM     17  O   UNL     1      10.430  13.611  21.738  0.00  0.00    +0.000 OA
ATOM     18  C   UNL     1       9.107  12.484  20.043  0.00  0.00    +0.000 C 
ATOM     19  C   UNL     1       9.056  10.007  19.443  0.00  0.00    +0.000 C 
ATOM     20  H   UNL     1       6.888   8.611  16.628  0.00  0.00    +0.000 HD
ATOM     21  H   UNL     1      12.379  12.585  20.405  0.00  0.00    +0.000 HD
ENDBRANCH   5   7
BRANCH   1  23
ATOM     22  C   UNL     1       2.738   5.685  19.018  0.00  0.00    +0.000 C 
ATOM     23  C   UNL     1       3.037   5.082  17.640  0.00  0.00    +0.000 C 
BRANCH  23  24
ATOM     24  S   UNL     1       2.582   3.284  17.644  0.00  0.00    +0.000 S 
BRANCH  24  25
ATOM     25  C   UNL     1       2.180   2.985  19.293  0.00  0.00    +0.000 A 
ATOM     26  N   UNL     1       1.003   3.090  19.866  0.00  0.00    +0.000 NA
ATOM     27  N   UNL     1       1.183   2.893  21.220  0.00  0.00    +0.000 NA
ATOM     28  C   UNL     1       2.458   2.647  21.421  0.00  0.00    +0.000 A 
ATOM     29  N   UNL     1       3.114   2.644  20.228  0.00  0.00    +0.000 N 
ATOM     30  C   UNL     1       4.507   2.351  20.026  0.00  0.00    +0.000 C 
ENDBRANCH  24  25
ENDBRANCH  23  24
ENDBRANCH   1  23
TORSDOF 4
ENDMDL
MODEL 2
REMARK VINA RESULT:      -8.2      5.857      8.823
REMARK  Name = 
REMARK  6 active torsions:
REMARK  status: ('A' for Active; 'I' for Inactive)
REMARK    1  A    between atoms: C_1  and  C_2
REMARK    2  A    between atoms: C_2  and  S_3
REMARK    3  A    between atoms: C_2  and  C_10
REMARK    4  A    between atoms: S_3  and  C_4
REMARK    5  A    between atoms: N_8  and  C_9
REMARK    6  A    between atoms: C_14  and  N_15
REMARK                            x       y       z     vdW  Elec       q    Type
REMARK                         _______ _______ _______ _____ _____    ______ ____
ROOT
ATOM      1  C   UNL     1      -0.042  10.339  19.695  0.00  0.00    +0.000 A 
ATOM      2  C   UNL     1      -0.587  10.102  20.967  0.00  0.00    +0.000 A 
ATOM      3  C   UNL     1      -0.150   9.051  21.752  0.00  0.00    +0.000 A 
ATOM      4  C   UNL     1       0.837   8.187  21.282  0.00  0.00    +0.000 A 
ATOM      5  C   UNL     1       1.400   8.385  20.033  0.00  0.00    +0.000 A 
ATOM      6  C   UNL     1       0.996   9.478  19.260  0.00  0.00    +0.000 A 
ENDROOT
BRANCH   5   7
ATOM      7  N   UNL     1       2.359   7.496  19.524  0.00  0.00    +0.000 N 
ATOM      8  C   UNL     1       3.105   7.677  18.373  0.00  0.00    +0.000 C 
ATOM      9  O   UNL     1       3.047   8.626  17.609  0.00  0.00    +0.000 OA
ATOM     10  N   UNL     1       3.972   6.632  18.119  0.00  0.00    +0.000 N 
ATOM     11  C   UNL     1       4.148   5.442  18.900  0.00  0.00    +0.000 C 
ATOM     12  C   UNL     1       5.415   4.840  18.335  0.00  0.00    +0.000 C 
ATOM     13  C   UNL     1       5.465   5.305  16.858  0.00  0.00    +0.000 C 
ATOM     14  C   UNL     1       6.836   5.883  16.488  0.00  0.00    +0.000 C 
ATOM     15  N   UNL     1       7.272   5.146  15.346  0.00  0.00    +0.000 N 
ATOM     16  C   UNL     1       6.331   4.280  14.859  0.00  0.00    +0.000 C 
ATOM     17  O   UNL     1       6.407   3.691  13.795  0.00  0.00    +0.000 OA
ATOM     18  C   UNL     1       5.222   4.152  15.862  0.00  0.00    +0.000 C 
ATOM     19  C   UNL     1       4.379   6.387  16.755  0.00  0.00    +0.000 C 
ATOM     20  H   UNL     1       2.617   6.730  20.124  0.00  0.00    +0.000 HD
ATOM     21  H   UNL     1       8.081   5.378  14.783  0.00  0.00    +0.000 HD
ENDBRANCH   5   7
BRANCH   1  23
ATOM     22  C   UNL     1       0.075  12.842  19.110  0.00  0.00    +0.000 C 
ATOM     23  C   UNL     1      -0.494  11.462  18.758  0.00  0.00    +0.000 C 
BRANCH  23  24
ATOM     24  S   UNL     1      -2.347  11.537  18.773  0.00  0.00    +0.000 S 
BRANCH  24  25
ATOM     25  C   UNL     1      -2.779  10.848  17.253  0.00  0.00    +0.000 A 
ATOM     26  N   UNL     1      -2.072  10.026  16.513  0.00  0.00    +0.000 NA
ATOM     27  N   UNL     1      -2.751   9.852  15.324  0.00  0.00    +0.000 NA
ATOM     28  C   UNL     1      -3.860  10.552  15.392  0.00  0.00    +0.000 A 
ATOM     29  N   UNL     1      -3.943  11.155  16.611  0.00  0.00    +0.000 N 
ATOM     30  C   UNL     1      -5.038  11.954  17.091  0.00  0.00    +0.000 C 
ENDBRANCH  24  25
ENDBRANCH  23  24
ENDBRANCH   1  23
TORSDOF 4
ENDMDL
MODEL 3
REMARK VINA RESULT:      -8.2      5.019      7.543
REMARK  Name = 
REMARK  6 active torsions:
REMARK  status: ('A' for Active; 'I' for Inactive)
REMARK    1  A    between atoms: C_1  and  C_2
REMARK    2  A    between atoms: C_2  and  S_3
REMARK    3  A    between atoms: C_2  and  C_10
REMARK    4  A    between atoms: S_3  and  C_4
REMARK    5  A    between atoms: N_8  and  C_9
REMARK    6  A    between atoms: C_14  and  N_15
REMARK                            x       y       z     vdW  Elec       q    Type
REMARK                         _______ _______ _______ _____ _____    ______ ____
ROOT
ATOM      1  C   UNL     1       5.277   4.922  19.017  0.00  0.00    +0.000 A 
ATOM      2  C   UNL     1       4.785   3.678  19.442  0.00  0.00    +0.000 A 
ATOM      3  C   UNL     1       3.523   3.554  19.994  0.00  0.00    +0.000 A 
ATOM      4  C   UNL     1       2.715   4.678  20.158  0.00  0.00    +0.000 A 
ATOM      5  C   UNL     1       3.163   5.924  19.753  0.00  0.00    +0.000 A 
ATOM      6  C   UNL     1       4.418   6.042  19.147  0.00  0.00    +0.000 A 
ENDROOT
BRANCH   5   7
ATOM      7  N   UNL     1       2.383   7.072  19.957  0.00  0.00    +0.000 N 
ATOM      8  C   UNL     1       1.959   7.951  18.975  0.00  0.00    +0.000 C 
ATOM      9  O   UNL     1       2.199   7.880  17.781  0.00  0.00    +0.000 OA
ATOM     10  N   UNL     1       1.204   8.995  19.472  0.00  0.00    +0.000 N 
ATOM     11  C   UNL     1       0.851   9.235  20.842  0.00  0.00    +0.000 C 
ATOM     12  C   UNL     1      -0.217  10.301  20.742  0.00  0.00    +0.000 C 
ATOM     13  C   UNL     1       0.111  11.089  19.449  0.00  0.00    +0.000 C 
ATOM     14  C   UNL     1      -1.126  11.268  18.561  0.00  0.00    +0.000 C 
ATOM     15  N   UNL     1      -1.239  12.672  18.331  0.00  0.00    +0.000 N 
ATOM     16  C   UNL     1      -0.190  13.396  18.831  0.00  0.00    +0.000 C 
ATOM     17  O   UNL     1       0.022  14.573  18.595  0.00  0.00    +0.000 OA
ATOM     18  C   UNL     1       0.622  12.516  19.735  0.00  0.00    +0.000 C 
ATOM     19  C   UNL     1       1.170  10.236  18.734  0.00  0.00    +0.000 C 
ATOM     20  H   UNL     1       1.991   7.185  20.876  0.00  0.00    +0.000 HD
ATOM     21  H   UNL     1      -1.877  13.100  17.673  0.00  0.00    +0.000 HD
ENDBRANCH   5   7
BRANCH   1  23
ATOM     22  C   UNL     1       7.716   5.624  19.440  0.00  0.00    +0.000 C 
ATOM     23  C   UNL     1       6.671   5.143  18.426  0.00  0.00    +0.000 C 
BRANCH  23  24
ATOM     24  S   UNL     1       6.542   6.374  17.045  0.00  0.00    +0.000 S 
BRANCH  24  25
ATOM     25  C   UNL     1       6.649   5.390  15.633  0.00  0.00    +0.000 A 
ATOM     26  N   UNL     1       7.627   5.342  14.758  0.00  0.00    +0.000 NA
ATOM     27  N   UNL     1       7.218   4.524  13.725  0.00  0.00    +0.000 NA
ATOM     28  C   UNL     1       6.017   4.080  14.019  0.00  0.00    +0.000 A 
ATOM     29  N   UNL     1       5.641   4.560  15.236  0.00  0.00    +0.000 N 
ATOM     30  C   UNL     1       4.422   4.249  15.932  0.00  0.00    +0.000 C 
ENDBRANCH  24  25
ENDBRANCH  23  24
ENDBRANCH   1  23
TORSDOF 4
ENDMDL
MODEL 4
REMARK VINA RESULT:      -8.1      5.508      7.810
REMARK  Name = 
REMARK  6 active torsions:
REMARK  status: ('A' for Active; 'I' for Inactive)
REMARK    1  A    between atoms: C_1  and  C_2
REMARK    2  A    between atoms: C_2  and  S_3
REMARK    3  A    between atoms: C_2  and  C_10
REMARK    4  A    between atoms: S_3  and  C_4
REMARK    5  A    between atoms: N_8  and  C_9
REMARK    6  A    between atoms: C_14  and  N_15
REMARK                            x       y       z     vdW  Elec       q    Type
REMARK                         _______ _______ _______ _____ _____    ______ ____
ROOT
ATOM      1  C   UNL     1       4.259   5.713  17.450  0.00  0.00    +0.000 A 
ATOM      2  C   UNL     1       3.886   4.472  17.991  0.00  0.00    +0.000 A 
ATOM      3  C   UNL     1       2.884   4.372  18.938  0.00  0.00    +0.000 A 
ATOM      4  C   UNL     1       2.231   5.517  19.393  0.00  0.00    +0.000 A 
ATOM      5  C   UNL     1       2.569   6.760  18.886  0.00  0.00    +0.000 A 
ATOM      6  C   UNL     1       3.546   6.856  17.890  0.00  0.00    +0.000 A 
ENDROOT
BRANCH   5   7
ATOM      7  N   UNL     1       1.958   7.927  19.368  0.00  0.00    +0.000 N 
ATOM      8  C   UNL     1       1.592   9.026  18.611  0.00  0.00    +0.000 C 
ATOM      9  O   UNL     1       1.750   9.167  17.409  0.00  0.00    +0.000 OA
ATOM     10  N   UNL     1       1.010  10.031  19.359  0.00  0.00    +0.000 N 
ATOM     11  C   UNL     1       0.772  10.032  20.773  0.00  0.00    +0.000 C 
ATOM     12  C   UNL     1      -0.153  11.212  20.968  0.00  0.00    +0.000 C 
ATOM     13  C   UNL     1       0.197  12.199  19.825  0.00  0.00    +0.000 C 
ATOM     14  C   UNL     1      -1.058  12.692  19.093  0.00  0.00    +0.000 C 
ATOM     15  N   UNL     1      -1.002  14.117  19.145  0.00  0.00    +0.000 N 
ATOM     16  C   UNL     1       0.159  14.602  19.684  0.00  0.00    +0.000 C 
ATOM     17  O   UNL     1       0.507  15.769  19.659  0.00  0.00    +0.000 OA
ATOM     18  C   UNL     1       0.904  13.472  20.333  0.00  0.00    +0.000 C 
ATOM     19  C   UNL     1       1.092  11.389  18.875  0.00  0.00    +0.000 C 
ATOM     20  H   UNL     1       1.638   7.899  20.322  0.00  0.00    +0.000 HD
ATOM     21  H   UNL     1      -1.618  14.737  18.636  0.00  0.00    +0.000 HD
ENDBRANCH   5   7
BRANCH   1  23
ATOM     22  C   UNL     1       5.061   6.943  15.338  0.00  0.00    +0.000 C 
ATOM     23  C   UNL     1       5.376   5.905  16.422  0.00  0.00    +0.000 C 
BRANCH  23  24
ATOM     24  S   UNL     1       5.735   4.271  15.623  0.00  0.00    +0.000 S 
BRANCH  24  25
ATOM     25  C   UNL     1       6.831   4.686  14.358  0.00  0.00    +0.000 A 
ATOM     26  N   UNL     1       7.887   5.463  14.432  0.00  0.00    +0.000 NA
ATOM     27  N   UNL     1       8.374   5.621  13.150  0.00  0.00    +0.000 NA
ATOM     28  C   UNL     1       7.616   4.912  12.345  0.00  0.00    +0.000 A 
ATOM     29  N   UNL     1       6.662   4.265  13.071  0.00  0.00    +0.000 N 
ATOM     30  C   UNL     1       5.683   3.345  12.559  0.00  0.00    +0.000 C 
ENDBRANCH  24  25
ENDBRANCH  23  24
ENDBRANCH   1  23
TORSDOF 4
ENDMDL
MODEL 5
REMARK VINA RESULT:      -7.9      4.978      7.308
REMARK  Name = 
REMARK  6 active torsions:
REMARK  status: ('A' for Active; 'I' for Inactive)
REMARK    1  A    between atoms: C_1  and  C_2
REMARK    2  A    between atoms: C_2  and  S_3
REMARK    3  A    between atoms: C_2  and  C_10
REMARK    4  A    between atoms: S_3  and  C_4
REMARK    5  A    between atoms: N_8  and  C_9
REMARK    6  A    between atoms: C_14  and  N_15
REMARK                            x       y       z     vdW  Elec       q    Type
REMARK                         _______ _______ _______ _____ _____    ______ ____
ROOT
ATOM      1  C   UNL     1       4.266   5.164  17.544  0.00  0.00    +0.000 A 
ATOM      2  C   UNL     1       4.055   4.035  18.351  0.00  0.00    +0.000 A 
ATOM      3  C   UNL     1       3.198   4.076  19.436  0.00  0.00    +0.000 A 
ATOM      4  C   UNL     1       2.537   5.259  19.764  0.00  0.00    +0.000 A 
ATOM      5  C   UNL     1       2.719   6.395  18.995  0.00  0.00    +0.000 A 
ATOM      6  C   UNL     1       3.544   6.340  17.867  0.00  0.00    +0.000 A 
ENDROOT
BRANCH   5   7
ATOM      7  N   UNL     1       2.100   7.607  19.340  0.00  0.00    +0.000 N 
ATOM      8  C   UNL     1       1.859   8.668  18.485  0.00  0.00    +0.000 C 
ATOM      9  O   UNL     1       2.151   8.731  17.302  0.00  0.00    +0.000 OA
ATOM     10  N   UNL     1       1.234   9.732  19.106  0.00  0.00    +0.000 N 
ATOM     11  C   UNL     1       0.844   9.825  20.483  0.00  0.00    +0.000 C 
ATOM     12  C   UNL     1      -0.054  11.041  20.507  0.00  0.00    +0.000 C 
ATOM     13  C   UNL     1       0.453  11.947  19.356  0.00  0.00    +0.000 C 
ATOM     14  C   UNL     1      -0.697  12.431  18.463  0.00  0.00    +0.000 C 
ATOM     15  N   UNL     1      -0.596  13.855  18.440  0.00  0.00    +0.000 N 
ATOM     16  C   UNL     1       0.516  14.337  19.075  0.00  0.00    +0.000 C 
ATOM     17  O   UNL     1       0.905  15.491  19.023  0.00  0.00    +0.000 OA
ATOM     18  C   UNL     1       1.145  13.228  19.866  0.00  0.00    +0.000 C 
ATOM     19  C   UNL     1       1.417  11.056  18.558  0.00  0.00    +0.000 C 
ATOM     20  H   UNL     1       1.678   7.646  20.252  0.00  0.00    +0.000 HD
ATOM     21  H   UNL     1      -1.131  14.461  17.831  0.00  0.00    +0.000 HD
ENDBRANCH   5   7
BRANCH   1  23
ATOM     22  C   UNL     1       4.892   4.185  15.249  0.00  0.00    +0.000 C 
ATOM     23  C   UNL     1       5.219   5.204  16.348  0.00  0.00    +0.000 C 
BRANCH  23  24
ATOM     24  S   UNL     1       6.948   4.918  16.956  0.00  0.00    +0.000 S 
BRANCH  24  25
ATOM     25  C   UNL     1       7.431   6.479  17.507  0.00  0.00    +0.000 A 
ATOM     26  N   UNL     1       7.360   7.618  16.859  0.00  0.00    +0.000 NA
ATOM     27  N   UNL     1       7.990   8.573  17.632  0.00  0.00    +0.000 NA
ATOM     28  C   UNL     1       8.397   7.988  18.735  0.00  0.00    +0.000 A 
ATOM     29  N   UNL     1       8.021   6.679  18.721  0.00  0.00    +0.000 N 
ATOM     30  C   UNL     1       8.226   5.726  19.777  0.00  0.00    +0.000 C 
ENDBRANCH  24  25
ENDBRANCH  23  24
ENDBRANCH   1  23
TORSDOF 4
ENDMDL
MODEL 6
REMARK VINA RESULT:      -7.8      5.540      7.666
REMARK  Name = 
REMARK  6 active torsions:
REMARK  status: ('A' for Active; 'I' for Inactive)
REMARK    1  A    between atoms: C_1  and  C_2
REMARK    2  A    between atoms: C_2  and  S_3
REMARK    3  A    between atoms: C_2  and  C_10
REMARK    4  A    between atoms: S_3  and  C_4
REMARK    5  A    between atoms: N_8  and  C_9
REMARK    6  A    between atoms: C_14  and  N_15
REMARK                            x       y       z     vdW  Elec       q    Type
REMARK                         _______ _______ _______ _____ _____    ______ ____
ROOT
ATOM      1  C   UNL     1       5.018   4.510  17.254  0.00  0.00    +0.000 A 
ATOM      2  C   UNL     1       4.205   3.373  17.381  0.00  0.00    +0.000 A 
ATOM      3  C   UNL     1       2.859   3.480  17.678  0.00  0.00    +0.000 A 
ATOM      4  C   UNL     1       2.282   4.733  17.878  0.00  0.00    +0.000 A 
ATOM      5  C   UNL     1       3.049   5.880  17.764  0.00  0.00    +0.000 A 
ATOM      6  C   UNL     1       4.398   5.775  17.412  0.00  0.00    +0.000 A 
ENDROOT
BRANCH   5   7
ATOM      7  N   UNL     1       2.496   7.145  18.011  0.00  0.00    +0.000 N 
ATOM      8  C   UNL     1       2.098   7.632  19.245  0.00  0.00    +0.000 C 
ATOM      9  O   UNL     1       2.153   7.042  20.311  0.00  0.00    +0.000 OA
ATOM     10  N   UNL     1       1.587   8.913  19.183  0.00  0.00    +0.000 N 
ATOM     11  C   UNL     1       1.436   9.731  18.014  0.00  0.00    +0.000 C 
ATOM     12  C   UNL     1       1.140  11.100  18.585  0.00  0.00    +0.000 C 
ATOM     13  C   UNL     1       0.441  10.834  19.943  0.00  0.00    +0.000 C 
ATOM     14  C   UNL     1       1.059  11.665  21.074  0.00  0.00    +0.000 C 
ATOM     15  N   UNL     1      -0.024  12.382  21.664  0.00  0.00    +0.000 N 
ATOM     16  C   UNL     1      -1.250  12.036  21.163  0.00  0.00    +0.000 C 
ATOM     17  O   UNL     1      -2.320  12.375  21.638  0.00  0.00    +0.000 OA
ATOM     18  C   UNL     1      -1.055  11.209  19.926  0.00  0.00    +0.000 C 
ATOM     19  C   UNL     1       0.651   9.334  20.199  0.00  0.00    +0.000 C 
ATOM     20  H   UNL     1       2.519   7.798  17.246  0.00  0.00    +0.000 HD
ATOM     21  H   UNL     1       0.036  12.917  22.521  0.00  0.00    +0.000 HD
ENDBRANCH   5   7
BRANCH   1  23
ATOM     22  C   UNL     1       7.408   4.763  18.171  0.00  0.00    +0.000 C 
ATOM     23  C   UNL     1       6.518   4.470  16.957  0.00  0.00    +0.000 C 
BRANCH  23  24
ATOM     24  S   UNL     1       6.890   5.693  15.613  0.00  0.00    +0.000 S 
BRANCH  24  25
ATOM     25  C   UNL     1       6.593   4.793  14.172  0.00  0.00    +0.000 A 
ATOM     26  N   UNL     1       5.651   3.904  13.959  0.00  0.00    +0.000 NA
ATOM     27  N   UNL     1       5.885   3.342  12.720  0.00  0.00    +0.000 NA
ATOM     28  C   UNL     1       6.944   3.929  12.210  0.00  0.00    +0.000 A 
ATOM     29  N   UNL     1       7.391   4.886  13.070  0.00  0.00    +0.000 N 
ATOM     30  C   UNL     1       8.489   5.787  12.841  0.00  0.00    +0.000 C 
ENDBRANCH  24  25
ENDBRANCH  23  24
ENDBRANCH   1  23
TORSDOF 4
ENDMDL
MODEL 7
REMARK VINA RESULT:      -7.7      4.145      9.286
REMARK  Name = 
REMARK  6 active torsions:
REMARK  status: ('A' for Active; 'I' for Inactive)
REMARK    1  A    between atoms: C_1  and  C_2
REMARK    2  A    between atoms: C_2  and  S_3
REMARK    3  A    between atoms: C_2  and  C_10
REMARK    4  A    between atoms: S_3  and  C_4
REMARK    5  A    between atoms: N_8  and  C_9
REMARK    6  A    between atoms: C_14  and  N_15
REMARK                            x       y       z     vdW  Elec       q    Type
REMARK                         _______ _______ _______ _____ _____    ______ ____
ROOT
ATOM      1  C   UNL     1       9.364  12.429  20.593  0.00  0.00    +0.000 A 
ATOM      2  C   UNL     1      10.460  12.880  19.840  0.00  0.00    +0.000 A 
ATOM      3  C   UNL     1      11.016  12.102  18.841  0.00  0.00    +0.000 A 
ATOM      4  C   UNL     1      10.505  10.832  18.574  0.00  0.00    +0.000 A 
ATOM      5  C   UNL     1       9.426  10.350  19.295  0.00  0.00    +0.000 A 
ATOM      6  C   UNL     1       8.830  11.157  20.269  0.00  0.00    +0.000 A 
ENDROOT
BRANCH   5   7
ATOM      7  N   UNL     1       8.932   9.055  19.073  0.00  0.00    +0.000 N 
ATOM      8  C   UNL     1       8.112   8.666  18.029  0.00  0.00    +0.000 C 
ATOM      9  O   UNL     1       7.677   9.380  17.140  0.00  0.00    +0.000 OA
ATOM     10  N   UNL     1       7.782   7.325  18.069  0.00  0.00    +0.000 N 
ATOM     11  C   UNL     1       8.190   6.361  19.049  0.00  0.00    +0.000 C 
ATOM     12  C   UNL     1       7.807   5.042  18.417  0.00  0.00    +0.000 C 
ATOM     13  C   UNL     1       6.597   5.362  17.503  0.00  0.00    +0.000 C 
ATOM     14  C   UNL     1       6.771   4.771  16.099  0.00  0.00    +0.000 C 
ATOM     15  N   UNL     1       5.608   3.978  15.865  0.00  0.00    +0.000 N 
ATOM     16  C   UNL     1       4.666   4.079  16.853  0.00  0.00    +0.000 C 
ATOM     17  O   UNL     1       3.530   3.647  16.782  0.00  0.00    +0.000 OA
ATOM     18  C   UNL     1       5.275   4.773  18.037  0.00  0.00    +0.000 C 
ATOM     19  C   UNL     1       6.554   6.897  17.441  0.00  0.00    +0.000 C 
ATOM     20  H   UNL     1       9.320   8.327  19.649  0.00  0.00    +0.000 HD
ATOM     21  H   UNL     1       5.361   3.563  14.975  0.00  0.00    +0.000 HD
ENDBRANCH   5   7
BRANCH   1  23
ATOM     22  C   UNL     1       9.618  14.297  22.343  0.00  0.00    +0.000 C 
ATOM     23  C   UNL     1       8.715  13.220  21.731  0.00  0.00    +0.000 C 
BRANCH  23  24
ATOM     24  S   UNL     1       8.190  12.032  23.054  0.00  0.00    +0.000 S 
BRANCH  24  25
ATOM     25  C   UNL     1       6.888  12.857  23.827  0.00  0.00    +0.000 A 
ATOM     26  N   UNL     1       5.672  13.048  23.368  0.00  0.00    +0.000 NA
ATOM     27  N   UNL     1       5.020  13.877  24.259  0.00  0.00    +0.000 NA
ATOM     28  C   UNL     1       5.851  14.138  25.242  0.00  0.00    +0.000 A 
ATOM     29  N   UNL     1       7.022  13.474  25.036  0.00  0.00    +0.000 N 
ATOM     30  C   UNL     1       8.155  13.455  25.921  0.00  0.00    +0.000 C 
ENDBRANCH  24  25
ENDBRANCH  23  24
ENDBRANCH   1  23
TORSDOF 4
ENDMDL
MODEL 8
REMARK VINA RESULT:      -7.6      6.592      9.875
REMARK  Name = 
REMARK  6 active torsions:
REMARK  status: ('A' for Active; 'I' for Inactive)
REMARK    1  A    between atoms: C_1  and  C_2
REMARK    2  A    between atoms: C_2  and  S_3
REMARK    3  A    between atoms: C_2  and  C_10
REMARK    4  A    between atoms: S_3  and  C_4
REMARK    5  A    between atoms: N_8  and  C_9
REMARK    6  A    between atoms: C_14  and  N_15
REMARK                            x       y       z     vdW  Elec       q    Type
REMARK                         _______ _______ _______ _____ _____    ______ ____
ROOT
ATOM      1  C   UNL     1      -1.090  11.397  20.871  0.00  0.00    +0.000 A 
ATOM      2  C   UNL     1      -1.463  11.564  22.214  0.00  0.00    +0.000 A 
ATOM      3  C   UNL     1      -1.119  10.634  23.178  0.00  0.00    +0.000 A 
ATOM      4  C   UNL     1      -0.403   9.491  22.826  0.00  0.00    +0.000 A 
ATOM      5  C   UNL     1      -0.017   9.287  21.512  0.00  0.00    +0.000 A 
ATOM      6  C   UNL     1      -0.320  10.253  20.547  0.00  0.00    +0.000 A 
ENDROOT
BRANCH   5   7
ATOM      7  N   UNL     1       0.659   8.118  21.132  0.00  0.00    +0.000 N 
ATOM      8  C   UNL     1       1.742   8.049  20.272  0.00  0.00    +0.000 C 
ATOM      9  O   UNL     1       2.277   8.983  19.699  0.00  0.00    +0.000 OA
ATOM     10  N   UNL     1       2.201   6.760  20.082  0.00  0.00    +0.000 N 
ATOM     11  C   UNL     1       1.675   5.558  20.661  0.00  0.00    +0.000 C 
ATOM     12  C   UNL     1       2.744   4.532  20.361  0.00  0.00    +0.000 C 
ATOM     13  C   UNL     1       3.423   5.019  19.055  0.00  0.00    +0.000 C 
ATOM     14  C   UNL     1       4.952   5.019  19.173  0.00  0.00    +0.000 C 
ATOM     15  N   UNL     1       5.425   4.234  18.079  0.00  0.00    +0.000 N 
ATOM     16  C   UNL     1       4.438   3.844  17.215  0.00  0.00    +0.000 C 
ATOM     17  O   UNL     1       4.625   3.334  16.125  0.00  0.00    +0.000 OA
ATOM     18  C   UNL     1       3.103   4.116  17.846  0.00  0.00    +0.000 C 
ATOM     19  C   UNL     1       2.897   6.449  18.855  0.00  0.00    +0.000 C 
ATOM     20  H   UNL     1       0.418   7.281  21.635  0.00  0.00    +0.000 HD
ATOM     21  H   UNL     1       6.395   4.153  17.804  0.00  0.00    +0.000 HD
ENDBRANCH   5   7
BRANCH   1  23
ATOM     22  C   UNL     1      -1.215  13.842  20.081  0.00  0.00    +0.000 C 
ATOM     23  C   UNL     1      -1.459  12.366  19.746  0.00  0.00    +0.000 C 
BRANCH  23  24
ATOM     24  S   UNL     1      -3.245  12.120  19.312  0.00  0.00    +0.000 S 
BRANCH  24  25
ATOM     25  C   UNL     1      -3.173  11.404  17.746  0.00  0.00    +0.000 A 
ATOM     26  N   UNL     1      -2.159  10.782  17.192  0.00  0.00    +0.000 NA
ATOM     27  N   UNL     1      -2.507  10.503  15.886  0.00  0.00    +0.000 NA
ATOM     28  C   UNL     1      -3.731  10.940  15.698  0.00  0.00    +0.000 A 
ATOM     29  N   UNL     1      -4.208  11.469  16.859  0.00  0.00    +0.000 N 
ATOM     30  C   UNL     1      -5.530  11.992  17.074  0.00  0.00    +0.000 C 
ENDBRANCH  24  25
ENDBRANCH  23  24
ENDBRANCH   1  23
TORSDOF 4
ENDMDL
MODEL 9
REMARK VINA RESULT:      -7.6      4.037      9.699
REMARK  Name = 
REMARK  6 active torsions:
REMARK  status: ('A' for Active; 'I' for Inactive)
REMARK    1  A    between atoms: C_1  and  C_2
REMARK    2  A    between atoms: C_2  and  S_3
REMARK    3  A    between atoms: C_2  and  C_10
REMARK    4  A    between atoms: S_3  and  C_4
REMARK    5  A    between atoms: N_8  and  C_9
REMARK    6  A    between atoms: C_14  and  N_15
REMARK                            x       y       z     vdW  Elec       q    Type
REMARK                         _______ _______ _______ _____ _____    ______ ____
ROOT
ATOM      1  C   UNL     1       9.759  12.086  20.555  0.00  0.00    +0.000 A 
ATOM      2  C   UNL     1      10.392  12.704  19.465  0.00  0.00    +0.000 A 
ATOM      3  C   UNL     1      10.487  12.076  18.237  0.00  0.00    +0.000 A 
ATOM      4  C   UNL     1       9.967  10.794  18.062  0.00  0.00    +0.000 A 
ATOM      5  C   UNL     1       9.337  10.149  19.112  0.00  0.00    +0.000 A 
ATOM      6  C   UNL     1       9.194  10.804  20.339  0.00  0.00    +0.000 A 
ENDROOT
BRANCH   5   7
ATOM      7  N   UNL     1       8.852   8.840  18.967  0.00  0.00    +0.000 N 
ATOM      8  C   UNL     1       8.007   8.392  17.967  0.00  0.00    +0.000 C 
ATOM      9  O   UNL     1       7.537   9.057  17.059  0.00  0.00    +0.000 OA
ATOM     10  N   UNL     1       7.696   7.051  18.081  0.00  0.00    +0.000 N 
ATOM     11  C   UNL     1       8.145   6.139  19.094  0.00  0.00    +0.000 C 
ATOM     12  C   UNL     1       7.760   4.787  18.538  0.00  0.00    +0.000 C 
ATOM     13  C   UNL     1       6.520   5.049  17.647  0.00  0.00    +0.000 C 
ATOM     14  C   UNL     1       6.660   4.393  16.267  0.00  0.00    +0.000 C 
ATOM     15  N   UNL     1       5.501   3.576  16.107  0.00  0.00    +0.000 N 
ATOM     16  C   UNL     1       4.587   3.715  17.117  0.00  0.00    +0.000 C 
ATOM     17  O   UNL     1       3.455   3.266  17.100  0.00  0.00    +0.000 OA
ATOM     18  C   UNL     1       5.222   4.471  18.247  0.00  0.00    +0.000 C 
ATOM     19  C   UNL     1       6.455   6.578  17.512  0.00  0.00    +0.000 C 
ATOM     20  H   UNL     1       9.267   8.144  19.565  0.00  0.00    +0.000 HD
ATOM     21  H   UNL     1       5.233   3.117  15.246  0.00  0.00    +0.000 HD
ENDBRANCH   5   7
BRANCH   1  23
ATOM     22  C   UNL     1       8.424  12.225  22.750  0.00  0.00    +0.000 C 
ATOM     23  C   UNL     1       9.641  12.704  21.950  0.00  0.00    +0.000 C 
BRANCH  23  24
ATOM     24  S   UNL     1       9.575  14.550  21.776  0.00  0.00    +0.000 S 
BRANCH  24  25
ATOM     25  C   UNL     1       7.916  14.850  21.420  0.00  0.00    +0.000 A 
ATOM     26  N   UNL     1       7.285  14.641  20.287  0.00  0.00    +0.000 NA
ATOM     27  N   UNL     1       6.013  15.159  20.419  0.00  0.00    +0.000 NA
ATOM     28  C   UNL     1       5.903  15.640  21.637  0.00  0.00    +0.000 A 
ATOM     29  N   UNL     1       7.062  15.421  22.318  0.00  0.00    +0.000 N 
ATOM     30  C   UNL     1       7.311  15.745  23.697  0.00  0.00    +0.000 C 
ENDBRANCH  24  25
ENDBRANCH  23  24
ENDBRANCH   1  23
TORSDOF 4
ENDMDL
