MODEL 1
REMARK VINA RESULT:      -9.3      0.000      0.000
REMARK  Name = 
REMARK  10 active torsions:
REMARK  status: ('A' for Active; 'I' for Inactive)
REMARK    1  A    between atoms: C_1  and  N_2
REMARK    2  A    between atoms: C_6  and  C_7
REMARK    3  A    between atoms: C_7  and  C_8
REMARK    4  A    between atoms: C_8  and  C_9
REMARK    5  A    between atoms: C_13  and  N_14
REMARK    6  A    between atoms: C_19  and  C_20
REMARK    7  A    between atoms: C_20  and  N_21
REMARK    8  A    between atoms: C_24  and  C_25
REMARK    9  A    between atoms: C_24  and  C_26
REMARK   10  A    between atoms: C_31  and  C_32
REMARK                            x       y       z     vdW  Elec       q    Type
REMARK                         _______ _______ _______ _____ _____    ______ ____
ROOT
ATOM      1  N   UNL     1       2.166   7.398  18.878  0.00  0.00    +0.000 N 
ATOM      2  C   UNL     1       1.483   7.718  20.110  0.00  0.00    +0.000 C 
ATOM      3  C   UNL     1       1.242   9.164  20.039  0.00  0.00    +0.000 A 
ATOM      4  C   UNL     1       1.652   9.665  18.805  0.00  0.00    +0.000 A 
ATOM      5  C   UNL     1       1.392  10.988  18.477  0.00  0.00    +0.000 A 
ATOM      6  C   UNL     1       0.730  11.797  19.440  0.00  0.00    +0.000 A 
ATOM      7  C   UNL     1       0.393  11.262  20.711  0.00  0.00    +0.000 A 
ATOM      8  C   UNL     1       0.652   9.930  21.032  0.00  0.00    +0.000 A 
ATOM      9  C   UNL     1       2.342   8.540  18.088  0.00  0.00    +0.000 C 
ATOM     10  O   UNL     1       2.935   8.668  17.032  0.00  0.00    +0.000 OA
ENDROOT
BRANCH   1  15
ATOM     11  C   UNL     1       4.381   4.705  17.554  0.00  0.00    +0.000 A 
ATOM     12  C   UNL     1       3.776   3.589  18.148  0.00  0.00    +0.000 A 
ATOM     13  C   UNL     1       2.732   3.729  19.086  0.00  0.00    +0.000 A 
ATOM     14  C   UNL     1       2.228   4.987  19.449  0.00  0.00    +0.000 A 
ATOM     15  C   UNL     1       2.764   6.113  18.843  0.00  0.00    +0.000 A 
ATOM     16  C   UNL     1       3.864   5.940  17.970  0.00  0.00    +0.000 A 
BRANCH  11  17
ATOM     17  C   UNL     1       5.547   4.675  16.430  0.00  0.00    +0.000 C 
ATOM     18  C   UNL     1       5.323   5.582  15.174  0.00  0.00    +0.000 C 
ATOM     19  O   UNL     1       5.366   4.453  14.277  0.00  0.00    +0.000 OA
ATOM     20  C   UNL     1       5.522   3.535  15.376  0.00  0.00    +0.000 C 
BRANCH  17  21
ATOM     21  C   UNL     1       6.941   4.786  17.078  0.00  0.00    +0.000 C 
BRANCH  21  27
ATOM     22  C   UNL     1       8.107   5.689  19.868  0.00  0.00    +0.000 C 
ATOM     23  N   UNL     1       7.906   6.509  18.702  0.00  0.00    +0.000 N 
ATOM     24  C   UNL     1       8.268   7.816  18.592  0.00  0.00    +0.000 A 
ATOM     25  N   UNL     1       7.894   8.277  17.422  0.00  0.00    +0.000 NA
ATOM     26  N   UNL     1       7.308   7.241  16.740  0.00  0.00    +0.000 NA
ATOM     27  C   UNL     1       7.345   6.163  17.497  0.00  0.00    +0.000 A 
ENDBRANCH  21  27
ENDBRANCH  17  21
ENDBRANCH  11  17
ENDBRANCH   1  15
BRANCH   8  28
ATOM     28  C   UNL     1       0.309   9.363  22.388  0.00  0.00    +0.000 C 
ATOM     29  F   UNL     1      -0.605   8.346  22.347  0.00  0.00    +0.000 F 
ATOM     30  F   UNL     1       1.388   8.847  23.029  0.00  0.00    +0.000 F 
ATOM     31  F   UNL     1      -0.229  10.292  23.223  0.00  0.00    +0.000 F 
ENDBRANCH   8  28
BRANCH   6  32
ATOM     32  C   UNL     1       0.298  13.227  19.155  0.00  0.00    +0.000 C 
BRANCH  32  33
ATOM     33  N   UNL     1       0.825  14.179  20.150  0.00  0.00    +0.000 NA
ATOM     34  C   UNL     1       2.275  14.091  20.334  0.00  0.00    +0.000 C 
ATOM     35  C   UNL     1       3.063  14.577  19.113  0.00  0.00    +0.000 C 
ATOM     36  C   UNL     1       2.600  15.962  18.624  0.00  0.00    +0.000 C 
ATOM     37  C   UNL     1       3.153  16.274  17.218  0.00  0.00    +0.000 C 
ATOM     38  C   UNL     1       1.078  16.150  18.641  0.00  0.00    +0.000 C 
ATOM     39  C   UNL     1       0.429  15.567  19.898  0.00  0.00    +0.000 C 
BRANCH  36  40
ATOM     40  C   UNL     1       3.245  17.015  19.510  0.00  0.00    +0.000 C 
ATOM     41  N   UNL     1       3.778  17.889  20.246  0.00  0.00    +0.000 NA
ENDBRANCH  36  40
ENDBRANCH  32  33
ENDBRANCH   6  32
TORSDOF 8
ENDMDL
MODEL 2
REMARK VINA RESULT:      -9.3      3.426      9.692
REMARK  Name = 
REMARK  10 active torsions:
REMARK  status: ('A' for Active; 'I' for Inactive)
REMARK    1  A    between atoms: C_1  and  N_2
REMARK    2  A    between atoms: C_6  and  C_7
REMARK    3  A    between atoms: C_7  and  C_8
REMARK    4  A    between atoms: C_8  and  C_9
REMARK    5  A    between atoms: C_13  and  N_14
REMARK    6  A    between atoms: C_19  and  C_20
REMARK    7  A    between atoms: C_20  and  N_21
REMARK    8  A    between atoms: C_24  and  C_25
REMARK    9  A    between atoms: C_24  and  C_26
REMARK   10  A    between atoms: C_31  and  C_32
REMARK                            x       y       z     vdW  Elec       q    Type
REMARK                         _______ _______ _______ _____ _____    ______ ____
ROOT
ATOM      1  N   UNL     1       1.307   8.174  20.409  0.00  0.00    +0.000 N 
ATOM      2  C   UNL     1       1.438   6.853  20.977  0.00  0.00    +0.000 C 
ATOM      3  C   UNL     1       2.144   6.074  19.952  0.00  0.00    +0.000 A 
ATOM      4  C   UNL     1       2.510   6.893  18.886  0.00  0.00    +0.000 A 
ATOM      5  C   UNL     1       3.305   6.386  17.867  0.00  0.00    +0.000 A 
ATOM      6  C   UNL     1       3.698   5.023  17.943  0.00  0.00    +0.000 A 
ATOM      7  C   UNL     1       3.244   4.207  19.014  0.00  0.00    +0.000 A 
ATOM      8  C   UNL     1       2.450   4.725  20.036  0.00  0.00    +0.000 A 
ATOM      9  C   UNL     1       1.881   8.234  19.134  0.00  0.00    +0.000 C 
ATOM     10  O   UNL     1       1.893   9.150  18.332  0.00  0.00    +0.000 OA
ENDROOT
BRANCH   1  15
ATOM     11  C   UNL     1      -0.855  11.180  20.862  0.00  0.00    +0.000 A 
ATOM     12  C   UNL     1      -0.968  11.181  22.259  0.00  0.00    +0.000 A 
ATOM     13  C   UNL     1      -0.452  10.126  23.040  0.00  0.00    +0.000 A 
ATOM     14  C   UNL     1       0.223   9.040  22.462  0.00  0.00    +0.000 A 
ATOM     15  C   UNL     1       0.402   9.028  21.088  0.00  0.00    +0.000 A 
ATOM     16  C   UNL     1      -0.200  10.060  20.329  0.00  0.00    +0.000 A 
BRANCH  11  17
ATOM     17  C   UNL     1      -1.357  12.352  19.861  0.00  0.00    +0.000 C 
ATOM     18  C   UNL     1      -0.363  12.764  18.724  0.00  0.00    +0.000 C 
ATOM     19  O   UNL     1      -0.298  14.126  19.195  0.00  0.00    +0.000 OA
ATOM     20  C   UNL     1      -1.165  13.827  20.304  0.00  0.00    +0.000 C 
BRANCH  17  21
ATOM     21  C   UNL     1      -2.808  12.104  19.406  0.00  0.00    +0.000 C 
BRANCH  21  27
ATOM     22  C   UNL     1      -5.347  12.051  17.532  0.00  0.00    +0.000 C 
ATOM     23  N   UNL     1      -4.060  11.461  17.271  0.00  0.00    +0.000 N 
ATOM     24  C   UNL     1      -3.703  10.840  16.114  0.00  0.00    +0.000 A 
ATOM     25  N   UNL     1      -2.483  10.371  16.228  0.00  0.00    +0.000 NA
ATOM     26  N   UNL     1      -2.020  10.724  17.469  0.00  0.00    +0.000 NA
ATOM     27  C   UNL     1      -2.958  11.412  18.090  0.00  0.00    +0.000 A 
ENDBRANCH  21  27
ENDBRANCH  17  21
ENDBRANCH  11  17
ENDBRANCH   1  15
BRANCH   8  28
ATOM     28  C   UNL     1       1.953   3.857  21.167  0.00  0.00    +0.000 C 
ATOM     29  F   UNL     1       2.304   4.311  22.408  0.00  0.00    +0.000 F 
ATOM     30  F   UNL     1       0.600   3.755  21.194  0.00  0.00    +0.000 F 
ATOM     31  F   UNL     1       2.434   2.587  21.102  0.00  0.00    +0.000 F 
ENDBRANCH   8  28
BRANCH   6  32
ATOM     32  C   UNL     1       4.653   4.386  16.946  0.00  0.00    +0.000 C 
BRANCH  32  33
ATOM     33  N   UNL     1       5.787   5.269  16.616  0.00  0.00    +0.000 NA
ATOM     34  C   UNL     1       7.045   4.549  16.400  0.00  0.00    +0.000 C 
ATOM     35  C   UNL     1       7.036   3.700  15.125  0.00  0.00    +0.000 C 
ATOM     36  C   UNL     1       6.577   4.495  13.888  0.00  0.00    +0.000 C 
ATOM     37  C   UNL     1       6.248   3.557  12.709  0.00  0.00    +0.000 C 
ATOM     38  C   UNL     1       5.392   5.431  14.158  0.00  0.00    +0.000 C 
ATOM     39  C   UNL     1       5.519   6.169  15.492  0.00  0.00    +0.000 C 
BRANCH  36  40
ATOM     40  C   UNL     1       7.756   5.312  13.386  0.00  0.00    +0.000 C 
ATOM     41  N   UNL     1       8.735   5.988  12.969  0.00  0.00    +0.000 NA
ENDBRANCH  36  40
ENDBRANCH  32  33
ENDBRANCH   6  32
TORSDOF 8
ENDMDL
MODEL 3
REMARK VINA RESULT:      -9.1      2.643      9.366
REMARK  Name = 
REMARK  10 active torsions:
REMARK  status: ('A' for Active; 'I' for Inactive)
REMARK    1  A    between atoms: C_1  and  N_2
REMARK    2  A    between atoms: C_6  and  C_7
REMARK    3  A    between atoms: C_7  and  C_8
REMARK    4  A    between atoms: C_8  and  C_9
REMARK    5  A    between atoms: C_13  and  N_14
REMARK    6  A    between atoms: C_19  and  C_20
REMARK    7  A    between atoms: C_20  and  N_21
REMARK    8  A    between atoms: C_24  and  C_25
REMARK    9  A    between atoms: C_24  and  C_26
REMARK   10  A    between atoms: C_31  and  C_32
REMARK                            x       y       z     vdW  Elec       q    Type
REMARK                         _______ _______ _______ _____ _____    ______ ____
ROOT
ATOM      1  N   UNL     1       1.366   8.054  20.470  0.00  0.00    +0.000 N 
ATOM      2  C   UNL     1       1.436   6.702  20.973  0.00  0.00    +0.000 C 
ATOM      3  C   UNL     1       2.148   5.951  19.931  0.00  0.00    +0.000 A 
ATOM      4  C   UNL     1       2.574   6.810  18.920  0.00  0.00    +0.000 A 
ATOM      5  C   UNL     1       3.382   6.327  17.900  0.00  0.00    +0.000 A 
ATOM      6  C   UNL     1       3.728   4.949  17.918  0.00  0.00    +0.000 A 
ATOM      7  C   UNL     1       3.214   4.097  18.932  0.00  0.00    +0.000 A 
ATOM      8  C   UNL     1       2.405   4.590  19.956  0.00  0.00    +0.000 A 
ATOM      9  C   UNL     1       1.982   8.158  19.218  0.00  0.00    +0.000 C 
ATOM     10  O   UNL     1       2.050   9.112  18.464  0.00  0.00    +0.000 OA
ENDROOT
BRANCH   1  15
ATOM     11  C   UNL     1      -0.778  11.065  20.973  0.00  0.00    +0.000 A 
ATOM     12  C   UNL     1      -0.883  11.048  22.371  0.00  0.00    +0.000 A 
ATOM     13  C   UNL     1      -0.368   9.980  23.136  0.00  0.00    +0.000 A 
ATOM     14  C   UNL     1       0.298   8.898  22.541  0.00  0.00    +0.000 A 
ATOM     15  C   UNL     1       0.469   8.903  21.165  0.00  0.00    +0.000 A 
ATOM     16  C   UNL     1      -0.131   9.948  20.423  0.00  0.00    +0.000 A 
BRANCH  11  17
ATOM     17  C   UNL     1      -1.278  12.251  19.991  0.00  0.00    +0.000 C 
ATOM     18  C   UNL     1      -2.789  12.222  19.582  0.00  0.00    +0.000 C 
ATOM     19  O   UNL     1      -2.469  12.116  18.180  0.00  0.00    +0.000 OA
ATOM     20  C   UNL     1      -1.057  12.082  18.463  0.00  0.00    +0.000 C 
BRANCH  17  21
ATOM     21  C   UNL     1      -0.755  13.620  20.469  0.00  0.00    +0.000 C 
BRANCH  21  27
ATOM     22  C   UNL     1      -0.286  16.171  18.672  0.00  0.00    +0.000 C 
ATOM     23  N   UNL     1       0.704  15.223  19.112  0.00  0.00    +0.000 N 
ATOM     24  C   UNL     1       2.041  15.322  18.881  0.00  0.00    +0.000 A 
ATOM     25  N   UNL     1       2.649  14.268  19.372  0.00  0.00    +0.000 NA
ATOM     26  N   UNL     1       1.695  13.482  19.964  0.00  0.00    +0.000 NA
ATOM     27  C   UNL     1       0.523  14.072  19.840  0.00  0.00    +0.000 A 
ENDBRANCH  21  27
ENDBRANCH  17  21
ENDBRANCH  11  17
ENDBRANCH   1  15
BRANCH   8  28
ATOM     28  C   UNL     1       1.845   3.684  21.025  0.00  0.00    +0.000 C 
ATOM     29  F   UNL     1       2.273   3.988  22.288  0.00  0.00    +0.000 F 
ATOM     30  F   UNL     1       0.490   3.724  21.089  0.00  0.00    +0.000 F 
ATOM     31  F   UNL     1       2.184   2.381  20.837  0.00  0.00    +0.000 F 
ENDBRANCH   8  28
BRANCH   6  32
ATOM     32  C   UNL     1       4.692   4.330  16.918  0.00  0.00    +0.000 C 
BRANCH  32  33
ATOM     33  N   UNL     1       5.795   5.243  16.567  0.00  0.00    +0.000 NA
ATOM     34  C   UNL     1       7.072   4.560  16.347  0.00  0.00    +0.000 C 
ATOM     35  C   UNL     1       7.077   3.696  15.081  0.00  0.00    +0.000 C 
ATOM     36  C   UNL     1       6.581   4.463  13.841  0.00  0.00    +0.000 C 
ATOM     37  C   UNL     1       6.270   3.501  12.675  0.00  0.00    +0.000 C 
ATOM     38  C   UNL     1       5.372   5.366  14.111  0.00  0.00    +0.000 C 
ATOM     39  C   UNL     1       5.489   6.122  15.436  0.00  0.00    +0.000 C 
BRANCH  36  40
ATOM     40  C   UNL     1       7.730   5.309  13.317  0.00  0.00    +0.000 C 
ATOM     41  N   UNL     1       8.684   6.010  12.884  0.00  0.00    +0.000 NA
ENDBRANCH  36  40
ENDBRANCH  32  33
ENDBRANCH   6  32
TORSDOF 8
ENDMDL
MODEL 4
REMARK VINA RESULT:      -9.1      1.542      2.515
REMARK  Name = 
REMARK  10 active torsions:
REMARK  status: ('A' for Active; 'I' for Inactive)
REMARK    1  A    between atoms: C_1  and  N_2
REMARK    2  A    between atoms: C_6  and  C_7
REMARK    3  A    between atoms: C_7  and  C_8
REMARK    4  A    between atoms: C_8  and  C_9
REMARK    5  A    between atoms: C_13  and  N_14
REMARK    6  A    between atoms: C_19  and  C_20
REMARK    7  A    between atoms: C_20  and  N_21
REMARK    8  A    between atoms: C_24  and  C_25
REMARK    9  A    between atoms: C_24  and  C_26
REMARK   10  A    between atoms: C_31  and  C_32
REMARK                            x       y       z     vdW  Elec       q    Type
REMARK                         _______ _______ _______ _____ _____    ______ ____
ROOT
ATOM      1  N   UNL     1       2.128   7.323  18.562  0.00  0.00    +0.000 N 
ATOM      2  C   UNL     1       1.463   7.605  19.813  0.00  0.00    +0.000 C 
ATOM      3  C   UNL     1       1.306   9.064  19.832  0.00  0.00    +0.000 A 
ATOM      4  C   UNL     1       1.747   9.616  18.630  0.00  0.00    +0.000 A 
ATOM      5  C   UNL     1       1.566  10.970  18.385  0.00  0.00    +0.000 A 
ATOM      6  C   UNL     1       0.950  11.755  19.397  0.00  0.00    +0.000 A 
ATOM      7  C   UNL     1       0.580  11.163  20.634  0.00  0.00    +0.000 A 
ATOM      8  C   UNL     1       0.761   9.800  20.871  0.00  0.00    +0.000 A 
ATOM      9  C   UNL     1       2.372   8.499  17.844  0.00  0.00    +0.000 C 
ATOM     10  O   UNL     1       2.973   8.658  16.797  0.00  0.00    +0.000 OA
ENDROOT
BRANCH   1  15
ATOM     11  C   UNL     1       4.549   4.701  17.476  0.00  0.00    +0.000 A 
ATOM     12  C   UNL     1       3.735   3.566  17.590  0.00  0.00    +0.000 A 
ATOM     13  C   UNL     1       2.442   3.641  18.150  0.00  0.00    +0.000 A 
ATOM     14  C   UNL     1       1.897   4.855  18.593  0.00  0.00    +0.000 A 
ATOM     15  C   UNL     1       2.650   6.010  18.447  0.00  0.00    +0.000 A 
ATOM     16  C   UNL     1       3.972   5.885  17.958  0.00  0.00    +0.000 A 
BRANCH  11  17
ATOM     17  C   UNL     1       6.023   4.756  16.807  0.00  0.00    +0.000 C 
ATOM     18  C   UNL     1       7.235   4.592  17.784  0.00  0.00    +0.000 C 
ATOM     19  O   UNL     1       7.768   5.886  17.435  0.00  0.00    +0.000 OA
ATOM     20  C   UNL     1       6.662   6.148  16.551  0.00  0.00    +0.000 C 
BRANCH  17  21
ATOM     21  C   UNL     1       6.085   3.887  15.535  0.00  0.00    +0.000 C 
BRANCH  21  27
ATOM     22  C   UNL     1       5.772   3.287  12.453  0.00  0.00    +0.000 C 
ATOM     23  N   UNL     1       6.680   4.218  13.071  0.00  0.00    +0.000 N 
ATOM     24  C   UNL     1       7.512   5.062  12.402  0.00  0.00    +0.000 A 
ATOM     25  N   UNL     1       8.239   5.733  13.263  0.00  0.00    +0.000 NA
ATOM     26  N   UNL     1       7.850   5.346  14.520  0.00  0.00    +0.000 NA
ATOM     27  C   UNL     1       6.884   4.456  14.408  0.00  0.00    +0.000 A 
ENDBRANCH  21  27
ENDBRANCH  17  21
ENDBRANCH  11  17
ENDBRANCH   1  15
BRANCH   8  28
ATOM     28  C   UNL     1       0.382   9.172  22.190  0.00  0.00    +0.000 C 
ATOM     29  F   UNL     1      -0.053  10.069  23.126  0.00  0.00    +0.000 F 
ATOM     30  F   UNL     1      -0.622   8.267  22.071  0.00  0.00    +0.000 F 
ATOM     31  F   UNL     1       1.421   8.519  22.777  0.00  0.00    +0.000 F 
ENDBRANCH   8  28
BRANCH   6  32
ATOM     32  C   UNL     1       0.602  13.222  19.202  0.00  0.00    +0.000 C 
BRANCH  32  33
ATOM     33  N   UNL     1       1.275  14.092  20.185  0.00  0.00    +0.000 NA
ATOM     34  C   UNL     1       2.737  14.012  20.132  0.00  0.00    +0.000 C 
ATOM     35  C   UNL     1       3.322  14.617  18.851  0.00  0.00    +0.000 C 
ATOM     36  C   UNL     1       2.785  16.032  18.566  0.00  0.00    +0.000 C 
ATOM     37  C   UNL     1       3.111  16.476  17.125  0.00  0.00    +0.000 C 
ATOM     38  C   UNL     1       1.284  16.192  18.837  0.00  0.00    +0.000 C 
ATOM     39  C   UNL     1       0.841  15.489  20.122  0.00  0.00    +0.000 C 
BRANCH  36  40
ATOM     40  C   UNL     1       3.557  17.014  19.433  0.00  0.00    +0.000 C 
ATOM     41  N   UNL     1       4.197  17.827  20.152  0.00  0.00    +0.000 NA
ENDBRANCH  36  40
ENDBRANCH  32  33
ENDBRANCH   6  32
TORSDOF 8
ENDMDL
MODEL 5
REMARK VINA RESULT:      -9.0      0.930      1.478
REMARK  Name = 
REMARK  10 active torsions:
REMARK  status: ('A' for Active; 'I' for Inactive)
REMARK    1  A    between atoms: C_1  and  N_2
REMARK    2  A    between atoms: C_6  and  C_7
REMARK    3  A    between atoms: C_7  and  C_8
REMARK    4  A    between atoms: C_8  and  C_9
REMARK    5  A    between atoms: C_13  and  N_14
REMARK    6  A    between atoms: C_19  and  C_20
REMARK    7  A    between atoms: C_20  and  N_21
REMARK    8  A    between atoms: C_24  and  C_25
REMARK    9  A    between atoms: C_24  and  C_26
REMARK   10  A    between atoms: C_31  and  C_32
REMARK                            x       y       z     vdW  Elec       q    Type
REMARK                         _______ _______ _______ _____ _____    ______ ____
ROOT
ATOM      1  N   UNL     1       2.180   7.408  19.126  0.00  0.00    +0.000 N 
ATOM      2  C   UNL     1       1.527   7.745  20.369  0.00  0.00    +0.000 C 
ATOM      3  C   UNL     1       1.095   9.138  20.200  0.00  0.00    +0.000 A 
ATOM      4  C   UNL     1       1.371   9.577  18.906  0.00  0.00    +0.000 A 
ATOM      5  C   UNL     1       0.925  10.824  18.491  0.00  0.00    +0.000 A 
ATOM      6  C   UNL     1       0.214  11.624  19.427  0.00  0.00    +0.000 A 
ATOM      7  C   UNL     1       0.016  11.163  20.755  0.00  0.00    +0.000 A 
ATOM      8  C   UNL     1       0.464   9.907  21.163  0.00  0.00    +0.000 A 
ATOM      9  C   UNL     1       2.164   8.490  18.239  0.00  0.00    +0.000 C 
ATOM     10  O   UNL     1       2.680   8.600  17.141  0.00  0.00    +0.000 OA
ENDROOT
BRANCH   1  15
ATOM     11  C   UNL     1       4.565   4.851  17.826  0.00  0.00    +0.000 A 
ATOM     12  C   UNL     1       4.192   3.757  18.619  0.00  0.00    +0.000 A 
ATOM     13  C   UNL     1       3.258   3.891  19.668  0.00  0.00    +0.000 A 
ATOM     14  C   UNL     1       2.636   5.116  19.951  0.00  0.00    +0.000 A 
ATOM     15  C   UNL     1       2.938   6.210  19.156  0.00  0.00    +0.000 A 
ATOM     16  C   UNL     1       3.939   6.059  18.167  0.00  0.00    +0.000 A 
BRANCH  11  17
ATOM     17  C   UNL     1       5.581   4.816  16.565  0.00  0.00    +0.000 C 
ATOM     18  C   UNL     1       5.188   5.699  15.334  0.00  0.00    +0.000 C 
ATOM     19  O   UNL     1       5.133   4.555  14.456  0.00  0.00    +0.000 OA
ATOM     20  C   UNL     1       5.439   3.658  15.540  0.00  0.00    +0.000 C 
BRANCH  17  21
ATOM     21  C   UNL     1       7.043   4.954  17.031  0.00  0.00    +0.000 C 
BRANCH  21  27
ATOM     22  C   UNL     1       8.173   5.744  19.870  0.00  0.00    +0.000 C 
ATOM     23  N   UNL     1       7.982   6.611  18.737  0.00  0.00    +0.000 N 
ATOM     24  C   UNL     1       8.340   7.923  18.686  0.00  0.00    +0.000 A 
ATOM     25  N   UNL     1       7.978   8.431  17.531  0.00  0.00    +0.000 NA
ATOM     26  N   UNL     1       7.404   7.423  16.800  0.00  0.00    +0.000 NA
ATOM     27  C   UNL     1       7.436   6.313  17.512  0.00  0.00    +0.000 A 
ENDBRANCH  21  27
ENDBRANCH  17  21
ENDBRANCH  11  17
ENDBRANCH   1  15
BRANCH   8  28
ATOM     28  C   UNL     1       0.268   9.421  22.579  0.00  0.00    +0.000 C 
ATOM     29  F   UNL     1      -0.546   8.326  22.681  0.00  0.00    +0.000 F 
ATOM     30  F   UNL     1       1.432   9.056  23.173  0.00  0.00    +0.000 F 
ATOM     31  F   UNL     1      -0.297  10.361  23.382  0.00  0.00    +0.000 F 
ENDBRANCH   8  28
BRANCH   6  32
ATOM     32  C   UNL     1      -0.416  12.958  19.057  0.00  0.00    +0.000 C 
BRANCH  32  33
ATOM     33  N   UNL     1       0.583  13.936  18.588  0.00  0.00    +0.000 NA
ATOM     34  C   UNL     1       0.014  15.249  18.276  0.00  0.00    +0.000 C 
ATOM     35  C   UNL     1      -0.475  15.999  19.520  0.00  0.00    +0.000 C 
ATOM     36  C   UNL     1       0.586  16.051  20.634  0.00  0.00    +0.000 C 
ATOM     37  C   UNL     1      -0.032  16.496  21.976  0.00  0.00    +0.000 C 
ATOM     38  C   UNL     1       1.355  14.738  20.821  0.00  0.00    +0.000 C 
ATOM     39  C   UNL     1       1.727  14.081  19.491  0.00  0.00    +0.000 C 
BRANCH  36  40
ATOM     40  C   UNL     1       1.568  17.163  20.300  0.00  0.00    +0.000 C 
ATOM     41  N   UNL     1       2.381  18.085  20.024  0.00  0.00    +0.000 NA
ENDBRANCH  36  40
ENDBRANCH  32  33
ENDBRANCH   6  32
TORSDOF 8
ENDMDL
MODEL 6
REMARK VINA RESULT:      -9.0      2.786      9.200
REMARK  Name = 
REMARK  10 active torsions:
REMARK  status: ('A' for Active; 'I' for Inactive)
REMARK    1  A    between atoms: C_1  and  N_2
REMARK    2  A    between atoms: C_6  and  C_7
REMARK    3  A    between atoms: C_7  and  C_8
REMARK    4  A    between atoms: C_8  and  C_9
REMARK    5  A    between atoms: C_13  and  N_14
REMARK    6  A    between atoms: C_19  and  C_20
REMARK    7  A    between atoms: C_20  and  N_21
REMARK    8  A    between atoms: C_24  and  C_25
REMARK    9  A    between atoms: C_24  and  C_26
REMARK   10  A    between atoms: C_31  and  C_32
REMARK                            x       y       z     vdW  Elec       q    Type
REMARK                         _______ _______ _______ _____ _____    ______ ____
ROOT
ATOM      1  N   UNL     1       1.339   8.238  20.436  0.00  0.00    +0.000 N 
ATOM      2  C   UNL     1       1.438   6.905  20.985  0.00  0.00    +0.000 C 
ATOM      3  C   UNL     1       2.144   6.130  19.957  0.00  0.00    +0.000 A 
ATOM      4  C   UNL     1       2.540   6.959  18.909  0.00  0.00    +0.000 A 
ATOM      5  C   UNL     1       3.339   6.453  17.893  0.00  0.00    +0.000 A 
ATOM      6  C   UNL     1       3.706   5.082  17.953  0.00  0.00    +0.000 A 
ATOM      7  C   UNL     1       3.223   4.258  19.004  0.00  0.00    +0.000 A 
ATOM      8  C   UNL     1       2.424   4.775  20.024  0.00  0.00    +0.000 A 
ATOM      9  C   UNL     1       1.932   8.307  19.170  0.00  0.00    +0.000 C 
ATOM     10  O   UNL     1       1.972   9.235  18.383  0.00  0.00    +0.000 OA
ENDROOT
BRANCH   1  15
ATOM     11  C   UNL     1      -0.935  11.168  20.830  0.00  0.00    +0.000 A 
ATOM     12  C   UNL     1      -0.953  11.266  22.228  0.00  0.00    +0.000 A 
ATOM     13  C   UNL     1      -0.333  10.295  23.042  0.00  0.00    +0.000 A 
ATOM     14  C   UNL     1       0.354   9.201  22.496  0.00  0.00    +0.000 A 
ATOM     15  C   UNL     1       0.440   9.097  21.116  0.00  0.00    +0.000 A 
ATOM     16  C   UNL     1      -0.262  10.043  20.332  0.00  0.00    +0.000 A 
BRANCH  11  17
ATOM     17  C   UNL     1      -1.561  12.240  19.788  0.00  0.00    +0.000 C 
ATOM     18  C   UNL     1      -3.123  12.311  19.721  0.00  0.00    +0.000 C 
ATOM     19  O   UNL     1      -3.138  11.961  18.322  0.00  0.00    +0.000 OA
ATOM     20  C   UNL     1      -1.705  11.820  18.300  0.00  0.00    +0.000 C 
BRANCH  17  21
ATOM     21  C   UNL     1      -0.847  13.601  19.903  0.00  0.00    +0.000 C 
BRANCH  21  27
ATOM     22  C   UNL     1       1.820  12.760  18.440  0.00  0.00    +0.000 C 
ATOM     23  N   UNL     1       1.682  13.240  19.790  0.00  0.00    +0.000 N 
ATOM     24  C   UNL     1       2.714  13.487  20.643  0.00  0.00    +0.000 A 
ATOM     25  N   UNL     1       2.239  13.862  21.806  0.00  0.00    +0.000 NA
ATOM     26  N   UNL     1       0.872  13.896  21.702  0.00  0.00    +0.000 NA
ATOM     27  C   UNL     1       0.533  13.554  20.475  0.00  0.00    +0.000 A 
ENDBRANCH  21  27
ENDBRANCH  17  21
ENDBRANCH  11  17
ENDBRANCH   1  15
BRANCH   8  28
ATOM     28  C   UNL     1       1.896   3.898  21.134  0.00  0.00    +0.000 C 
ATOM     29  F   UNL     1       2.296   4.287  22.383  0.00  0.00    +0.000 F 
ATOM     30  F   UNL     1       0.541   3.876  21.185  0.00  0.00    +0.000 F 
ATOM     31  F   UNL     1       2.300   2.605  21.017  0.00  0.00    +0.000 F 
ENDBRANCH   8  28
BRANCH   6  32
ATOM     32  C   UNL     1       4.663   4.443  16.959  0.00  0.00    +0.000 C 
BRANCH  32  33
ATOM     33  N   UNL     1       5.783   5.336  16.608  0.00  0.00    +0.000 NA
ATOM     34  C   UNL     1       7.052   4.631  16.405  0.00  0.00    +0.000 C 
ATOM     35  C   UNL     1       7.054   3.756  15.148  0.00  0.00    +0.000 C 
ATOM     36  C   UNL     1       6.580   4.517  13.896  0.00  0.00    +0.000 C 
ATOM     37  C   UNL     1       6.264   3.550  12.737  0.00  0.00    +0.000 C 
ATOM     38  C   UNL     1       5.382   5.441  14.148  0.00  0.00    +0.000 C 
ATOM     39  C   UNL     1       5.500   6.208  15.467  0.00  0.00    +0.000 C 
BRANCH  36  40
ATOM     40  C   UNL     1       7.746   5.342  13.375  0.00  0.00    +0.000 C 
ATOM     41  N   UNL     1       8.713   6.026  12.943  0.00  0.00    +0.000 NA
ENDBRANCH  36  40
ENDBRANCH  32  33
ENDBRANCH   6  32
TORSDOF 8
ENDMDL
MODEL 7
REMARK VINA RESULT:      -9.0      3.106      9.726
REMARK  Name = 
REMARK  10 active torsions:
REMARK  status: ('A' for Active; 'I' for Inactive)
REMARK    1  A    between atoms: C_1  and  N_2
REMARK    2  A    between atoms: C_6  and  C_7
REMARK    3  A    between atoms: C_7  and  C_8
REMARK    4  A    between atoms: C_8  and  C_9
REMARK    5  A    between atoms: C_13  and  N_14
REMARK    6  A    between atoms: C_19  and  C_20
REMARK    7  A    between atoms: C_20  and  N_21
REMARK    8  A    between atoms: C_24  and  C_25
REMARK    9  A    between atoms: C_24  and  C_26
REMARK   10  A    between atoms: C_31  and  C_32
REMARK                            x       y       z     vdW  Elec       q    Type
REMARK                         _______ _______ _______ _____ _____    ______ ____
ROOT
ATOM      1  N   UNL     1       1.381   8.274  20.401  0.00  0.00    +0.000 N 
ATOM      2  C   UNL     1       1.480   6.938  20.940  0.00  0.00    +0.000 C 
ATOM      3  C   UNL     1       2.158   6.162  19.894  0.00  0.00    +0.000 A 
ATOM      4  C   UNL     1       2.538   6.994  18.843  0.00  0.00    +0.000 A 
ATOM      5  C   UNL     1       3.311   6.487  17.807  0.00  0.00    +0.000 A 
ATOM      6  C   UNL     1       3.667   5.112  17.851  0.00  0.00    +0.000 A 
ATOM      7  C   UNL     1       3.199   4.286  18.908  0.00  0.00    +0.000 A 
ATOM      8  C   UNL     1       2.427   4.804  19.947  0.00  0.00    +0.000 A 
ATOM      9  C   UNL     1       1.948   8.346  19.124  0.00  0.00    +0.000 C 
ATOM     10  O   UNL     1       1.979   9.278  18.341  0.00  0.00    +0.000 OA
ENDROOT
BRANCH   1  15
ATOM     11  C   UNL     1       0.035  11.552  21.568  0.00  0.00    +0.000 A 
ATOM     12  C   UNL     1      -0.676  11.125  22.697  0.00  0.00    +0.000 A 
ATOM     13  C   UNL     1      -0.828   9.756  22.999  0.00  0.00    +0.000 A 
ATOM     14  C   UNL     1      -0.252   8.755  22.202  0.00  0.00    +0.000 A 
ATOM     15  C   UNL     1       0.505   9.137  21.106  0.00  0.00    +0.000 A 
ATOM     16  C   UNL     1       0.567  10.515  20.787  0.00  0.00    +0.000 A 
BRANCH  11  17
ATOM     17  C   UNL     1       0.324  13.088  21.143  0.00  0.00    +0.000 C 
ATOM     18  C   UNL     1       1.817  13.556  21.207  0.00  0.00    +0.000 C 
ATOM     19  O   UNL     1       1.514  14.589  22.167  0.00  0.00    +0.000 OA
ATOM     20  C   UNL     1       0.129  14.195  22.215  0.00  0.00    +0.000 C 
BRANCH  17  21
ATOM     21  C   UNL     1      -0.422  13.450  19.844  0.00  0.00    +0.000 C 
BRANCH  21  27
ATOM     22  C   UNL     1      -1.849  11.364  17.956  0.00  0.00    +0.000 C 
ATOM     23  N   UNL     1      -2.448  12.127  19.019  0.00  0.00    +0.000 N 
ATOM     24  C   UNL     1      -3.738  12.010  19.437  0.00  0.00    +0.000 A 
ATOM     25  N   UNL     1      -3.972  12.886  20.385  0.00  0.00    +0.000 NA
ATOM     26  N   UNL     1      -2.803  13.565  20.615  0.00  0.00    +0.000 NA
ATOM     27  C   UNL     1      -1.871  13.086  19.815  0.00  0.00    +0.000 A 
ENDBRANCH  21  27
ENDBRANCH  17  21
ENDBRANCH  11  17
ENDBRANCH   1  15
BRANCH   8  28
ATOM     28  C   UNL     1       1.915   3.925  21.063  0.00  0.00    +0.000 C 
ATOM     29  F   UNL     1       0.551   3.901  21.166  0.00  0.00    +0.000 F 
ATOM     30  F   UNL     1       2.285   2.628  20.920  0.00  0.00    +0.000 F 
ATOM     31  F   UNL     1       2.358   4.321  22.286  0.00  0.00    +0.000 F 
ENDBRANCH   8  28
BRANCH   6  32
ATOM     32  C   UNL     1       4.598   4.471  16.833  0.00  0.00    +0.000 C 
BRANCH  32  33
ATOM     33  N   UNL     1       5.748   5.333  16.506  0.00  0.00    +0.000 NA
ATOM     34  C   UNL     1       7.002   4.596  16.333  0.00  0.00    +0.000 C 
ATOM     35  C   UNL     1       7.009   3.717  15.077  0.00  0.00    +0.000 C 
ATOM     36  C   UNL     1       6.583   4.488  13.814  0.00  0.00    +0.000 C 
ATOM     37  C   UNL     1       6.269   3.526  12.650  0.00  0.00    +0.000 C 
ATOM     38  C   UNL     1       5.405   5.443  14.037  0.00  0.00    +0.000 C 
ATOM     39  C   UNL     1       5.512   6.210  15.357  0.00  0.00    +0.000 C 
BRANCH  36  40
ATOM     40  C   UNL     1       7.782   5.280  13.317  0.00  0.00    +0.000 C 
ATOM     41  N   UNL     1       8.775   5.937  12.904  0.00  0.00    +0.000 NA
ENDBRANCH  36  40
ENDBRANCH  32  33
ENDBRANCH   6  32
TORSDOF 8
ENDMDL
MODEL 8
REMARK VINA RESULT:      -9.0      1.630      2.483
REMARK  Name = 
REMARK  10 active torsions:
REMARK  status: ('A' for Active; 'I' for Inactive)
REMARK    1  A    between atoms: C_1  and  N_2
REMARK    2  A    between atoms: C_6  and  C_7
REMARK    3  A    between atoms: C_7  and  C_8
REMARK    4  A    between atoms: C_8  and  C_9
REMARK    5  A    between atoms: C_13  and  N_14
REMARK    6  A    between atoms: C_19  and  C_20
REMARK    7  A    between atoms: C_20  and  N_21
REMARK    8  A    between atoms: C_24  and  C_25
REMARK    9  A    between atoms: C_24  and  C_26
REMARK   10  A    between atoms: C_31  and  C_32
REMARK                            x       y       z     vdW  Elec       q    Type
REMARK                         _______ _______ _______ _____ _____    ______ ____
ROOT
ATOM      1  N   UNL     1       2.205   7.461  19.399  0.00  0.00    +0.000 N 
ATOM      2  C   UNL     1       1.432   7.821  20.565  0.00  0.00    +0.000 C 
ATOM      3  C   UNL     1       1.022   9.210  20.328  0.00  0.00    +0.000 A 
ATOM      4  C   UNL     1       1.426   9.626  19.060  0.00  0.00    +0.000 A 
ATOM      5  C   UNL     1       1.025  10.865  18.580  0.00  0.00    +0.000 A 
ATOM      6  C   UNL     1       0.225  11.681  19.425  0.00  0.00    +0.000 A 
ATOM      7  C   UNL     1      -0.105  11.245  20.736  0.00  0.00    +0.000 A 
ATOM      8  C   UNL     1       0.298   9.996  21.209  0.00  0.00    +0.000 A 
ATOM      9  C   UNL     1       2.280   8.527  18.496  0.00  0.00    +0.000 C 
ATOM     10  O   UNL     1       2.902   8.617  17.453  0.00  0.00    +0.000 OA
ENDROOT
BRANCH   1  15
ATOM     11  C   UNL     1       5.141   5.211  18.916  0.00  0.00    +0.000 A 
ATOM     12  C   UNL     1       4.527   3.971  19.139  0.00  0.00    +0.000 A 
ATOM     13  C   UNL     1       3.189   3.880  19.579  0.00  0.00    +0.000 A 
ATOM     14  C   UNL     1       2.400   5.021  19.787  0.00  0.00    +0.000 A 
ATOM     15  C   UNL     1       2.954   6.265  19.527  0.00  0.00    +0.000 A 
ATOM     16  C   UNL     1       4.322   6.322  19.167  0.00  0.00    +0.000 A 
BRANCH  11  17
ATOM     17  C   UNL     1       6.645   5.447  18.363  0.00  0.00    +0.000 C 
ATOM     18  C   UNL     1       7.710   5.893  19.420  0.00  0.00    +0.000 C 
ATOM     19  O   UNL     1       7.984   7.121  18.715  0.00  0.00    +0.000 OA
ATOM     20  C   UNL     1       6.985   6.820  17.722  0.00  0.00    +0.000 C 
BRANCH  17  21
ATOM     21  C   UNL     1       7.081   4.293  17.440  0.00  0.00    +0.000 C 
BRANCH  21  27
ATOM     22  C   UNL     1       4.460   3.628  15.813  0.00  0.00    +0.000 C 
ATOM     23  N   UNL     1       5.654   4.263  15.318  0.00  0.00    +0.000 N 
ATOM     24  C   UNL     1       5.814   4.759  14.061  0.00  0.00    +0.000 A 
ATOM     25  N   UNL     1       7.035   5.220  13.926  0.00  0.00    +0.000 NA
ATOM     26  N   UNL     1       7.673   5.056  15.128  0.00  0.00    +0.000 NA
ATOM     27  C   UNL     1       6.831   4.509  15.982  0.00  0.00    +0.000 A 
ENDBRANCH  21  27
ENDBRANCH  17  21
ENDBRANCH  11  17
ENDBRANCH   1  15
BRANCH   8  28
ATOM     28  C   UNL     1      -0.038   9.536  22.607  0.00  0.00    +0.000 C 
ATOM     29  F   UNL     1       1.056   9.215  23.362  0.00  0.00    +0.000 F 
ATOM     30  F   UNL     1      -0.701  10.479  23.324  0.00  0.00    +0.000 F 
ATOM     31  F   UNL     1      -0.820   8.424  22.619  0.00  0.00    +0.000 F 
ENDBRANCH   8  28
BRANCH   6  32
ATOM     32  C   UNL     1      -0.362  13.008  18.970  0.00  0.00    +0.000 C 
BRANCH  32  33
ATOM     33  N   UNL     1      -0.335  14.026  20.036  0.00  0.00    +0.000 NA
ATOM     34  C   UNL     1       0.992  14.218  20.628  0.00  0.00    +0.000 C 
ATOM     35  C   UNL     1       1.988  14.869  19.663  0.00  0.00    +0.000 C 
ATOM     36  C   UNL     1       1.429  16.146  19.009  0.00  0.00    +0.000 C 
ATOM     37  C   UNL     1       2.291  16.585  17.807  0.00  0.00    +0.000 C 
ATOM     38  C   UNL     1      -0.041  16.035  18.586  0.00  0.00    +0.000 C 
ATOM     39  C   UNL     1      -0.899  15.315  19.628  0.00  0.00    +0.000 C 
BRANCH  36  40
ATOM     40  C   UNL     1       1.579  17.289  20.000  0.00  0.00    +0.000 C 
ATOM     41  N   UNL     1       1.703  18.237  20.821  0.00  0.00    +0.000 NA
ENDBRANCH  36  40
ENDBRANCH  32  33
ENDBRANCH   6  32
TORSDOF 8
ENDMDL
MODEL 9
REMARK VINA RESULT:      -8.9      2.630      9.385
REMARK  Name = 
REMARK  10 active torsions:
REMARK  status: ('A' for Active; 'I' for Inactive)
REMARK    1  A    between atoms: C_1  and  N_2
REMARK    2  A    between atoms: C_6  and  C_7
REMARK    3  A    between atoms: C_7  and  C_8
REMARK    4  A    between atoms: C_8  and  C_9
REMARK    5  A    between atoms: C_13  and  N_14
REMARK    6  A    between atoms: C_19  and  C_20
REMARK    7  A    between atoms: C_20  and  N_21
REMARK    8  A    between atoms: C_24  and  C_25
REMARK    9  A    between atoms: C_24  and  C_26
REMARK   10  A    between atoms: C_31  and  C_32
REMARK                            x       y       z     vdW  Elec       q    Type
REMARK                         _______ _______ _______ _____ _____    ______ ____
ROOT
ATOM      1  N   UNL     1       1.330   8.075  20.502  0.00  0.00    +0.000 N 
ATOM      2  C   UNL     1       1.444   6.736  21.030  0.00  0.00    +0.000 C 
ATOM      3  C   UNL     1       2.137   5.977  19.981  0.00  0.00    +0.000 A 
ATOM      4  C   UNL     1       2.513   6.823  18.939  0.00  0.00    +0.000 A 
ATOM      5  C   UNL     1       3.298   6.335  17.904  0.00  0.00    +0.000 A 
ATOM      6  C   UNL     1       3.672   4.964  17.939  0.00  0.00    +0.000 A 
ATOM      7  C   UNL     1       3.208   4.124  18.986  0.00  0.00    +0.000 A 
ATOM      8  C   UNL     1       2.423   4.623  20.025  0.00  0.00    +0.000 A 
ATOM      9  C   UNL     1       1.904   8.165  19.228  0.00  0.00    +0.000 C 
ATOM     10  O   UNL     1       1.928   9.104  18.453  0.00  0.00    +0.000 OA
ENDROOT
BRANCH   1  15
ATOM     11  C   UNL     1      -0.785  11.099  21.049  0.00  0.00    +0.000 A 
ATOM     12  C   UNL     1      -0.897  11.058  22.446  0.00  0.00    +0.000 A 
ATOM     13  C   UNL     1      -0.397   9.971  23.194  0.00  0.00    +0.000 A 
ATOM     14  C   UNL     1       0.261   8.893  22.582  0.00  0.00    +0.000 A 
ATOM     15  C   UNL     1       0.439   8.921  21.208  0.00  0.00    +0.000 A 
ATOM     16  C   UNL     1      -0.147   9.985  20.482  0.00  0.00    +0.000 A 
BRANCH  11  17
ATOM     17  C   UNL     1      -1.268  12.308  20.086  0.00  0.00    +0.000 C 
ATOM     18  C   UNL     1      -2.653  12.121  19.381  0.00  0.00    +0.000 C 
ATOM     19  O   UNL     1      -2.063  12.214  18.067  0.00  0.00    +0.000 OA
ATOM     20  C   UNL     1      -0.742  12.339  18.626  0.00  0.00    +0.000 C 
BRANCH  17  21
ATOM     21  C   UNL     1      -1.060  13.674  20.769  0.00  0.00    +0.000 C 
BRANCH  21  27
ATOM     22  C   UNL     1       2.093  13.758  20.887  0.00  0.00    +0.000 C 
ATOM     23  N   UNL     1       1.230  14.583  20.083  0.00  0.00    +0.000 N 
ATOM     24  C   UNL     1       1.651  15.497  19.167  0.00  0.00    +0.000 A 
ATOM     25  N   UNL     1       0.611  16.110  18.651  0.00  0.00    +0.000 NA
ATOM     26  N   UNL     1      -0.512  15.561  19.215  0.00  0.00    +0.000 NA
ATOM     27  C   UNL     1      -0.144  14.614  20.055  0.00  0.00    +0.000 A 
ENDBRANCH  21  27
ENDBRANCH  17  21
ENDBRANCH  11  17
ENDBRANCH   1  15
BRANCH   8  28
ATOM     28  C   UNL     1       1.916   3.729  21.131  0.00  0.00    +0.000 C 
ATOM     29  F   UNL     1       0.552   3.637  21.186  0.00  0.00    +0.000 F 
ATOM     30  F   UNL     1       2.354   2.450  21.013  0.00  0.00    +0.000 F 
ATOM     31  F   UNL     1       2.295   4.155  22.364  0.00  0.00    +0.000 F 
ENDBRANCH   8  28
BRANCH   6  32
ATOM     32  C   UNL     1       4.616   4.343  16.922  0.00  0.00    +0.000 C 
BRANCH  32  33
ATOM     33  N   UNL     1       5.758   5.223  16.609  0.00  0.00    +0.000 NA
ATOM     34  C   UNL     1       7.013   4.499  16.392  0.00  0.00    +0.000 C 
ATOM     35  C   UNL     1       7.007   3.665  15.107  0.00  0.00    +0.000 C 
ATOM     36  C   UNL     1       6.560   4.476  13.877  0.00  0.00    +0.000 C 
ATOM     37  C   UNL     1       6.233   3.554  12.685  0.00  0.00    +0.000 C 
ATOM     38  C   UNL     1       5.380   5.417  14.150  0.00  0.00    +0.000 C 
ATOM     39  C   UNL     1       5.502   6.138  15.494  0.00  0.00    +0.000 C 
BRANCH  36  40
ATOM     40  C   UNL     1       7.747   5.292  13.392  0.00  0.00    +0.000 C 
ATOM     41  N   UNL     1       8.732   5.967  12.989  0.00  0.00    +0.000 NA
ENDBRANCH  36  40
ENDBRANCH  32  33
ENDBRANCH   6  32
TORSDOF 8
ENDMDL
