MODEL 1
REMARK VINA RESULT:     -10.4      0.000      0.000
REMARK  Name = 
REMARK  8 active torsions:
REMARK  status: ('A' for Active; 'I' for Inactive)
REMARK    1  A    between atoms: C_1  and  N_2
REMARK    2  A    between atoms: C_6  and  C_7
REMARK    3  A    between atoms: C_7  and  C_10
REMARK    4  A    between atoms: C_10  and  C_11
REMARK    5  A    between atoms: C_15  and  N_16
REMARK    6  A    between atoms: C_21  and  C_22
REMARK    7  A    between atoms: C_22  and  N_23
REMARK    8  A    between atoms: C_30  and  C_31
REMARK                            x       y       z     vdW  Elec       q    Type
REMARK                         _______ _______ _______ _____ _____    ______ ____
ROOT
ATOM      1  N   UNL     1       1.461   8.184  20.271  0.00  0.00    +0.000 N 
ATOM      2  C   UNL     1       1.610   6.844  20.800  0.00  0.00    +0.000 C 
ATOM      3  C   UNL     1       2.252   6.091  19.698  0.00  0.00    +0.000 A 
ATOM      4  C   UNL     1       2.694   6.983  18.722  0.00  0.00    +0.000 A 
ATOM      5  C   UNL     1       3.530   6.563  17.699  0.00  0.00    +0.000 A 
ATOM      6  C   UNL     1       3.869   5.194  17.640  0.00  0.00    +0.000 A 
ATOM      7  C   UNL     1       3.286   4.288  18.557  0.00  0.00    +0.000 A 
ATOM      8  C   UNL     1       2.463   4.721  19.603  0.00  0.00    +0.000 A 
ATOM      9  C   UNL     1       2.086   8.314  19.026  0.00  0.00    +0.000 C 
ATOM     10  O   UNL     1       2.147   9.267  18.280  0.00  0.00    +0.000 OA
ENDROOT
BRANCH   1  15
ATOM     11  C   UNL     1      -0.738  11.159  20.761  0.00  0.00    +0.000 A 
ATOM     12  C   UNL     1      -0.878  11.158  22.148  0.00  0.00    +0.000 A 
ATOM     13  C   UNL     1      -0.314  10.132  22.924  0.00  0.00    +0.000 A 
ATOM     14  C   UNL     1       0.420   9.089  22.331  0.00  0.00    +0.000 A 
ATOM     15  C   UNL     1       0.585   9.068  20.952  0.00  0.00    +0.000 A 
ATOM     16  C   UNL     1      -0.045  10.075  20.198  0.00  0.00    +0.000 A 
BRANCH  11  17
ATOM     17  C   UNL     1      -1.176  12.307  19.844  0.00  0.00    +0.000 C 
ATOM     18  C   UNL     1      -2.624  12.129  19.333  0.00  0.00    +0.000 C 
ATOM     19  C   UNL     1      -1.484  12.035  18.373  0.00  0.00    +0.000 C 
BRANCH  17  20
ATOM     20  C   UNL     1      -0.663  13.718  20.220  0.00  0.00    +0.000 C 
ATOM     21  F   UNL     1      -1.513  14.241  21.156  0.00  0.00    +0.000 F 
ATOM     22  F   UNL     1      -0.815  14.537  19.132  0.00  0.00    +0.000 F 
BRANCH  20  28
ATOM     23  C   UNL     1       1.986  13.040  18.582  0.00  0.00    +0.000 C 
ATOM     24  N   UNL     1       1.881  13.500  19.939  0.00  0.00    +0.000 N 
ATOM     25  C   UNL     1       2.947  13.717  20.762  0.00  0.00    +0.000 A 
ATOM     26  N   UNL     1       2.528  14.077  21.949  0.00  0.00    +0.000 NA
ATOM     27  N   UNL     1       1.155  14.116  21.912  0.00  0.00    +0.000 NA
ATOM     28  C   UNL     1       0.761  13.791  20.687  0.00  0.00    +0.000 A 
ENDBRANCH  20  28
ENDBRANCH  17  20
ENDBRANCH  11  17
ENDBRANCH   1  15
BRANCH   8  29
ATOM     29  C   UNL     1       1.821   3.725  20.531  0.00  0.00    +0.000 C 
ATOM     30  F   UNL     1       2.096   2.426  20.223  0.00  0.00    +0.000 F 
ATOM     31  F   UNL     1       2.225   3.887  21.820  0.00  0.00    +0.000 F 
ATOM     32  F   UNL     1       0.464   3.816  20.541  0.00  0.00    +0.000 F 
ENDBRANCH   8  29
BRANCH   6  33
ATOM     33  C   UNL     1       4.893   4.651  16.656  0.00  0.00    +0.000 C 
BRANCH  33  34
ATOM     34  N   UNL     1       6.274   4.761  17.137  0.00  0.00    +0.000 NA
ATOM     35  C   UNL     1       6.997   5.927  16.627  0.00  0.00    +0.000 C 
ATOM     36  C   UNL     1       7.463   6.750  17.816  0.00  0.00    +0.000 C 
ATOM     37  C   UNL     1       7.379   5.822  19.001  0.00  0.00    +0.000 C 
ATOM     38  F   UNL     1       8.593   5.248  19.209  0.00  0.00    +0.000 F 
ATOM     39  C   UNL     1       6.368   4.756  18.605  0.00  0.00    +0.000 C 
ENDBRANCH  33  34
ENDBRANCH   6  33
TORSDOF 7
ENDMDL
MODEL 2
REMARK VINA RESULT:     -10.0      2.105      3.023
REMARK  Name = 
REMARK  8 active torsions:
REMARK  status: ('A' for Active; 'I' for Inactive)
REMARK    1  A    between atoms: C_1  and  N_2
REMARK    2  A    between atoms: C_6  and  C_7
REMARK    3  A    between atoms: C_7  and  C_10
REMARK    4  A    between atoms: C_10  and  C_11
REMARK    5  A    between atoms: C_15  and  N_16
REMARK    6  A    between atoms: C_21  and  C_22
REMARK    7  A    between atoms: C_22  and  N_23
REMARK    8  A    between atoms: C_30  and  C_31
REMARK                            x       y       z     vdW  Elec       q    Type
REMARK                         _______ _______ _______ _____ _____    ______ ____
ROOT
ATOM      1  N   UNL     1       1.479   8.089  20.264  0.00  0.00    +0.000 N 
ATOM      2  C   UNL     1       1.628   6.767  20.837  0.00  0.00    +0.000 C 
ATOM      3  C   UNL     1       2.276   5.980  19.764  0.00  0.00    +0.000 A 
ATOM      4  C   UNL     1       2.721   6.839  18.761  0.00  0.00    +0.000 A 
ATOM      5  C   UNL     1       3.563   6.388  17.756  0.00  0.00    +0.000 A 
ATOM      6  C   UNL     1       3.904   5.018  17.744  0.00  0.00    +0.000 A 
ATOM      7  C   UNL     1       3.318   4.142  18.688  0.00  0.00    +0.000 A 
ATOM      8  C   UNL     1       2.490   4.607  19.715  0.00  0.00    +0.000 A 
ATOM      9  C   UNL     1       2.110   8.179  19.018  0.00  0.00    +0.000 C 
ATOM     10  O   UNL     1       2.173   9.107  18.241  0.00  0.00    +0.000 OA
ENDROOT
BRANCH   1  15
ATOM     11  C   UNL     1      -0.613  11.148  20.696  0.00  0.00    +0.000 A 
ATOM     12  C   UNL     1      -0.850  11.114  22.070  0.00  0.00    +0.000 A 
ATOM     13  C   UNL     1      -0.387  10.041  22.850  0.00  0.00    +0.000 A 
ATOM     14  C   UNL     1       0.339   8.982  22.275  0.00  0.00    +0.000 A 
ATOM     15  C   UNL     1       0.598   8.993  20.910  0.00  0.00    +0.000 A 
ATOM     16  C   UNL     1       0.068  10.050  20.148  0.00  0.00    +0.000 A 
BRANCH  11  17
ATOM     17  C   UNL     1      -0.935  12.341  19.788  0.00  0.00    +0.000 C 
ATOM     18  C   UNL     1       0.005  13.541  20.039  0.00  0.00    +0.000 C 
ATOM     19  C   UNL     1      -1.441  13.648  20.394  0.00  0.00    +0.000 C 
BRANCH  17  20
ATOM     20  C   UNL     1      -1.378  12.001  18.344  0.00  0.00    +0.000 C 
ATOM     21  F   UNL     1      -0.625  10.944  17.909  0.00  0.00    +0.000 F 
ATOM     22  F   UNL     1      -1.007  13.036  17.525  0.00  0.00    +0.000 F 
BRANCH  20  28
ATOM     23  C   UNL     1      -2.875  10.989  15.718  0.00  0.00    +0.000 C 
ATOM     24  N   UNL     1      -3.447  11.284  17.002  0.00  0.00    +0.000 N 
ATOM     25  C   UNL     1      -4.774  11.173  17.296  0.00  0.00    +0.000 A 
ATOM     26  N   UNL     1      -4.993  11.564  18.526  0.00  0.00    +0.000 NA
ATOM     27  N   UNL     1      -3.784  11.926  19.070  0.00  0.00    +0.000 NA
ATOM     28  C   UNL     1      -2.841  11.734  18.155  0.00  0.00    +0.000 A 
ENDBRANCH  20  28
ENDBRANCH  17  20
ENDBRANCH  11  17
ENDBRANCH   1  15
BRANCH   8  29
ATOM     29  C   UNL     1       1.845   3.641  20.672  0.00  0.00    +0.000 C 
ATOM     30  F   UNL     1       0.484   3.706  20.691  0.00  0.00    +0.000 F 
ATOM     31  F   UNL     1       2.144   2.347  20.377  0.00  0.00    +0.000 F 
ATOM     32  F   UNL     1       2.236   3.839  21.960  0.00  0.00    +0.000 F 
ENDBRANCH   8  29
BRANCH   6  33
ATOM     33  C   UNL     1       4.934   4.444  16.784  0.00  0.00    +0.000 C 
BRANCH  33  34
ATOM     34  N   UNL     1       6.316   4.631  17.236  0.00  0.00    +0.000 NA
ATOM     35  C   UNL     1       6.995   5.781  16.635  0.00  0.00    +0.000 C 
ATOM     36  C   UNL     1       7.449   6.700  17.756  0.00  0.00    +0.000 C 
ATOM     37  C   UNL     1       7.408   5.856  19.005  0.00  0.00    +0.000 C 
ATOM     38  F   UNL     1       8.643   5.337  19.236  0.00  0.00    +0.000 F 
ATOM     39  C   UNL     1       6.428   4.734  18.699  0.00  0.00    +0.000 C 
ENDBRANCH  33  34
ENDBRANCH   6  33
TORSDOF 7
ENDMDL
MODEL 3
REMARK VINA RESULT:     -10.0      0.818      1.373
REMARK  Name = 
REMARK  8 active torsions:
REMARK  status: ('A' for Active; 'I' for Inactive)
REMARK    1  A    between atoms: C_1  and  N_2
REMARK    2  A    between atoms: C_6  and  C_7
REMARK    3  A    between atoms: C_7  and  C_10
REMARK    4  A    between atoms: C_10  and  C_11
REMARK    5  A    between atoms: C_15  and  N_16
REMARK    6  A    between atoms: C_21  and  C_22
REMARK    7  A    between atoms: C_22  and  N_23
REMARK    8  A    between atoms: C_30  and  C_31
REMARK                            x       y       z     vdW  Elec       q    Type
REMARK                         _______ _______ _______ _____ _____    ______ ____
ROOT
ATOM      1  N   UNL     1       1.476   8.022  20.319  0.00  0.00    +0.000 N 
ATOM      2  C   UNL     1       1.600   6.684  20.860  0.00  0.00    +0.000 C 
ATOM      3  C   UNL     1       2.239   5.913  19.770  0.00  0.00    +0.000 A 
ATOM      4  C   UNL     1       2.704   6.789  18.791  0.00  0.00    +0.000 A 
ATOM      5  C   UNL     1       3.542   6.349  17.779  0.00  0.00    +0.000 A 
ATOM      6  C   UNL     1       3.860   4.974  17.734  0.00  0.00    +0.000 A 
ATOM      7  C   UNL     1       3.255   4.085  18.653  0.00  0.00    +0.000 A 
ATOM      8  C   UNL     1       2.430   4.539  19.688  0.00  0.00    +0.000 A 
ATOM      9  C   UNL     1       2.114   8.133  19.078  0.00  0.00    +0.000 C 
ATOM     10  O   UNL     1       2.196   9.078  18.325  0.00  0.00    +0.000 OA
ENDROOT
BRANCH   1  15
ATOM     11  C   UNL     1      -0.717  11.010  20.750  0.00  0.00    +0.000 A 
ATOM     12  C   UNL     1      -0.842  11.048  22.139  0.00  0.00    +0.000 A 
ATOM     13  C   UNL     1      -0.268  10.045  22.936  0.00  0.00    +0.000 A 
ATOM     14  C   UNL     1       0.459   8.985  22.364  0.00  0.00    +0.000 A 
ATOM     15  C   UNL     1       0.608   8.925  20.985  0.00  0.00    +0.000 A 
ATOM     16  C   UNL     1      -0.031   9.911  20.211  0.00  0.00    +0.000 A 
BRANCH  11  17
ATOM     17  C   UNL     1      -1.167  12.131  19.806  0.00  0.00    +0.000 C 
ATOM     18  C   UNL     1      -2.613  12.596  20.093  0.00  0.00    +0.000 C 
ATOM     19  C   UNL     1      -2.304  11.887  18.816  0.00  0.00    +0.000 C 
BRANCH  17  20
ATOM     20  C   UNL     1      -0.089  13.173  19.417  0.00  0.00    +0.000 C 
ATOM     21  F   UNL     1      -0.640  14.029  18.502  0.00  0.00    +0.000 F 
ATOM     22  F   UNL     1       0.901  12.529  18.722  0.00  0.00    +0.000 F 
BRANCH  20  28
ATOM     23  C   UNL     1      -1.111  15.866  20.783  0.00  0.00    +0.000 C 
ATOM     24  N   UNL     1       0.046  15.086  21.126  0.00  0.00    +0.000 N 
ATOM     25  C   UNL     1       0.917  15.402  22.127  0.00  0.00    +0.000 A 
ATOM     26  N   UNL     1       1.895  14.533  22.157  0.00  0.00    +0.000 NA
ATOM     27  N   UNL     1       1.664  13.609  21.167  0.00  0.00    +0.000 NA
ATOM     28  C   UNL     1       0.529  13.928  20.557  0.00  0.00    +0.000 A 
ENDBRANCH  20  28
ENDBRANCH  17  20
ENDBRANCH  11  17
ENDBRANCH   1  15
BRANCH   8  29
ATOM     29  C   UNL     1       1.764   3.560  20.618  0.00  0.00    +0.000 C 
ATOM     30  F   UNL     1       2.113   3.717  21.927  0.00  0.00    +0.000 F 
ATOM     31  F   UNL     1       0.408   3.661  20.588  0.00  0.00    +0.000 F 
ATOM     32  F   UNL     1       2.058   2.267  20.317  0.00  0.00    +0.000 F 
ENDBRANCH   8  29
BRANCH   6  33
ATOM     33  C   UNL     1       4.884   4.407  16.764  0.00  0.00    +0.000 C 
BRANCH  33  34
ATOM     34  N   UNL     1       6.269   4.596  17.206  0.00  0.00    +0.000 NA
ATOM     35  C   UNL     1       6.950   5.731  16.580  0.00  0.00    +0.000 C 
ATOM     36  C   UNL     1       7.413   6.670  17.681  0.00  0.00    +0.000 C 
ATOM     37  C   UNL     1       7.374   5.851  18.947  0.00  0.00    +0.000 C 
ATOM     38  F   UNL     1       8.608   5.330  19.182  0.00  0.00    +0.000 F 
ATOM     39  C   UNL     1       6.388   4.727  18.666  0.00  0.00    +0.000 C 
ENDBRANCH  33  34
ENDBRANCH   6  33
TORSDOF 7
ENDMDL
MODEL 4
REMARK VINA RESULT:      -9.8      1.786      2.792
REMARK  Name = 
REMARK  8 active torsions:
REMARK  status: ('A' for Active; 'I' for Inactive)
REMARK    1  A    between atoms: C_1  and  N_2
REMARK    2  A    between atoms: C_6  and  C_7
REMARK    3  A    between atoms: C_7  and  C_10
REMARK    4  A    between atoms: C_10  and  C_11
REMARK    5  A    between atoms: C_15  and  N_16
REMARK    6  A    between atoms: C_21  and  C_22
REMARK    7  A    between atoms: C_22  and  N_23
REMARK    8  A    between atoms: C_30  and  C_31
REMARK                            x       y       z     vdW  Elec       q    Type
REMARK                         _______ _______ _______ _____ _____    ______ ____
ROOT
ATOM      1  N   UNL     1       1.475   7.928  20.327  0.00  0.00    +0.000 N 
ATOM      2  C   UNL     1       1.561   6.571  20.827  0.00  0.00    +0.000 C 
ATOM      3  C   UNL     1       2.208   5.822  19.727  0.00  0.00    +0.000 A 
ATOM      4  C   UNL     1       2.712   6.719  18.787  0.00  0.00    +0.000 A 
ATOM      5  C   UNL     1       3.563   6.293  17.779  0.00  0.00    +0.000 A 
ATOM      6  C   UNL     1       3.855   4.914  17.696  0.00  0.00    +0.000 A 
ATOM      7  C   UNL     1       3.212   4.010  18.574  0.00  0.00    +0.000 A 
ATOM      8  C   UNL     1       2.373   4.447  19.605  0.00  0.00    +0.000 A 
ATOM      9  C   UNL     1       2.143   8.064  19.104  0.00  0.00    +0.000 C 
ATOM     10  O   UNL     1       2.260   9.031  18.384  0.00  0.00    +0.000 OA
ENDROOT
BRANCH   1  15
ATOM     11  C   UNL     1      -0.233  11.160  21.077  0.00  0.00    +0.000 A 
ATOM     12  C   UNL     1      -0.745  10.899  22.349  0.00  0.00    +0.000 A 
ATOM     13  C   UNL     1      -0.597   9.630  22.933  0.00  0.00    +0.000 A 
ATOM     14  C   UNL     1       0.082   8.595  22.266  0.00  0.00    +0.000 A 
ATOM     15  C   UNL     1       0.611   8.827  21.002  0.00  0.00    +0.000 A 
ATOM     16  C   UNL     1       0.391  10.088  20.419  0.00  0.00    +0.000 A 
BRANCH  11  17
ATOM     17  C   UNL     1      -0.203  12.544  20.420  0.00  0.00    +0.000 C 
ATOM     18  C   UNL     1       0.918  13.441  20.992  0.00  0.00    +0.000 C 
ATOM     19  C   UNL     1      -0.511  13.790  21.248  0.00  0.00    +0.000 C 
BRANCH  17  20
ATOM     20  C   UNL     1      -0.526  12.591  18.907  0.00  0.00    +0.000 C 
ATOM     21  F   UNL     1       0.623  12.305  18.221  0.00  0.00    +0.000 F 
ATOM     22  F   UNL     1      -0.808  13.888  18.565  0.00  0.00    +0.000 F 
BRANCH  20  28
ATOM     23  C   UNL     1      -3.571  12.654  19.848  0.00  0.00    +0.000 C 
ATOM     24  N   UNL     1      -2.965  11.783  18.879  0.00  0.00    +0.000 N 
ATOM     25  C   UNL     1      -3.632  10.811  18.195  0.00  0.00    +0.000 A 
ATOM     26  N   UNL     1      -2.800  10.152  17.429  0.00  0.00    +0.000 NA
ATOM     27  N   UNL     1      -1.554  10.708  17.594  0.00  0.00    +0.000 NA
ATOM     28  C   UNL     1      -1.656  11.714  18.454  0.00  0.00    +0.000 A 
ENDBRANCH  20  28
ENDBRANCH  17  20
ENDBRANCH  11  17
ENDBRANCH   1  15
BRANCH   8  29
ATOM     29  C   UNL     1       1.668   3.454  20.489  0.00  0.00    +0.000 C 
ATOM     30  F   UNL     1       1.987   3.564  21.809  0.00  0.00    +0.000 F 
ATOM     31  F   UNL     1       0.314   3.580  20.429  0.00  0.00    +0.000 F 
ATOM     32  F   UNL     1       1.946   2.165  20.155  0.00  0.00    +0.000 F 
ENDBRANCH   8  29
BRANCH   6  33
ATOM     33  C   UNL     1       4.888   4.357  16.731  0.00  0.00    +0.000 C 
BRANCH  33  34
ATOM     34  N   UNL     1       6.269   4.554  17.183  0.00  0.00    +0.000 NA
ATOM     35  C   UNL     1       6.970   5.651  16.513  0.00  0.00    +0.000 C 
ATOM     36  C   UNL     1       7.428   6.636  17.575  0.00  0.00    +0.000 C 
ATOM     37  C   UNL     1       7.364   5.877  18.877  0.00  0.00    +0.000 C 
ATOM     38  F   UNL     1       8.589   5.356  19.154  0.00  0.00    +0.000 F 
ATOM     39  C   UNL     1       6.370   4.751  18.637  0.00  0.00    +0.000 C 
ENDBRANCH  33  34
ENDBRANCH   6  33
TORSDOF 7
ENDMDL
MODEL 5
REMARK VINA RESULT:      -9.8      1.615      2.587
REMARK  Name = 
REMARK  8 active torsions:
REMARK  status: ('A' for Active; 'I' for Inactive)
REMARK    1  A    between atoms: C_1  and  N_2
REMARK    2  A    between atoms: C_6  and  C_7
REMARK    3  A    between atoms: C_7  and  C_10
REMARK    4  A    between atoms: C_10  and  C_11
REMARK    5  A    between atoms: C_15  and  N_16
REMARK    6  A    between atoms: C_21  and  C_22
REMARK    7  A    between atoms: C_22  and  N_23
REMARK    8  A    between atoms: C_30  and  C_31
REMARK                            x       y       z     vdW  Elec       q    Type
REMARK                         _______ _______ _______ _____ _____    ______ ____
ROOT
ATOM      1  N   UNL     1       1.482   8.184  20.328  0.00  0.00    +0.000 N 
ATOM      2  C   UNL     1       1.647   6.854  20.876  0.00  0.00    +0.000 C 
ATOM      3  C   UNL     1       2.245   6.077  19.767  0.00  0.00    +0.000 A 
ATOM      4  C   UNL     1       2.654   6.948  18.758  0.00  0.00    +0.000 A 
ATOM      5  C   UNL     1       3.450   6.506  17.713  0.00  0.00    +0.000 A 
ATOM      6  C   UNL     1       3.783   5.135  17.668  0.00  0.00    +0.000 A 
ATOM      7  C   UNL     1       3.232   4.249  18.624  0.00  0.00    +0.000 A 
ATOM      8  C   UNL     1       2.449   4.705  19.691  0.00  0.00    +0.000 A 
ATOM      9  C   UNL     1       2.062   8.287  19.058  0.00  0.00    +0.000 C 
ATOM     10  O   UNL     1       2.097   9.225  18.292  0.00  0.00    +0.000 OA
ENDROOT
BRANCH   1  15
ATOM     11  C   UNL     1      -0.069  11.454  21.235  0.00  0.00    +0.000 A 
ATOM     12  C   UNL     1      -0.672  11.132  22.450  0.00  0.00    +0.000 A 
ATOM     13  C   UNL     1      -0.637   9.816  22.940  0.00  0.00    +0.000 A 
ATOM     14  C   UNL     1       0.017   8.792  22.232  0.00  0.00    +0.000 A 
ATOM     15  C   UNL     1       0.634   9.083  21.023  0.00  0.00    +0.000 A 
ATOM     16  C   UNL     1       0.528  10.397  20.530  0.00  0.00    +0.000 A 
BRANCH  11  17
ATOM     17  C   UNL     1       0.085  12.879  20.691  0.00  0.00    +0.000 C 
ATOM     18  C   UNL     1       1.526  13.415  20.848  0.00  0.00    +0.000 C 
ATOM     19  C   UNL     1       0.418  14.027  21.642  0.00  0.00    +0.000 C 
BRANCH  17  20
ATOM     20  C   UNL     1      -0.725  13.217  19.416  0.00  0.00    +0.000 C 
ATOM     21  F   UNL     1      -0.041  12.721  18.339  0.00  0.00    +0.000 F 
ATOM     22  F   UNL     1      -0.699  14.575  19.235  0.00  0.00    +0.000 F 
BRANCH  20  28
ATOM     23  C   UNL     1      -2.156  11.281  17.326  0.00  0.00    +0.000 C 
ATOM     24  N   UNL     1      -2.729  11.904  18.488  0.00  0.00    +0.000 N 
ATOM     25  C   UNL     1      -4.026  11.755  18.879  0.00  0.00    +0.000 A 
ATOM     26  N   UNL     1      -4.259  12.488  19.939  0.00  0.00    +0.000 NA
ATOM     27  N   UNL     1      -3.088  13.126  20.270  0.00  0.00    +0.000 NA
ATOM     28  C   UNL     1      -2.152  12.754  19.407  0.00  0.00    +0.000 A 
ENDBRANCH  20  28
ENDBRANCH  17  20
ENDBRANCH  11  17
ENDBRANCH   1  15
BRANCH   8  29
ATOM     29  C   UNL     1       1.839   3.729  20.661  0.00  0.00    +0.000 C 
ATOM     30  F   UNL     1       0.478   3.780  20.715  0.00  0.00    +0.000 F 
ATOM     31  F   UNL     1       2.143   2.439  20.355  0.00  0.00    +0.000 F 
ATOM     32  F   UNL     1       2.261   3.927  21.939  0.00  0.00    +0.000 F 
ENDBRANCH   8  29
BRANCH   6  33
ATOM     33  C   UNL     1       4.769   4.569  16.659  0.00  0.00    +0.000 C 
BRANCH  33  34
ATOM     34  N   UNL     1       6.167   4.693  17.081  0.00  0.00    +0.000 NA
ATOM     35  C   UNL     1       6.869   5.840  16.504  0.00  0.00    +0.000 C 
ATOM     36  C   UNL     1       7.382   6.702  17.646  0.00  0.00    +0.000 C 
ATOM     37  C   UNL     1       7.344   5.814  18.865  0.00  0.00    +0.000 C 
ATOM     38  F   UNL     1       8.566   5.246  19.044  0.00  0.00    +0.000 F 
ATOM     39  C   UNL     1       6.319   4.737  18.543  0.00  0.00    +0.000 C 
ENDBRANCH  33  34
ENDBRANCH   6  33
TORSDOF 7
ENDMDL
MODEL 6
REMARK VINA RESULT:      -9.7      0.587      1.016
REMARK  Name = 
REMARK  8 active torsions:
REMARK  status: ('A' for Active; 'I' for Inactive)
REMARK    1  A    between atoms: C_1  and  N_2
REMARK    2  A    between atoms: C_6  and  C_7
REMARK    3  A    between atoms: C_7  and  C_10
REMARK    4  A    between atoms: C_10  and  C_11
REMARK    5  A    between atoms: C_15  and  N_16
REMARK    6  A    between atoms: C_21  and  C_22
REMARK    7  A    between atoms: C_22  and  N_23
REMARK    8  A    between atoms: C_30  and  C_31
REMARK                            x       y       z     vdW  Elec       q    Type
REMARK                         _______ _______ _______ _____ _____    ______ ____
ROOT
ATOM      1  N   UNL     1       1.516   8.129  20.120  0.00  0.00    +0.000 N 
ATOM      2  C   UNL     1       1.595   6.808  20.708  0.00  0.00    +0.000 C 
ATOM      3  C   UNL     1       2.255   5.989  19.667  0.00  0.00    +0.000 A 
ATOM      4  C   UNL     1       2.770   6.823  18.677  0.00  0.00    +0.000 A 
ATOM      5  C   UNL     1       3.633   6.333  17.708  0.00  0.00    +0.000 A 
ATOM      6  C   UNL     1       3.925   4.952  17.719  0.00  0.00    +0.000 A 
ATOM      7  C   UNL     1       3.272   4.106  18.646  0.00  0.00    +0.000 A 
ATOM      8  C   UNL     1       2.422   4.609  19.636  0.00  0.00    +0.000 A 
ATOM      9  C   UNL     1       2.198   8.186  18.899  0.00  0.00    +0.000 C 
ATOM     10  O   UNL     1       2.324   9.104  18.119  0.00  0.00    +0.000 OA
ENDROOT
BRANCH   1  15
ATOM     11  C   UNL     1      -0.726  11.103  20.345  0.00  0.00    +0.000 A 
ATOM     12  C   UNL     1      -0.823  11.257  21.728  0.00  0.00    +0.000 A 
ATOM     13  C   UNL     1      -0.214  10.335  22.595  0.00  0.00    +0.000 A 
ATOM     14  C   UNL     1       0.522   9.244  22.098  0.00  0.00    +0.000 A 
ATOM     15  C   UNL     1       0.644   9.069  20.726  0.00  0.00    +0.000 A 
ATOM     16  C   UNL     1      -0.029   9.975  19.885  0.00  0.00    +0.000 A 
BRANCH  11  17
ATOM     17  C   UNL     1      -1.216  12.132  19.319  0.00  0.00    +0.000 C 
ATOM     18  C   UNL     1      -2.716  11.961  18.988  0.00  0.00    +0.000 C 
ATOM     19  C   UNL     1      -1.689  11.673  17.942  0.00  0.00    +0.000 C 
BRANCH  17  20
ATOM     20  C   UNL     1      -0.612  13.553  19.433  0.00  0.00    +0.000 C 
ATOM     21  F   UNL     1      -1.305  14.230  20.400  0.00  0.00    +0.000 F 
ATOM     22  F   UNL     1      -0.894  14.236  18.278  0.00  0.00    +0.000 F 
BRANCH  20  28
ATOM     23  C   UNL     1       0.901  14.632  22.023  0.00  0.00    +0.000 C 
ATOM     24  N   UNL     1       1.479  14.081  20.829  0.00  0.00    +0.000 N 
ATOM     25  C   UNL     1       2.818  13.938  20.618  0.00  0.00    +0.000 A 
ATOM     26  N   UNL     1       3.033  13.460  19.419  0.00  0.00    +0.000 NA
ATOM     27  N   UNL     1       1.810  13.264  18.823  0.00  0.00    +0.000 NA
ATOM     28  C   UNL     1       0.865  13.617  19.686  0.00  0.00    +0.000 A 
ENDBRANCH  20  28
ENDBRANCH  17  20
ENDBRANCH  11  17
ENDBRANCH   1  15
BRANCH   8  29
ATOM     29  C   UNL     1       1.706   3.675  20.575  0.00  0.00    +0.000 C 
ATOM     30  F   UNL     1       1.954   2.356  20.338  0.00  0.00    +0.000 F 
ATOM     31  F   UNL     1       2.053   3.884  21.874  0.00  0.00    +0.000 F 
ATOM     32  F   UNL     1       0.353   3.806  20.515  0.00  0.00    +0.000 F 
ENDBRANCH   8  29
BRANCH   6  33
ATOM     33  C   UNL     1       4.970   4.334  16.804  0.00  0.00    +0.000 C 
BRANCH  33  34
ATOM     34  N   UNL     1       6.346   4.590  17.239  0.00  0.00    +0.000 NA
ATOM     35  C   UNL     1       6.995   5.710  16.554  0.00  0.00    +0.000 C 
ATOM     36  C   UNL     1       7.424   6.721  17.605  0.00  0.00    +0.000 C 
ATOM     37  C   UNL     1       7.405   5.969  18.913  0.00  0.00    +0.000 C 
ATOM     38  F   UNL     1       8.653   5.501  19.179  0.00  0.00    +0.000 F 
ATOM     39  C   UNL     1       6.455   4.802  18.690  0.00  0.00    +0.000 C 
ENDBRANCH  33  34
ENDBRANCH   6  33
TORSDOF 7
ENDMDL
MODEL 7
REMARK VINA RESULT:      -9.6      1.144      1.330
REMARK  Name = 
REMARK  8 active torsions:
REMARK  status: ('A' for Active; 'I' for Inactive)
REMARK    1  A    between atoms: C_1  and  N_2
REMARK    2  A    between atoms: C_6  and  C_7
REMARK    3  A    between atoms: C_7  and  C_10
REMARK    4  A    between atoms: C_10  and  C_11
REMARK    5  A    between atoms: C_15  and  N_16
REMARK    6  A    between atoms: C_21  and  C_22
REMARK    7  A    between atoms: C_22  and  N_23
REMARK    8  A    between atoms: C_30  and  C_31
REMARK                            x       y       z     vdW  Elec       q    Type
REMARK                         _______ _______ _______ _____ _____    ______ ____
ROOT
ATOM      1  N   UNL     1       1.439   8.124  20.334  0.00  0.00    +0.000 N 
ATOM      2  C   UNL     1       1.623   6.792  20.872  0.00  0.00    +0.000 C 
ATOM      3  C   UNL     1       2.262   6.042  19.768  0.00  0.00    +0.000 A 
ATOM      4  C   UNL     1       2.672   6.933  18.777  0.00  0.00    +0.000 A 
ATOM      5  C   UNL     1       3.500   6.520  17.744  0.00  0.00    +0.000 A 
ATOM      6  C   UNL     1       3.865   5.158  17.692  0.00  0.00    +0.000 A 
ATOM      7  C   UNL     1       3.314   4.249  18.627  0.00  0.00    +0.000 A 
ATOM      8  C   UNL     1       2.499   4.675  19.682  0.00  0.00    +0.000 A 
ATOM      9  C   UNL     1       2.042   8.255  19.078  0.00  0.00    +0.000 C 
ATOM     10  O   UNL     1       2.072   9.201  18.322  0.00  0.00    +0.000 OA
ENDROOT
BRANCH   1  15
ATOM     11  C   UNL     1      -0.535  11.225  20.974  0.00  0.00    +0.000 A 
ATOM     12  C   UNL     1      -0.873  11.050  22.317  0.00  0.00    +0.000 A 
ATOM     13  C   UNL     1      -0.518   9.874  22.997  0.00  0.00    +0.000 A 
ATOM     14  C   UNL     1       0.199   8.848  22.354  0.00  0.00    +0.000 A 
ATOM     15  C   UNL     1       0.556   8.996  21.020  0.00  0.00    +0.000 A 
ATOM     16  C   UNL     1       0.132  10.159  20.351  0.00  0.00    +0.000 A 
BRANCH  11  17
ATOM     17  C   UNL     1      -0.736  12.527  20.190  0.00  0.00    +0.000 C 
ATOM     18  C   UNL     1      -2.102  12.573  19.470  0.00  0.00    +0.000 C 
ATOM     19  C   UNL     1      -0.845  12.492  18.667  0.00  0.00    +0.000 C 
BRANCH  17  20
ATOM     20  C   UNL     1      -0.166  13.812  20.840  0.00  0.00    +0.000 C 
ATOM     21  F   UNL     1       0.837  13.443  21.694  0.00  0.00    +0.000 F 
ATOM     22  F   UNL     1      -1.128  14.343  21.660  0.00  0.00    +0.000 F 
BRANCH  20  28
ATOM     23  C   UNL     1       2.655  14.043  19.375  0.00  0.00    +0.000 C 
ATOM     24  N   UNL     1       1.529  14.928  19.265  0.00  0.00    +0.000 N 
ATOM     25  C   UNL     1       1.504  16.048  18.488  0.00  0.00    +0.000 A 
ATOM     26  N   UNL     1       0.363  16.673  18.642  0.00  0.00    +0.000 NA
ATOM     27  N   UNL     1      -0.395  15.945  19.528  0.00  0.00    +0.000 NA
ATOM     28  C   UNL     1       0.300  14.873  19.888  0.00  0.00    +0.000 A 
ENDBRANCH  20  28
ENDBRANCH  17  20
ENDBRANCH  11  17
ENDBRANCH   1  15
BRANCH   8  29
ATOM     29  C   UNL     1       1.892   3.675  20.629  0.00  0.00    +0.000 C 
ATOM     30  F   UNL     1       2.203   2.380  20.340  0.00  0.00    +0.000 F 
ATOM     31  F   UNL     1       2.297   3.870  21.913  0.00  0.00    +0.000 F 
ATOM     32  F   UNL     1       0.533   3.727  20.645  0.00  0.00    +0.000 F 
ENDBRANCH   8  29
BRANCH   6  33
ATOM     33  C   UNL     1       4.884   4.625  16.698  0.00  0.00    +0.000 C 
BRANCH  33  34
ATOM     34  N   UNL     1       6.268   4.745  17.166  0.00  0.00    +0.000 NA
ATOM     35  C   UNL     1       6.977   5.919  16.652  0.00  0.00    +0.000 C 
ATOM     36  C   UNL     1       7.448   6.743  17.839  0.00  0.00    +0.000 C 
ATOM     37  C   UNL     1       7.382   5.810  19.023  0.00  0.00    +0.000 C 
ATOM     38  F   UNL     1       8.603   5.246  19.218  0.00  0.00    +0.000 F 
ATOM     39  C   UNL     1       6.376   4.737  18.633  0.00  0.00    +0.000 C 
ENDBRANCH  33  34
ENDBRANCH   6  33
TORSDOF 7
ENDMDL
MODEL 8
REMARK VINA RESULT:      -9.6      2.960      9.473
REMARK  Name = 
REMARK  8 active torsions:
REMARK  status: ('A' for Active; 'I' for Inactive)
REMARK    1  A    between atoms: C_1  and  N_2
REMARK    2  A    between atoms: C_6  and  C_7
REMARK    3  A    between atoms: C_7  and  C_10
REMARK    4  A    between atoms: C_10  and  C_11
REMARK    5  A    between atoms: C_15  and  N_16
REMARK    6  A    between atoms: C_21  and  C_22
REMARK    7  A    between atoms: C_22  and  N_23
REMARK    8  A    between atoms: C_30  and  C_31
REMARK                            x       y       z     vdW  Elec       q    Type
REMARK                         _______ _______ _______ _____ _____    ______ ____
ROOT
ATOM      1  N   UNL     1       2.312   7.151  19.128  0.00  0.00    +0.000 N 
ATOM      2  C   UNL     1       1.479   7.457  20.273  0.00  0.00    +0.000 C 
ATOM      3  C   UNL     1       1.021   8.843  20.025  0.00  0.00    +0.000 A 
ATOM      4  C   UNL     1       1.330   9.207  18.716  0.00  0.00    +0.000 A 
ATOM      5  C   UNL     1       0.810  10.364  18.155  0.00  0.00    +0.000 A 
ATOM      6  C   UNL     1       0.007  11.192  18.970  0.00  0.00    +0.000 A 
ATOM      7  C   UNL     1      -0.167  10.871  20.337  0.00  0.00    +0.000 A 
ATOM      8  C   UNL     1       0.340   9.690  20.891  0.00  0.00    +0.000 A 
ATOM      9  C   UNL     1       2.263   8.173  18.173  0.00  0.00    +0.000 C 
ATOM     10  O   UNL     1       2.842   8.278  17.114  0.00  0.00    +0.000 OA
ENDROOT
BRANCH   1  15
ATOM     11  C   UNL     1       5.129   4.880  18.215  0.00  0.00    +0.000 A 
ATOM     12  C   UNL     1       4.793   3.738  18.943  0.00  0.00    +0.000 A 
ATOM     13  C   UNL     1       3.680   3.736  19.799  0.00  0.00    +0.000 A 
ATOM     14  C   UNL     1       2.864   4.874  19.936  0.00  0.00    +0.000 A 
ATOM     15  C   UNL     1       3.168   6.023  19.218  0.00  0.00    +0.000 A 
ATOM     16  C   UNL     1       4.324   6.013  18.418  0.00  0.00    +0.000 A 
BRANCH  11  17
ATOM     17  C   UNL     1       6.222   4.937  17.142  0.00  0.00    +0.000 C 
ATOM     18  C   UNL     1       7.637   4.749  17.735  0.00  0.00    +0.000 C 
ATOM     19  C   UNL     1       7.247   6.069  17.155  0.00  0.00    +0.000 C 
BRANCH  17  20
ATOM     20  C   UNL     1       5.872   4.302  15.774  0.00  0.00    +0.000 C 
ATOM     21  F   UNL     1       4.549   4.544  15.522  0.00  0.00    +0.000 F 
ATOM     22  F   UNL     1       5.946   2.939  15.901  0.00  0.00    +0.000 F 
BRANCH  20  28
ATOM     23  C   UNL     1       5.653   3.406  12.723  0.00  0.00    +0.000 C 
ATOM     24  N   UNL     1       6.590   4.324  13.308  0.00  0.00    +0.000 N 
ATOM     25  C   UNL     1       7.568   4.971  12.613  0.00  0.00    +0.000 A 
ATOM     26  N   UNL     1       8.293   5.694  13.429  0.00  0.00    +0.000 NA
ATOM     27  N   UNL     1       7.776   5.539  14.693  0.00  0.00    +0.000 NA
ATOM     28  C   UNL     1       6.727   4.729  14.618  0.00  0.00    +0.000 A 
ENDBRANCH  20  28
ENDBRANCH  17  20
ENDBRANCH  11  17
ENDBRANCH   1  15
BRANCH   8  29
ATOM     29  C   UNL     1       0.176   9.405  22.360  0.00  0.00    +0.000 C 
ATOM     30  F   UNL     1      -0.353  10.441  23.069  0.00  0.00    +0.000 F 
ATOM     31  F   UNL     1      -0.648   8.346  22.591  0.00  0.00    +0.000 F 
ATOM     32  F   UNL     1       1.355   9.111  22.972  0.00  0.00    +0.000 F 
ENDBRANCH   8  29
BRANCH   6  33
ATOM     33  C   UNL     1      -0.736  12.399  18.422  0.00  0.00    +0.000 C 
BRANCH  33  34
ATOM     34  N   UNL     1      -2.019  12.057  17.801  0.00  0.00    +0.000 NA
ATOM     35  C   UNL     1      -1.961  10.908  16.895  0.00  0.00    +0.000 C 
ATOM     36  C   UNL     1      -2.942   9.862  17.396  0.00  0.00    +0.000 C 
ATOM     37  C   UNL     1      -3.866  10.598  18.334  0.00  0.00    +0.000 C 
ATOM     38  F   UNL     1      -4.977  10.989  17.655  0.00  0.00    +0.000 F 
ATOM     39  C   UNL     1      -3.085  11.822  18.787  0.00  0.00    +0.000 C 
ENDBRANCH  33  34
ENDBRANCH   6  33
TORSDOF 7
ENDMDL
MODEL 9
REMARK VINA RESULT:      -9.6      1.377      1.678
REMARK  Name = 
REMARK  8 active torsions:
REMARK  status: ('A' for Active; 'I' for Inactive)
REMARK    1  A    between atoms: C_1  and  N_2
REMARK    2  A    between atoms: C_6  and  C_7
REMARK    3  A    between atoms: C_7  and  C_10
REMARK    4  A    between atoms: C_10  and  C_11
REMARK    5  A    between atoms: C_15  and  N_16
REMARK    6  A    between atoms: C_21  and  C_22
REMARK    7  A    between atoms: C_22  and  N_23
REMARK    8  A    between atoms: C_30  and  C_31
REMARK                            x       y       z     vdW  Elec       q    Type
REMARK                         _______ _______ _______ _____ _____    ______ ____
ROOT
ATOM      1  N   UNL     1       1.487   8.166  20.148  0.00  0.00    +0.000 N 
ATOM      2  C   UNL     1       1.621   6.851  20.739  0.00  0.00    +0.000 C 
ATOM      3  C   UNL     1       2.272   6.044  19.683  0.00  0.00    +0.000 A 
ATOM      4  C   UNL     1       2.733   6.887  18.673  0.00  0.00    +0.000 A 
ATOM      5  C   UNL     1       3.580   6.416  17.682  0.00  0.00    +0.000 A 
ATOM      6  C   UNL     1       3.911   5.044  17.690  0.00  0.00    +0.000 A 
ATOM      7  C   UNL     1       3.310   4.185  18.641  0.00  0.00    +0.000 A 
ATOM      8  C   UNL     1       2.475   4.670  19.654  0.00  0.00    +0.000 A 
ATOM      9  C   UNL     1       2.130   8.235  18.907  0.00  0.00    +0.000 C 
ATOM     10  O   UNL     1       2.207   9.152  18.118  0.00  0.00    +0.000 OA
ENDROOT
BRANCH   1  15
ATOM     11  C   UNL     1      -0.845  11.066  20.421  0.00  0.00    +0.000 A 
ATOM     12  C   UNL     1      -0.893  11.237  21.804  0.00  0.00    +0.000 A 
ATOM     13  C   UNL     1      -0.220  10.349  22.659  0.00  0.00    +0.000 A 
ATOM     14  C   UNL     1       0.533   9.276  22.149  0.00  0.00    +0.000 A 
ATOM     15  C   UNL     1       0.607   9.085  20.775  0.00  0.00    +0.000 A 
ATOM     16  C   UNL     1      -0.129   9.954  19.949  0.00  0.00    +0.000 A 
BRANCH  11  17
ATOM     17  C   UNL     1      -1.411  12.062  19.402  0.00  0.00    +0.000 C 
ATOM     18  C   UNL     1      -2.940  12.237  19.539  0.00  0.00    +0.000 C 
ATOM     19  C   UNL     1      -2.377  11.584  18.320  0.00  0.00    +0.000 C 
BRANCH  17  20
ATOM     20  C   UNL     1      -0.523  13.289  19.080  0.00  0.00    +0.000 C 
ATOM     21  F   UNL     1      -0.664  13.574  17.748  0.00  0.00    +0.000 F 
ATOM     22  F   UNL     1       0.790  12.917  19.206  0.00  0.00    +0.000 F 
BRANCH  20  28
ATOM     23  C   UNL     1       0.810  16.171  18.802  0.00  0.00    +0.000 C 
ATOM     24  N   UNL     1      -0.174  15.742  19.757  0.00  0.00    +0.000 N 
ATOM     25  C   UNL     1      -0.700  16.540  20.729  0.00  0.00    +0.000 A 
ATOM     26  N   UNL     1      -1.527  15.850  21.473  0.00  0.00    +0.000 NA
ATOM     27  N   UNL     1      -1.566  14.570  20.976  0.00  0.00    +0.000 NA
ATOM     28  C   UNL     1      -0.765  14.508  19.919  0.00  0.00    +0.000 A 
ENDBRANCH  20  28
ENDBRANCH  17  20
ENDBRANCH  11  17
ENDBRANCH   1  15
BRANCH   8  29
ATOM     29  C   UNL     1       1.814   3.721  20.618  0.00  0.00    +0.000 C 
ATOM     30  F   UNL     1       2.173   3.916  21.918  0.00  0.00    +0.000 F 
ATOM     31  F   UNL     1       0.458   3.824  20.594  0.00  0.00    +0.000 F 
ATOM     32  F   UNL     1       2.103   2.419  20.353  0.00  0.00    +0.000 F 
ENDBRANCH   8  29
BRANCH   6  33
ATOM     33  C   UNL     1       4.945   4.450  16.748  0.00  0.00    +0.000 C 
BRANCH  33  34
ATOM     34  N   UNL     1       6.324   4.632  17.209  0.00  0.00    +0.000 NA
ATOM     35  C   UNL     1       7.011   5.779  16.612  0.00  0.00    +0.000 C 
ATOM     36  C   UNL     1       7.460   6.698  17.735  0.00  0.00    +0.000 C 
ATOM     37  C   UNL     1       7.407   5.855  18.985  0.00  0.00    +0.000 C 
ATOM     38  F   UNL     1       8.639   5.332  19.226  0.00  0.00    +0.000 F 
ATOM     39  C   UNL     1       6.425   4.736  18.673  0.00  0.00    +0.000 C 
ENDBRANCH  33  34
ENDBRANCH   6  33
TORSDOF 7
ENDMDL
