MODEL 1
REMARK VINA RESULT:     -10.0      0.000      0.000
REMARK  Name = 
REMARK  8 active torsions:
REMARK  status: ('A' for Active; 'I' for Inactive)
REMARK    1  A    between atoms: C_1  and  N_2
REMARK    2  A    between atoms: C_6  and  C_7
REMARK    3  A    between atoms: C_7  and  C_8
REMARK    4  A    between atoms: C_8  and  C_9
REMARK    5  A    between atoms: C_13  and  N_14
REMARK    6  A    between atoms: C_19  and  C_20
REMARK    7  A    between atoms: C_20  and  N_21
REMARK    8  A    between atoms: C_29  and  C_30
REMARK                            x       y       z     vdW  Elec       q    Type
REMARK                         _______ _______ _______ _____ _____    ______ ____
ROOT
ATOM      1  N   UNL     1       2.391   7.252  19.298  0.00  0.00    +0.000 N 
ATOM      2  C   UNL     1       1.621   7.603  20.475  0.00  0.00    +0.000 C 
ATOM      3  C   UNL     1       1.054   8.925  20.167  0.00  0.00    +0.000 A 
ATOM      4  C   UNL     1       1.337   9.261  18.843  0.00  0.00    +0.000 A 
ATOM      5  C   UNL     1       0.833  10.424  18.291  0.00  0.00    +0.000 A 
ATOM      6  C   UNL     1       0.020  11.253  19.099  0.00  0.00    +0.000 A 
ATOM      7  C   UNL     1      -0.193  10.915  20.462  0.00  0.00    +0.000 A 
ATOM      8  C   UNL     1       0.328   9.750  21.023  0.00  0.00    +0.000 A 
ATOM      9  C   UNL     1       2.235   8.212  18.293  0.00  0.00    +0.000 C 
ATOM     10  O   UNL     1       2.721   8.263  17.175  0.00  0.00    +0.000 OA
ENDROOT
BRANCH   1  15
ATOM     11  C   UNL     1       5.505   5.233  18.833  0.00  0.00    +0.000 A 
ATOM     12  C   UNL     1       5.053   3.984  19.283  0.00  0.00    +0.000 A 
ATOM     13  C   UNL     1       3.746   3.802  19.764  0.00  0.00    +0.000 A 
ATOM     14  C   UNL     1       2.831   4.863  19.805  0.00  0.00    +0.000 A 
ATOM     15  C   UNL     1       3.236   6.120  19.371  0.00  0.00    +0.000 A 
ATOM     16  C   UNL     1       4.567   6.263  18.935  0.00  0.00    +0.000 A 
BRANCH  11  17
ATOM     17  C   UNL     1       6.981   5.548  18.264  0.00  0.00    +0.000 C 
ATOM     18  C   UNL     1       8.017   5.930  19.359  0.00  0.00    +0.000 C 
ATOM     19  O   UNL     1       8.217   7.249  18.818  0.00  0.00    +0.000 OA
ATOM     20  C   UNL     1       7.267   7.004  17.761  0.00  0.00    +0.000 C 
BRANCH  17  21
ATOM     21  C   UNL     1       7.469   4.448  17.274  0.00  0.00    +0.000 C 
BRANCH  21  27
ATOM     22  C   UNL     1       4.704   3.459  15.889  0.00  0.00    +0.000 C 
ATOM     23  N   UNL     1       5.811   4.164  15.300  0.00  0.00    +0.000 N 
ATOM     24  C   UNL     1       5.859   4.502  13.975  0.00  0.00    +0.000 A 
ATOM     25  N   UNL     1       7.004   5.090  13.711  0.00  0.00    +0.000 NA
ATOM     26  N   UNL     1       7.725   5.132  14.875  0.00  0.00    +0.000 NA
ATOM     27  C   UNL     1       7.004   4.596  15.849  0.00  0.00    +0.000 A 
ENDBRANCH  21  27
ENDBRANCH  17  21
ENDBRANCH  11  17
ENDBRANCH   1  15
BRANCH   8  28
ATOM     28  C   UNL     1       0.141   9.428  22.483  0.00  0.00    +0.000 C 
ATOM     29  F   UNL     1       1.293   9.150  23.149  0.00  0.00    +0.000 F 
ATOM     30  F   UNL     1      -0.443  10.455  23.161  0.00  0.00    +0.000 F 
ATOM     31  F   UNL     1      -0.658   8.345  22.675  0.00  0.00    +0.000 F 
ENDBRANCH   8  28
BRANCH   6  32
ATOM     32  C   UNL     1      -0.655  12.490  18.559  0.00  0.00    +0.000 C 
BRANCH  32  33
ATOM     33  N   UNL     1      -1.986  12.225  17.965  0.00  0.00    +0.000 NA
ATOM     34  C   UNL     1      -3.022  12.144  19.004  0.00  0.00    +0.000 C 
ATOM     35  C   UNL     1      -4.363  11.577  18.539  0.00  0.00    +0.000 C 
ATOM     36  C   UNL     1      -4.185  10.238  17.839  0.00  0.00    +0.000 C 
ATOM     37  C   UNL     1      -3.251  10.417  16.658  0.00  0.00    +0.000 C 
ATOM     38  F   UNL     1      -3.860  11.216  15.737  0.00  0.00    +0.000 F 
ATOM     39  C   UNL     1      -1.915  11.043  17.080  0.00  0.00    +0.000 C 
ENDBRANCH  32  33
ENDBRANCH   6  32
TORSDOF 7
ENDMDL
MODEL 2
REMARK VINA RESULT:      -9.6      1.938      2.902
REMARK  Name = 
REMARK  8 active torsions:
REMARK  status: ('A' for Active; 'I' for Inactive)
REMARK    1  A    between atoms: C_1  and  N_2
REMARK    2  A    between atoms: C_6  and  C_7
REMARK    3  A    between atoms: C_7  and  C_8
REMARK    4  A    between atoms: C_8  and  C_9
REMARK    5  A    between atoms: C_13  and  N_14
REMARK    6  A    between atoms: C_19  and  C_20
REMARK    7  A    between atoms: C_20  and  N_21
REMARK    8  A    between atoms: C_29  and  C_30
REMARK                            x       y       z     vdW  Elec       q    Type
REMARK                         _______ _______ _______ _____ _____    ______ ____
ROOT
ATOM      1  N   UNL     1       2.380   7.389  19.284  0.00  0.00    +0.000 N 
ATOM      2  C   UNL     1       1.589   7.731  20.449  0.00  0.00    +0.000 C 
ATOM      3  C   UNL     1       1.091   9.088  20.174  0.00  0.00    +0.000 A 
ATOM      4  C   UNL     1       1.432   9.459  18.874  0.00  0.00    +0.000 A 
ATOM      5  C   UNL     1       1.000  10.663  18.350  0.00  0.00    +0.000 A 
ATOM      6  C   UNL     1       0.198  11.498  19.164  0.00  0.00    +0.000 A 
ATOM      7  C   UNL     1      -0.075  11.121  20.506  0.00  0.00    +0.000 A 
ATOM      8  C   UNL     1       0.376   9.913  21.038  0.00  0.00    +0.000 A 
ATOM      9  C   UNL     1       2.300   8.391  18.312  0.00  0.00    +0.000 C 
ATOM     10  O   UNL     1       2.824   8.460  17.213  0.00  0.00    +0.000 OA
ENDROOT
BRANCH   1  15
ATOM     11  C   UNL     1       5.406   5.241  18.818  0.00  0.00    +0.000 A 
ATOM     12  C   UNL     1       4.889   4.002  19.225  0.00  0.00    +0.000 A 
ATOM     13  C   UNL     1       3.567   3.868  19.678  0.00  0.00    +0.000 A 
ATOM     14  C   UNL     1       2.701   4.969  19.732  0.00  0.00    +0.000 A 
ATOM     15  C   UNL     1       3.171   6.217  19.340  0.00  0.00    +0.000 A 
ATOM     16  C   UNL     1       4.515   6.310  18.932  0.00  0.00    +0.000 A 
BRANCH  11  17
ATOM     17  C   UNL     1       6.906   5.502  18.284  0.00  0.00    +0.000 C 
ATOM     18  C   UNL     1       7.931   5.842  19.404  0.00  0.00    +0.000 C 
ATOM     19  O   UNL     1       8.191   7.153  18.874  0.00  0.00    +0.000 OA
ATOM     20  C   UNL     1       7.258   6.948  17.794  0.00  0.00    +0.000 C 
BRANCH  17  21
ATOM     21  C   UNL     1       7.375   4.388  17.300  0.00  0.00    +0.000 C 
BRANCH  21  27
ATOM     22  C   UNL     1       4.639   3.467  15.816  0.00  0.00    +0.000 C 
ATOM     23  N   UNL     1       5.775   4.161  15.272  0.00  0.00    +0.000 N 
ATOM     24  C   UNL     1       5.870   4.516  13.954  0.00  0.00    +0.000 A 
ATOM     25  N   UNL     1       7.032   5.088  13.734  0.00  0.00    +0.000 NA
ATOM     26  N   UNL     1       7.718   5.101  14.921  0.00  0.00    +0.000 NA
ATOM     27  C   UNL     1       6.957   4.564  15.865  0.00  0.00    +0.000 A 
ENDBRANCH  21  27
ENDBRANCH  17  21
ENDBRANCH  11  17
ENDBRANCH   1  15
BRANCH   8  28
ATOM     28  C   UNL     1       0.127   9.548  22.478  0.00  0.00    +0.000 C 
ATOM     29  F   UNL     1      -0.435  10.539  23.220  0.00  0.00    +0.000 F 
ATOM     30  F   UNL     1      -0.706   8.476  22.596  0.00  0.00    +0.000 F 
ATOM     31  F   UNL     1       1.272   9.211  23.131  0.00  0.00    +0.000 F 
ENDBRANCH   8  28
BRANCH   6  32
ATOM     32  C   UNL     1      -0.404  12.784  18.650  0.00  0.00    +0.000 C 
BRANCH  32  33
ATOM     33  N   UNL     1       0.256  13.999  19.183  0.00  0.00    +0.000 NA
ATOM     34  C   UNL     1      -0.484  15.211  18.804  0.00  0.00    +0.000 C 
ATOM     35  C   UNL     1       0.262  16.524  19.035  0.00  0.00    +0.000 C 
ATOM     36  C   UNL     1       1.639  16.500  18.389  0.00  0.00    +0.000 C 
ATOM     37  C   UNL     1       2.432  15.338  18.955  0.00  0.00    +0.000 C 
ATOM     38  F   UNL     1       2.668  15.574  20.276  0.00  0.00    +0.000 F 
ATOM     39  C   UNL     1       1.682  14.008  18.795  0.00  0.00    +0.000 C 
ENDBRANCH  32  33
ENDBRANCH   6  32
TORSDOF 7
ENDMDL
MODEL 3
REMARK VINA RESULT:      -9.6      1.818      2.835
REMARK  Name = 
REMARK  8 active torsions:
REMARK  status: ('A' for Active; 'I' for Inactive)
REMARK    1  A    between atoms: C_1  and  N_2
REMARK    2  A    between atoms: C_6  and  C_7
REMARK    3  A    between atoms: C_7  and  C_8
REMARK    4  A    between atoms: C_8  and  C_9
REMARK    5  A    between atoms: C_13  and  N_14
REMARK    6  A    between atoms: C_19  and  C_20
REMARK    7  A    between atoms: C_20  and  N_21
REMARK    8  A    between atoms: C_29  and  C_30
REMARK                            x       y       z     vdW  Elec       q    Type
REMARK                         _______ _______ _______ _____ _____    ______ ____
ROOT
ATOM      1  N   UNL     1       2.383   7.287  19.277  0.00  0.00    +0.000 N 
ATOM      2  C   UNL     1       1.618   7.652  20.453  0.00  0.00    +0.000 C 
ATOM      3  C   UNL     1       1.048   8.969  20.130  0.00  0.00    +0.000 A 
ATOM      4  C   UNL     1       1.325   9.289  18.801  0.00  0.00    +0.000 A 
ATOM      5  C   UNL     1       0.817  10.444  18.236  0.00  0.00    +0.000 A 
ATOM      6  C   UNL     1       0.007  11.282  19.038  0.00  0.00    +0.000 A 
ATOM      7  C   UNL     1      -0.200  10.962  20.406  0.00  0.00    +0.000 A 
ATOM      8  C   UNL     1       0.325   9.804  20.979  0.00  0.00    +0.000 A 
ATOM      9  C   UNL     1       2.221   8.234  18.260  0.00  0.00    +0.000 C 
ATOM     10  O   UNL     1       2.703   8.271  17.140  0.00  0.00    +0.000 OA
ENDROOT
BRANCH   1  15
ATOM     11  C   UNL     1       5.499   5.268  18.830  0.00  0.00    +0.000 A 
ATOM     12  C   UNL     1       5.050   4.023  19.293  0.00  0.00    +0.000 A 
ATOM     13  C   UNL     1       3.744   3.844  19.777  0.00  0.00    +0.000 A 
ATOM     14  C   UNL     1       2.827   4.904  19.808  0.00  0.00    +0.000 A 
ATOM     15  C   UNL     1       3.230   6.157  19.360  0.00  0.00    +0.000 A 
ATOM     16  C   UNL     1       4.560   6.297  18.922  0.00  0.00    +0.000 A 
BRANCH  11  17
ATOM     17  C   UNL     1       6.975   5.579  18.256  0.00  0.00    +0.000 C 
ATOM     18  C   UNL     1       8.009   5.985  19.344  0.00  0.00    +0.000 C 
ATOM     19  O   UNL     1       8.203   7.294  18.780  0.00  0.00    +0.000 OA
ATOM     20  C   UNL     1       7.255   7.027  17.727  0.00  0.00    +0.000 C 
BRANCH  17  21
ATOM     21  C   UNL     1       7.468   4.463  17.285  0.00  0.00    +0.000 C 
BRANCH  21  27
ATOM     22  C   UNL     1       4.715   3.433  15.907  0.00  0.00    +0.000 C 
ATOM     23  N   UNL     1       5.818   4.137  15.311  0.00  0.00    +0.000 N 
ATOM     24  C   UNL     1       5.868   4.455  13.981  0.00  0.00    +0.000 A 
ATOM     25  N   UNL     1       7.009   5.048  13.711  0.00  0.00    +0.000 NA
ATOM     26  N   UNL     1       7.727   5.113  14.877  0.00  0.00    +0.000 NA
ATOM     27  C   UNL     1       7.006   4.586  15.858  0.00  0.00    +0.000 A 
ENDBRANCH  21  27
ENDBRANCH  17  21
ENDBRANCH  11  17
ENDBRANCH   1  15
BRANCH   8  28
ATOM     28  C   UNL     1       0.145   9.501  22.444  0.00  0.00    +0.000 C 
ATOM     29  F   UNL     1      -0.655   8.432  22.702  0.00  0.00    +0.000 F 
ATOM     30  F   UNL     1       1.331   9.237  23.060  0.00  0.00    +0.000 F 
ATOM     31  F   UNL     1      -0.411  10.541  23.122  0.00  0.00    +0.000 F 
ENDBRANCH   8  28
BRANCH   6  32
ATOM     32  C   UNL     1      -0.673  12.512  18.485  0.00  0.00    +0.000 C 
BRANCH  32  33
ATOM     33  N   UNL     1       0.179  13.723  18.517  0.00  0.00    +0.000 NA
ATOM     34  C   UNL     1       1.601  13.372  18.394  0.00  0.00    +0.000 C 
ATOM     35  C   UNL     1       2.577  14.502  18.720  0.00  0.00    +0.000 C 
ATOM     36  C   UNL     1       2.282  15.114  20.081  0.00  0.00    +0.000 C 
ATOM     37  C   UNL     1       0.857  15.631  20.093  0.00  0.00    +0.000 C 
ATOM     38  F   UNL     1       0.761  16.668  19.214  0.00  0.00    +0.000 F 
ATOM     39  C   UNL     1      -0.148  14.536  19.708  0.00  0.00    +0.000 C 
ENDBRANCH  32  33
ENDBRANCH   6  32
TORSDOF 7
ENDMDL
MODEL 4
REMARK VINA RESULT:      -9.6      3.200     10.126
REMARK  Name = 
REMARK  8 active torsions:
REMARK  status: ('A' for Active; 'I' for Inactive)
REMARK    1  A    between atoms: C_1  and  N_2
REMARK    2  A    between atoms: C_6  and  C_7
REMARK    3  A    between atoms: C_7  and  C_8
REMARK    4  A    between atoms: C_8  and  C_9
REMARK    5  A    between atoms: C_13  and  N_14
REMARK    6  A    between atoms: C_19  and  C_20
REMARK    7  A    between atoms: C_20  and  N_21
REMARK    8  A    between atoms: C_29  and  C_30
REMARK                            x       y       z     vdW  Elec       q    Type
REMARK                         _______ _______ _______ _____ _____    ______ ____
ROOT
ATOM      1  N   UNL     1       1.181   8.464  20.499  0.00  0.00    +0.000 N 
ATOM      2  C   UNL     1       1.381   7.102  20.953  0.00  0.00    +0.000 C 
ATOM      3  C   UNL     1       2.077   6.438  19.839  0.00  0.00    +0.000 A 
ATOM      4  C   UNL     1       2.405   7.378  18.863  0.00  0.00    +0.000 A 
ATOM      5  C   UNL     1       3.142   7.011  17.752  0.00  0.00    +0.000 A 
ATOM      6  C   UNL     1       3.559   5.663  17.641  0.00  0.00    +0.000 A 
ATOM      7  C   UNL     1       3.151   4.717  18.619  0.00  0.00    +0.000 A 
ATOM      8  C   UNL     1       2.394   5.086  19.731  0.00  0.00    +0.000 A 
ATOM      9  C   UNL     1       1.792   8.673  19.259  0.00  0.00    +0.000 C 
ATOM     10  O   UNL     1       1.837   9.678  18.567  0.00  0.00    +0.000 OA
ENDROOT
BRANCH   1  15
ATOM     11  C   UNL     1      -1.175  11.281  21.205  0.00  0.00    +0.000 A 
ATOM     12  C   UNL     1      -1.266  11.177  22.601  0.00  0.00    +0.000 A 
ATOM     13  C   UNL     1      -0.585  10.176  23.311  0.00  0.00    +0.000 A 
ATOM     14  C   UNL     1       0.226   9.240  22.654  0.00  0.00    +0.000 A 
ATOM     15  C   UNL     1       0.344   9.303  21.270  0.00  0.00    +0.000 A 
ATOM     16  C   UNL     1      -0.389  10.300  20.598  0.00  0.00    +0.000 A 
BRANCH  11  17
ATOM     17  C   UNL     1      -1.915  12.390  20.296  0.00  0.00    +0.000 C 
ATOM     18  C   UNL     1      -2.753  11.800  19.128  0.00  0.00    +0.000 C 
ATOM     19  O   UNL     1      -1.942  12.435  18.123  0.00  0.00    +0.000 OA
ATOM     20  C   UNL     1      -1.093  13.031  19.126  0.00  0.00    +0.000 C 
BRANCH  17  21
ATOM     21  C   UNL     1      -2.672  13.441  21.164  0.00  0.00    +0.000 C 
BRANCH  21  27
ATOM     22  C   UNL     1      -5.483  14.200  19.728  0.00  0.00    +0.000 C 
ATOM     23  N   UNL     1      -5.252  13.415  20.911  0.00  0.00    +0.000 N 
ATOM     24  C   UNL     1      -6.266  12.878  21.657  0.00  0.00    +0.000 A 
ATOM     25  N   UNL     1      -5.764  12.258  22.702  0.00  0.00    +0.000 NA
ATOM     26  N   UNL     1      -4.402  12.397  22.649  0.00  0.00    +0.000 NA
ATOM     27  C   UNL     1      -4.078  13.075  21.557  0.00  0.00    +0.000 A 
ENDBRANCH  21  27
ENDBRANCH  17  21
ENDBRANCH  11  17
ENDBRANCH   1  15
BRANCH   8  28
ATOM     28  C   UNL     1       1.920   4.066  20.733  0.00  0.00    +0.000 C 
ATOM     29  F   UNL     1       2.301   2.790  20.459  0.00  0.00    +0.000 F 
ATOM     30  F   UNL     1       2.382   4.331  21.988  0.00  0.00    +0.000 F 
ATOM     31  F   UNL     1       0.564   4.026  20.829  0.00  0.00    +0.000 F 
ENDBRANCH   8  28
BRANCH   6  32
ATOM     32  C   UNL     1       4.449   5.186  16.519  0.00  0.00    +0.000 C 
BRANCH  32  33
ATOM     33  N   UNL     1       5.879   5.517  16.717  0.00  0.00    +0.000 NA
ATOM     34  C   UNL     1       6.534   4.529  17.585  0.00  0.00    +0.000 C 
ATOM     35  C   UNL     1       7.915   4.934  18.100  0.00  0.00    +0.000 C 
ATOM     36  C   UNL     1       7.880   6.304  18.761  0.00  0.00    +0.000 C 
ATOM     37  C   UNL     1       7.372   7.323  17.761  0.00  0.00    +0.000 C 
ATOM     38  F   UNL     1       8.285   7.442  16.756  0.00  0.00    +0.000 F 
ATOM     39  C   UNL     1       6.012   6.917  17.175  0.00  0.00    +0.000 C 
ENDBRANCH  32  33
ENDBRANCH   6  32
TORSDOF 7
ENDMDL
MODEL 5
REMARK VINA RESULT:      -9.5      1.867      2.473
REMARK  Name = 
REMARK  8 active torsions:
REMARK  status: ('A' for Active; 'I' for Inactive)
REMARK    1  A    between atoms: C_1  and  N_2
REMARK    2  A    between atoms: C_6  and  C_7
REMARK    3  A    between atoms: C_7  and  C_8
REMARK    4  A    between atoms: C_8  and  C_9
REMARK    5  A    between atoms: C_13  and  N_14
REMARK    6  A    between atoms: C_19  and  C_20
REMARK    7  A    between atoms: C_20  and  N_21
REMARK    8  A    between atoms: C_29  and  C_30
REMARK                            x       y       z     vdW  Elec       q    Type
REMARK                         _______ _______ _______ _____ _____    ______ ____
ROOT
ATOM      1  N   UNL     1       2.366   7.341  19.319  0.00  0.00    +0.000 N 
ATOM      2  C   UNL     1       1.605   7.691  20.502  0.00  0.00    +0.000 C 
ATOM      3  C   UNL     1       1.049   9.021  20.206  0.00  0.00    +0.000 A 
ATOM      4  C   UNL     1       1.329   9.363  18.884  0.00  0.00    +0.000 A 
ATOM      5  C   UNL     1       0.835  10.535  18.341  0.00  0.00    +0.000 A 
ATOM      6  C   UNL     1       0.034  11.366  19.159  0.00  0.00    +0.000 A 
ATOM      7  C   UNL     1      -0.177  11.021  20.521  0.00  0.00    +0.000 A 
ATOM      8  C   UNL     1       0.336   9.847  21.072  0.00  0.00    +0.000 A 
ATOM      9  C   UNL     1       2.214   8.309  18.322  0.00  0.00    +0.000 C 
ATOM     10  O   UNL     1       2.696   8.363  17.202  0.00  0.00    +0.000 OA
ENDROOT
BRANCH   1  15
ATOM     11  C   UNL     1       5.455   5.292  18.820  0.00  0.00    +0.000 A 
ATOM     12  C   UNL     1       4.994   4.046  19.269  0.00  0.00    +0.000 A 
ATOM     13  C   UNL     1       3.690   3.875  19.760  0.00  0.00    +0.000 A 
ATOM     14  C   UNL     1       2.786   4.946  19.813  0.00  0.00    +0.000 A 
ATOM     15  C   UNL     1       3.200   6.200  19.381  0.00  0.00    +0.000 A 
ATOM     16  C   UNL     1       4.528   6.331  18.934  0.00  0.00    +0.000 A 
BRANCH  11  17
ATOM     17  C   UNL     1       6.930   5.595  18.240  0.00  0.00    +0.000 C 
ATOM     18  C   UNL     1       7.970   5.998  19.324  0.00  0.00    +0.000 C 
ATOM     19  O   UNL     1       8.168   7.305  18.756  0.00  0.00    +0.000 OA
ATOM     20  C   UNL     1       7.215   7.040  17.706  0.00  0.00    +0.000 C 
BRANCH  17  21
ATOM     21  C   UNL     1       7.414   4.474  17.271  0.00  0.00    +0.000 C 
BRANCH  21  27
ATOM     22  C   UNL     1       4.653   3.531  15.846  0.00  0.00    +0.000 C 
ATOM     23  N   UNL     1       5.786   4.205  15.270  0.00  0.00    +0.000 N 
ATOM     24  C   UNL     1       5.865   4.526  13.943  0.00  0.00    +0.000 A 
ATOM     25  N   UNL     1       7.027   5.086  13.693  0.00  0.00    +0.000 NA
ATOM     26  N   UNL     1       7.729   5.125  14.869  0.00  0.00    +0.000 NA
ATOM     27  C   UNL     1       6.977   4.616  15.837  0.00  0.00    +0.000 A 
ENDBRANCH  21  27
ENDBRANCH  17  21
ENDBRANCH  11  17
ENDBRANCH   1  15
BRANCH   8  28
ATOM     28  C   UNL     1       0.153   9.517  22.530  0.00  0.00    +0.000 C 
ATOM     29  F   UNL     1       1.303   9.207  23.185  0.00  0.00    +0.000 F 
ATOM     30  F   UNL     1      -0.403  10.552  23.221  0.00  0.00    +0.000 F 
ATOM     31  F   UNL     1      -0.671   8.451  22.719  0.00  0.00    +0.000 F 
ENDBRANCH   8  28
BRANCH   6  32
ATOM     32  C   UNL     1      -0.632  12.614  18.631  0.00  0.00    +0.000 C 
BRANCH  32  33
ATOM     33  N   UNL     1      -0.512  13.778  19.539  0.00  0.00    +0.000 NA
ATOM     34  C   UNL     1      -1.789  14.057  20.211  0.00  0.00    +0.000 C 
ATOM     35  C   UNL     1      -1.862  15.405  20.927  0.00  0.00    +0.000 C 
ATOM     36  C   UNL     1      -1.471  16.546  20.001  0.00  0.00    +0.000 C 
ATOM     37  C   UNL     1      -0.068  16.303  19.480  0.00  0.00    +0.000 C 
ATOM     38  F   UNL     1       0.805  16.383  20.524  0.00  0.00    +0.000 F 
ATOM     39  C   UNL     1       0.058  14.929  18.808  0.00  0.00    +0.000 C 
ENDBRANCH  32  33
ENDBRANCH   6  32
TORSDOF 7
ENDMDL
MODEL 6
REMARK VINA RESULT:      -9.4      3.180      9.400
REMARK  Name = 
REMARK  8 active torsions:
REMARK  status: ('A' for Active; 'I' for Inactive)
REMARK    1  A    between atoms: C_1  and  N_2
REMARK    2  A    between atoms: C_6  and  C_7
REMARK    3  A    between atoms: C_7  and  C_8
REMARK    4  A    between atoms: C_8  and  C_9
REMARK    5  A    between atoms: C_13  and  N_14
REMARK    6  A    between atoms: C_19  and  C_20
REMARK    7  A    between atoms: C_20  and  N_21
REMARK    8  A    between atoms: C_29  and  C_30
REMARK                            x       y       z     vdW  Elec       q    Type
REMARK                         _______ _______ _______ _____ _____    ______ ____
ROOT
ATOM      1  N   UNL     1       1.209   8.416  20.512  0.00  0.00    +0.000 N 
ATOM      2  C   UNL     1       1.399   7.053  20.967  0.00  0.00    +0.000 C 
ATOM      3  C   UNL     1       2.094   6.384  19.855  0.00  0.00    +0.000 A 
ATOM      4  C   UNL     1       2.431   7.322  18.880  0.00  0.00    +0.000 A 
ATOM      5  C   UNL     1       3.169   6.948  17.772  0.00  0.00    +0.000 A 
ATOM      6  C   UNL     1       3.578   5.598  17.663  0.00  0.00    +0.000 A 
ATOM      7  C   UNL     1       3.161   4.656  18.640  0.00  0.00    +0.000 A 
ATOM      8  C   UNL     1       2.403   5.030  19.749  0.00  0.00    +0.000 A 
ATOM      9  C   UNL     1       1.825   8.621  19.273  0.00  0.00    +0.000 C 
ATOM     10  O   UNL     1       1.878   9.624  18.581  0.00  0.00    +0.000 OA
ENDROOT
BRANCH   1  15
ATOM     11  C   UNL     1      -1.018  11.331  21.241  0.00  0.00    +0.000 A 
ATOM     12  C   UNL     1      -1.204  11.154  22.620  0.00  0.00    +0.000 A 
ATOM     13  C   UNL     1      -0.631  10.073  23.309  0.00  0.00    +0.000 A 
ATOM     14  C   UNL     1       0.164   9.127  22.647  0.00  0.00    +0.000 A 
ATOM     15  C   UNL     1       0.375   9.261  21.280  0.00  0.00    +0.000 A 
ATOM     16  C   UNL     1      -0.253  10.338  20.625  0.00  0.00    +0.000 A 
BRANCH  11  17
ATOM     17  C   UNL     1      -1.631  12.534  20.358  0.00  0.00    +0.000 C 
ATOM     18  C   UNL     1      -3.184  12.540  20.282  0.00  0.00    +0.000 C 
ATOM     19  O   UNL     1      -3.191  12.336  18.857  0.00  0.00    +0.000 OA
ATOM     20  C   UNL     1      -1.750  12.308  18.812  0.00  0.00    +0.000 C 
BRANCH  17  21
ATOM     21  C   UNL     1      -0.999  13.909  20.732  0.00  0.00    +0.000 C 
BRANCH  21  27
ATOM     22  C   UNL     1      -0.379  16.247  18.566  0.00  0.00    +0.000 C 
ATOM     23  N   UNL     1       0.513  15.262  19.117  0.00  0.00    +0.000 N 
ATOM     24  C   UNL     1       1.825  15.155  18.744  0.00  0.00    +0.000 A 
ATOM     25  N   UNL     1       2.379  14.141  19.369  0.00  0.00    +0.000 NA
ATOM     26  N   UNL     1       1.418  13.565  20.157  0.00  0.00    +0.000 NA
ATOM     27  C   UNL     1       0.289  14.250  20.031  0.00  0.00    +0.000 A 
ENDBRANCH  21  27
ENDBRANCH  17  21
ENDBRANCH  11  17
ENDBRANCH   1  15
BRANCH   8  28
ATOM     28  C   UNL     1       1.920   4.014  20.751  0.00  0.00    +0.000 C 
ATOM     29  F   UNL     1       0.567   3.922  20.851  0.00  0.00    +0.000 F 
ATOM     30  F   UNL     1       2.358   2.758  20.455  0.00  0.00    +0.000 F 
ATOM     31  F   UNL     1       2.360   4.281  22.010  0.00  0.00    +0.000 F 
ENDBRANCH   8  28
BRANCH   6  32
ATOM     32  C   UNL     1       4.468   5.115  16.543  0.00  0.00    +0.000 C 
BRANCH  32  33
ATOM     33  N   UNL     1       5.895   5.464  16.731  0.00  0.00    +0.000 NA
ATOM     34  C   UNL     1       6.555   4.518  17.641  0.00  0.00    +0.000 C 
ATOM     35  C   UNL     1       7.932   4.955  18.142  0.00  0.00    +0.000 C 
ATOM     36  C   UNL     1       7.886   6.351  18.743  0.00  0.00    +0.000 C 
ATOM     37  C   UNL     1       7.373   7.324  17.699  0.00  0.00    +0.000 C 
ATOM     38  F   UNL     1       8.288   7.406  16.693  0.00  0.00    +0.000 F 
ATOM     39  C   UNL     1       6.017   6.883  17.129  0.00  0.00    +0.000 C 
ENDBRANCH  32  33
ENDBRANCH   6  32
TORSDOF 7
ENDMDL
MODEL 7
REMARK VINA RESULT:      -9.3      2.970      9.102
REMARK  Name = 
REMARK  8 active torsions:
REMARK  status: ('A' for Active; 'I' for Inactive)
REMARK    1  A    between atoms: C_1  and  N_2
REMARK    2  A    between atoms: C_6  and  C_7
REMARK    3  A    between atoms: C_7  and  C_8
REMARK    4  A    between atoms: C_8  and  C_9
REMARK    5  A    between atoms: C_13  and  N_14
REMARK    6  A    between atoms: C_19  and  C_20
REMARK    7  A    between atoms: C_20  and  N_21
REMARK    8  A    between atoms: C_29  and  C_30
REMARK                            x       y       z     vdW  Elec       q    Type
REMARK                         _______ _______ _______ _____ _____    ______ ____
ROOT
ATOM      1  N   UNL     1       1.500   7.785  20.259  0.00  0.00    +0.000 N 
ATOM      2  C   UNL     1       1.619   6.500  20.920  0.00  0.00    +0.000 C 
ATOM      3  C   UNL     1       2.173   5.604  19.892  0.00  0.00    +0.000 A 
ATOM      4  C   UNL     1       2.505   6.340  18.756  0.00  0.00    +0.000 A 
ATOM      5  C   UNL     1       3.126   5.732  17.681  0.00  0.00    +0.000 A 
ATOM      6  C   UNL     1       3.419   4.351  17.770  0.00  0.00    +0.000 A 
ATOM      7  C   UNL     1       3.007   3.616  18.914  0.00  0.00    +0.000 A 
ATOM      8  C   UNL     1       2.367   4.228  19.992  0.00  0.00    +0.000 A 
ATOM      9  C   UNL     1       2.034   7.734  18.967  0.00  0.00    +0.000 C 
ATOM     10  O   UNL     1       2.111   8.606  18.116  0.00  0.00    +0.000 OA
ENDROOT
BRANCH   1  15
ATOM     11  C   UNL     1      -0.571  10.877  20.624  0.00  0.00    +0.000 A 
ATOM     12  C   UNL     1      -0.554  11.017  22.019  0.00  0.00    +0.000 A 
ATOM     13  C   UNL     1       0.105  10.092  22.844  0.00  0.00    +0.000 A 
ATOM     14  C   UNL     1       0.787   8.992  22.306  0.00  0.00    +0.000 A 
ATOM     15  C   UNL     1       0.795   8.812  20.927  0.00  0.00    +0.000 A 
ATOM     16  C   UNL     1       0.086   9.742  20.144  0.00  0.00    +0.000 A 
BRANCH  11  17
ATOM     17  C   UNL     1      -1.298  11.880  19.589  0.00  0.00    +0.000 C 
ATOM     18  C   UNL     1      -0.401  12.327  18.400  0.00  0.00    +0.000 C 
ATOM     19  O   UNL     1      -0.444  13.712  18.788  0.00  0.00    +0.000 OA
ATOM     20  C   UNL     1      -1.276  13.410  19.927  0.00  0.00    +0.000 C 
BRANCH  17  21
ATOM     21  C   UNL     1      -2.708  11.362  19.172  0.00  0.00    +0.000 C 
BRANCH  21  27
ATOM     22  C   UNL     1      -5.031  12.006  16.998  0.00  0.00    +0.000 C 
ATOM     23  N   UNL     1      -3.847  11.205  16.848  0.00  0.00    +0.000 N 
ATOM     24  C   UNL     1      -3.544  10.532  15.695  0.00  0.00    +0.000 A 
ATOM     25  N   UNL     1      -2.436   9.846  15.862  0.00  0.00    +0.000 NA
ATOM     26  N   UNL     1      -2.007  10.060  17.146  0.00  0.00    +0.000 NA
ATOM     27  C   UNL     1      -2.840  10.900  17.745  0.00  0.00    +0.000 A 
ENDBRANCH  21  27
ENDBRANCH  17  21
ENDBRANCH  11  17
ENDBRANCH   1  15
BRANCH   8  28
ATOM     28  C   UNL     1       1.886   3.431  21.176  0.00  0.00    +0.000 C 
ATOM     29  F   UNL     1       2.273   2.128  21.171  0.00  0.00    +0.000 F 
ATOM     30  F   UNL     1       2.333   3.948  22.355  0.00  0.00    +0.000 F 
ATOM     31  F   UNL     1       0.529   3.406  21.264  0.00  0.00    +0.000 F 
ENDBRANCH   8  28
BRANCH   6  32
ATOM     32  C   UNL     1       4.181   3.619  16.692  0.00  0.00    +0.000 C 
BRANCH  32  33
ATOM     33  N   UNL     1       5.583   4.074  16.546  0.00  0.00    +0.000 NA
ATOM     34  C   UNL     1       6.184   4.363  17.856  0.00  0.00    +0.000 C 
ATOM     35  C   UNL     1       7.509   5.123  17.807  0.00  0.00    +0.000 C 
ATOM     36  C   UNL     1       7.393   6.386  16.969  0.00  0.00    +0.000 C 
ATOM     37  C   UNL     1       6.949   6.013  15.568  0.00  0.00    +0.000 C 
ATOM     38  F   UNL     1       7.939   5.289  14.975  0.00  0.00    +0.000 F 
ATOM     39  C   UNL     1       5.650   5.193  15.583  0.00  0.00    +0.000 C 
ENDBRANCH  32  33
ENDBRANCH   6  32
TORSDOF 7
ENDMDL
MODEL 8
REMARK VINA RESULT:      -9.2      3.158     10.036
REMARK  Name = 
REMARK  8 active torsions:
REMARK  status: ('A' for Active; 'I' for Inactive)
REMARK    1  A    between atoms: C_1  and  N_2
REMARK    2  A    between atoms: C_6  and  C_7
REMARK    3  A    between atoms: C_7  and  C_8
REMARK    4  A    between atoms: C_8  and  C_9
REMARK    5  A    between atoms: C_13  and  N_14
REMARK    6  A    between atoms: C_19  and  C_20
REMARK    7  A    between atoms: C_20  and  N_21
REMARK    8  A    between atoms: C_29  and  C_30
REMARK                            x       y       z     vdW  Elec       q    Type
REMARK                         _______ _______ _______ _____ _____    ______ ____
ROOT
ATOM      1  N   UNL     1       1.263   8.355  20.424  0.00  0.00    +0.000 N 
ATOM      2  C   UNL     1       1.421   6.997  20.905  0.00  0.00    +0.000 C 
ATOM      3  C   UNL     1       2.132   6.299  19.822  0.00  0.00    +0.000 A 
ATOM      4  C   UNL     1       2.506   7.215  18.839  0.00  0.00    +0.000 A 
ATOM      5  C   UNL     1       3.264   6.813  17.755  0.00  0.00    +0.000 A 
ATOM      6  C   UNL     1       3.654   5.455  17.678  0.00  0.00    +0.000 A 
ATOM      7  C   UNL     1       3.199   4.535  18.659  0.00  0.00    +0.000 A 
ATOM      8  C   UNL     1       2.421   4.939  19.744  0.00  0.00    +0.000 A 
ATOM      9  C   UNL     1       1.912   8.530  19.198  0.00  0.00    +0.000 C 
ATOM     10  O   UNL     1       1.998   9.521  18.491  0.00  0.00    +0.000 OA
ENDROOT
BRANCH   1  15
ATOM     11  C   UNL     1      -0.983  11.281  21.038  0.00  0.00    +0.000 A 
ATOM     12  C   UNL     1      -1.164  11.161  22.424  0.00  0.00    +0.000 A 
ATOM     13  C   UNL     1      -0.581  10.114  23.156  0.00  0.00    +0.000 A 
ATOM     14  C   UNL     1       0.220   9.147  22.532  0.00  0.00    +0.000 A 
ATOM     15  C   UNL     1       0.425   9.225  21.159  0.00  0.00    +0.000 A 
ATOM     16  C   UNL     1      -0.213  10.269  20.462  0.00  0.00    +0.000 A 
BRANCH  11  17
ATOM     17  C   UNL     1      -1.608  12.441  20.107  0.00  0.00    +0.000 C 
ATOM     18  C   UNL     1      -2.338  11.915  18.839  0.00  0.00    +0.000 C 
ATOM     19  O   UNL     1      -1.419  12.570  17.945  0.00  0.00    +0.000 OA
ATOM     20  C   UNL     1      -0.663  13.107  19.049  0.00  0.00    +0.000 C 
BRANCH  17  21
ATOM     21  C   UNL     1      -2.427  13.475  20.938  0.00  0.00    +0.000 C 
BRANCH  21  27
ATOM     22  C   UNL     1      -4.109  13.064  23.684  0.00  0.00    +0.000 C 
ATOM     23  N   UNL     1      -4.566  12.992  22.322  0.00  0.00    +0.000 N 
ATOM     24  C   UNL     1      -5.855  12.684  21.985  0.00  0.00    +0.000 A 
ATOM     25  N   UNL     1      -5.971  12.641  20.677  0.00  0.00    +0.000 NA
ATOM     26  N   UNL     1      -4.739  12.915  20.144  0.00  0.00    +0.000 NA
ATOM     27  C   UNL     1      -3.885  13.153  21.130  0.00  0.00    +0.000 A 
ENDBRANCH  21  27
ENDBRANCH  17  21
ENDBRANCH  11  17
ENDBRANCH   1  15
BRANCH   8  28
ATOM     28  C   UNL     1       1.899   3.946  20.750  0.00  0.00    +0.000 C 
ATOM     29  F   UNL     1       0.544   3.920  20.863  0.00  0.00    +0.000 F 
ATOM     30  F   UNL     1       2.273   2.671  20.450  0.00  0.00    +0.000 F 
ATOM     31  F   UNL     1       2.362   4.191  22.005  0.00  0.00    +0.000 F 
ENDBRANCH   8  28
BRANCH   6  32
ATOM     32  C   UNL     1       4.562   4.940  16.587  0.00  0.00    +0.000 C 
BRANCH  32  33
ATOM     33  N   UNL     1       5.973   5.365  16.744  0.00  0.00    +0.000 NA
ATOM     34  C   UNL     1       6.671   4.525  17.727  0.00  0.00    +0.000 C 
ATOM     35  C   UNL     1       8.027   5.060  18.188  0.00  0.00    +0.000 C 
ATOM     36  C   UNL     1       7.919   6.497  18.675  0.00  0.00    +0.000 C 
ATOM     37  C   UNL     1       7.367   7.359  17.557  0.00  0.00    +0.000 C 
ATOM     38  F   UNL     1       8.279   7.399  16.546  0.00  0.00    +0.000 F 
ATOM     39  C   UNL     1       6.032   6.815  17.026  0.00  0.00    +0.000 C 
ENDBRANCH  32  33
ENDBRANCH   6  32
TORSDOF 7
ENDMDL
MODEL 9
REMARK VINA RESULT:      -9.2      3.463      9.187
REMARK  Name = 
REMARK  8 active torsions:
REMARK  status: ('A' for Active; 'I' for Inactive)
REMARK    1  A    between atoms: C_1  and  N_2
REMARK    2  A    between atoms: C_6  and  C_7
REMARK    3  A    between atoms: C_7  and  C_8
REMARK    4  A    between atoms: C_8  and  C_9
REMARK    5  A    between atoms: C_13  and  N_14
REMARK    6  A    between atoms: C_19  and  C_20
REMARK    7  A    between atoms: C_20  and  N_21
REMARK    8  A    between atoms: C_29  and  C_30
REMARK                            x       y       z     vdW  Elec       q    Type
REMARK                         _______ _______ _______ _____ _____    ______ ____
ROOT
ATOM      1  N   UNL     1       1.217   8.672  20.516  0.00  0.00    +0.000 N 
ATOM      2  C   UNL     1       1.426   7.313  20.972  0.00  0.00    +0.000 C 
ATOM      3  C   UNL     1       2.090   6.641  19.843  0.00  0.00    +0.000 A 
ATOM      4  C   UNL     1       2.393   7.575  18.853  0.00  0.00    +0.000 A 
ATOM      5  C   UNL     1       3.098   7.200  17.724  0.00  0.00    +0.000 A 
ATOM      6  C   UNL     1       3.509   5.851  17.609  0.00  0.00    +0.000 A 
ATOM      7  C   UNL     1       3.126   4.911  18.603  0.00  0.00    +0.000 A 
ATOM      8  C   UNL     1       2.401   5.288  19.733  0.00  0.00    +0.000 A 
ATOM      9  C   UNL     1       1.794   8.874  19.258  0.00  0.00    +0.000 C 
ATOM     10  O   UNL     1       1.821   9.874  18.560  0.00  0.00    +0.000 OA
ENDROOT
BRANCH   1  15
ATOM     11  C   UNL     1      -0.330  11.874  21.677  0.00  0.00    +0.000 A 
ATOM     12  C   UNL     1      -1.025  11.412  22.804  0.00  0.00    +0.000 A 
ATOM     13  C   UNL     1      -1.015  10.057  23.173  0.00  0.00    +0.000 A 
ATOM     14  C   UNL     1      -0.299   9.106  22.432  0.00  0.00    +0.000 A 
ATOM     15  C   UNL     1       0.403   9.518  21.306  0.00  0.00    +0.000 A 
ATOM     16  C   UNL     1       0.331  10.879  20.953  0.00  0.00    +0.000 A 
BRANCH  11  17
ATOM     17  C   UNL     1      -0.277  13.404  21.168  0.00  0.00    +0.000 C 
ATOM     18  C   UNL     1      -1.419  14.300  21.725  0.00  0.00    +0.000 C 
ATOM     19  O   UNL     1      -1.965  14.549  20.417  0.00  0.00    +0.000 OA
ATOM     20  C   UNL     1      -0.953  13.733  19.793  0.00  0.00    +0.000 C 
BRANCH  17  21
ATOM     21  C   UNL     1       1.149  14.016  21.315  0.00  0.00    +0.000 C 
BRANCH  21  27
ATOM     22  C   UNL     1       1.425  16.653  19.443  0.00  0.00    +0.000 C 
ATOM     23  N   UNL     1       2.012  15.352  19.267  0.00  0.00    +0.000 N 
ATOM     24  C   UNL     1       2.790  15.026  18.189  0.00  0.00    +0.000 A 
ATOM     25  N   UNL     1       3.143  13.763  18.267  0.00  0.00    +0.000 NA
ATOM     26  N   UNL     1       2.583  13.246  19.406  0.00  0.00    +0.000 NA
ATOM     27  C   UNL     1       1.915  14.206  20.032  0.00  0.00    +0.000 A 
ENDBRANCH  21  27
ENDBRANCH  17  21
ENDBRANCH  11  17
ENDBRANCH   1  15
BRANCH   8  28
ATOM     28  C   UNL     1       1.954   4.274  20.754  0.00  0.00    +0.000 C 
ATOM     29  F   UNL     1       2.394   4.518  22.017  0.00  0.00    +0.000 F 
ATOM     30  F   UNL     1       0.596   4.201  20.840  0.00  0.00    +0.000 F 
ATOM     31  F   UNL     1       2.382   3.018  20.457  0.00  0.00    +0.000 F 
ENDBRANCH   8  28
BRANCH   6  32
ATOM     32  C   UNL     1       4.366   5.366  16.465  0.00  0.00    +0.000 C 
BRANCH  32  33
ATOM     33  N   UNL     1       5.813   5.616  16.663  0.00  0.00    +0.000 NA
ATOM     34  C   UNL     1       6.430   4.543  17.455  0.00  0.00    +0.000 C 
ATOM     35  C   UNL     1       7.835   4.848  17.974  0.00  0.00    +0.000 C 
ATOM     36  C   UNL     1       7.873   6.171  18.723  0.00  0.00    +0.000 C 
ATOM     37  C   UNL     1       7.402   7.278  17.800  0.00  0.00    +0.000 C 
ATOM     38  F   UNL     1       8.307   7.420  16.792  0.00  0.00    +0.000 F 
ATOM     39  C   UNL     1       6.017   6.974  17.210  0.00  0.00    +0.000 C 
ENDBRANCH  32  33
ENDBRANCH   6  32
TORSDOF 7
ENDMDL
