MODEL 1
REMARK VINA RESULT:      -8.6      0.000      0.000
REMARK  Name = 
REMARK  10 active torsions:
REMARK  status: ('A' for Active; 'I' for Inactive)
REMARK    1  A    between atoms: C_1  and  C_2
REMARK    2  A    between atoms: C_4  and  C_5
REMARK    3  A    between atoms: N_7  and  C_8
REMARK    4  A    between atoms: C_12  and  C_13
REMARK    5  A    between atoms: C_13  and  C_14
REMARK    6  A    between atoms: C_13  and  C_15
REMARK    7  A    between atoms: C_13  and  C_16
REMARK    8  A    between atoms: C_16  and  C_17
REMARK    9  A    between atoms: N_21  and  C_22
REMARK   10  A    between atoms: C_25  and  C_26
REMARK                            x       y       z     vdW  Elec       q    Type
REMARK                         _______ _______ _______ _____ _____    ______ ____
ROOT
ATOM      1  C   UNL     1       2.550   6.113  18.789  0.00  0.00    +0.000 A 
ATOM      2  C   UNL     1       2.070   4.809  18.900  0.00  0.00    +0.000 A 
ATOM      3  C   UNL     1       2.632   3.772  18.161  0.00  0.00    +0.000 A 
ATOM      4  C   UNL     1       3.711   4.015  17.313  0.00  0.00    +0.000 A 
ATOM      5  C   UNL     1       4.248   5.304  17.178  0.00  0.00    +0.000 A 
ATOM      6  C   UNL     1       3.613   6.356  17.897  0.00  0.00    +0.000 A 
ENDROOT
BRANCH   1   9
ATOM      7  C   UNL     1       1.677   8.436  19.014  0.00  0.00    +0.000 C 
ATOM      8  O   UNL     1       1.744   8.760  17.829  0.00  0.00    +0.000 OA
ATOM      9  N   UNL     1       2.019   7.192  19.540  0.00  0.00    +0.000 N 
ATOM     10  H   UNL     1       1.778   7.042  20.511  0.00  0.00    +0.000 HD
BRANCH   7  14
ATOM     11  C   UNL     1      -0.118   9.567  23.503  0.00  0.00    +0.000 C 
ATOM     12  C   UNL     1       0.285   9.925  22.105  0.00  0.00    +0.000 A 
ATOM     13  C   UNL     1       0.790   8.987  21.245  0.00  0.00    +0.000 A 
ATOM     14  C   UNL     1       1.136   9.443  19.983  0.00  0.00    +0.000 A 
ATOM     15  N   UNL     1       1.018  10.726  19.578  0.00  0.00    +0.000 NA
ATOM     16  C   UNL     1       0.515  11.582  20.491  0.00  0.00    +0.000 A 
ATOM     17  N   UNL     1       0.137  11.209  21.739  0.00  0.00    +0.000 NA
BRANCH  16  18
ATOM     18  C   UNL     1       0.345  13.043  20.154  0.00  0.00    +0.000 C 
ATOM     19  C   UNL     1       1.382  13.701  19.263  0.00  0.00    +0.000 C 
ATOM     20  C   UNL     1      -0.017  13.499  18.763  0.00  0.00    +0.000 C 
ENDBRANCH  16  18
ENDBRANCH   7  14
ENDBRANCH   1   9
BRANCH   5  21
ATOM     21  C   UNL     1       5.506   5.581  16.302  0.00  0.00    +0.000 C 
ATOM     22  C   UNL     1       5.179   6.799  15.407  0.00  0.00    +0.000 C 
ATOM     23  C   UNL     1       6.661   5.911  17.275  0.00  0.00    +0.000 C 
BRANCH  21  24
ATOM     24  C   UNL     1       5.947   4.353  15.425  0.00  0.00    +0.000 C 
BRANCH  24  25
ATOM     25  C   UNL     1       6.810   4.650  14.228  0.00  0.00    +0.000 A 
ATOM     26  N   UNL     1       7.832   5.487  14.230  0.00  0.00    +0.000 NA
ATOM     27  N   UNL     1       8.344   5.564  12.961  0.00  0.00    +0.000 NA
ATOM     28  C   UNL     1       7.614   4.794  12.193  0.00  0.00    +0.000 A 
ATOM     29  N   UNL     1       6.637   4.199  12.939  0.00  0.00    +0.000 N 
ATOM     30  C   UNL     1       5.650   3.300  12.406  0.00  0.00    +0.000 C 
ENDBRANCH  24  25
ENDBRANCH  21  24
ENDBRANCH   5  21
TORSDOF 6
ENDMDL
MODEL 2
REMARK VINA RESULT:      -8.6      3.777     10.169
REMARK  Name = 
REMARK  10 active torsions:
REMARK  status: ('A' for Active; 'I' for Inactive)
REMARK    1  A    between atoms: C_1  and  C_2
REMARK    2  A    between atoms: C_4  and  C_5
REMARK    3  A    between atoms: N_7  and  C_8
REMARK    4  A    between atoms: C_12  and  C_13
REMARK    5  A    between atoms: C_13  and  C_14
REMARK    6  A    between atoms: C_13  and  C_15
REMARK    7  A    between atoms: C_13  and  C_16
REMARK    8  A    between atoms: C_16  and  C_17
REMARK    9  A    between atoms: N_21  and  C_22
REMARK   10  A    between atoms: C_25  and  C_26
REMARK                            x       y       z     vdW  Elec       q    Type
REMARK                         _______ _______ _______ _____ _____    ______ ____
ROOT
ATOM      1  C   UNL     1       0.336  10.017  18.769  0.00  0.00    +0.000 A 
ATOM      2  C   UNL     1       0.730  11.290  19.178  0.00  0.00    +0.000 A 
ATOM      3  C   UNL     1      -0.046  12.409  18.888  0.00  0.00    +0.000 A 
ATOM      4  C   UNL     1      -1.253  12.273  18.206  0.00  0.00    +0.000 A 
ATOM      5  C   UNL     1      -1.709  11.014  17.788  0.00  0.00    +0.000 A 
ATOM      6  C   UNL     1      -0.865   9.895  18.042  0.00  0.00    +0.000 A 
ENDROOT
BRANCH   1   9
ATOM      7  C   UNL     1       2.066   8.306  18.235  0.00  0.00    +0.000 C 
ATOM      8  O   UNL     1       2.447   8.776  17.164  0.00  0.00    +0.000 OA
ATOM      9  N   UNL     1       1.087   8.851  19.062  0.00  0.00    +0.000 N 
ATOM     10  H   UNL     1       0.985   8.418  19.971  0.00  0.00    +0.000 HD
BRANCH   7  14
ATOM     11  C   UNL     1       5.836   5.079  18.054  0.00  0.00    +0.000 C 
ATOM     12  C   UNL     1       4.527   5.564  18.600  0.00  0.00    +0.000 A 
ATOM     13  C   UNL     1       3.942   6.713  18.139  0.00  0.00    +0.000 A 
ATOM     14  C   UNL     1       2.738   7.062  18.730  0.00  0.00    +0.000 A 
ATOM     15  N   UNL     1       2.141   6.356  19.714  0.00  0.00    +0.000 NA
ATOM     16  C   UNL     1       2.788   5.240  20.109  0.00  0.00    +0.000 A 
ATOM     17  N   UNL     1       3.960   4.824  19.567  0.00  0.00    +0.000 NA
BRANCH  16  18
ATOM     18  C   UNL     1       2.220   4.377  21.208  0.00  0.00    +0.000 C 
ATOM     19  C   UNL     1       1.215   3.305  20.833  0.00  0.00    +0.000 C 
ATOM     20  C   UNL     1       2.574   2.916  21.331  0.00  0.00    +0.000 C 
ENDBRANCH  16  18
ENDBRANCH   7  14
ENDBRANCH   1   9
BRANCH   5  21
ATOM     21  C   UNL     1      -3.094  10.829  17.100  0.00  0.00    +0.000 C 
ATOM     22  C   UNL     1      -2.841  10.760  15.576  0.00  0.00    +0.000 C 
ATOM     23  C   UNL     1      -3.675   9.494  17.620  0.00  0.00    +0.000 C 
BRANCH  21  24
ATOM     24  C   UNL     1      -4.122  11.970  17.438  0.00  0.00    +0.000 C 
BRANCH  24  25
ATOM     25  C   UNL     1      -5.204  11.634  18.429  0.00  0.00    +0.000 A 
ATOM     26  N   UNL     1      -6.320  10.993  18.133  0.00  0.00    +0.000 NA
ATOM     27  N   UNL     1      -7.101  10.920  19.257  0.00  0.00    +0.000 NA
ATOM     28  C   UNL     1      -6.466  11.540  20.220  0.00  0.00    +0.000 A 
ATOM     29  N   UNL     1      -5.272  12.007  19.753  0.00  0.00    +0.000 N 
ATOM     30  C   UNL     1      -4.328  12.748  20.546  0.00  0.00    +0.000 C 
ENDBRANCH  24  25
ENDBRANCH  21  24
ENDBRANCH   5  21
TORSDOF 6
ENDMDL
MODEL 3
REMARK VINA RESULT:      -8.4      2.995      9.502
REMARK  Name = 
REMARK  10 active torsions:
REMARK  status: ('A' for Active; 'I' for Inactive)
REMARK    1  A    between atoms: C_1  and  C_2
REMARK    2  A    between atoms: C_4  and  C_5
REMARK    3  A    between atoms: N_7  and  C_8
REMARK    4  A    between atoms: C_12  and  C_13
REMARK    5  A    between atoms: C_13  and  C_14
REMARK    6  A    between atoms: C_13  and  C_15
REMARK    7  A    between atoms: C_13  and  C_16
REMARK    8  A    between atoms: C_16  and  C_17
REMARK    9  A    between atoms: N_21  and  C_22
REMARK   10  A    between atoms: C_25  and  C_26
REMARK                            x       y       z     vdW  Elec       q    Type
REMARK                         _______ _______ _______ _____ _____    ______ ____
ROOT
ATOM      1  C   UNL     1       1.384   8.426  20.666  0.00  0.00    +0.000 A 
ATOM      2  C   UNL     1       1.025   8.366  22.012  0.00  0.00    +0.000 A 
ATOM      3  C   UNL     1       0.176   9.316  22.572  0.00  0.00    +0.000 A 
ATOM      4  C   UNL     1      -0.357  10.336  21.786  0.00  0.00    +0.000 A 
ATOM      5  C   UNL     1      -0.046  10.434  20.421  0.00  0.00    +0.000 A 
ATOM      6  C   UNL     1       0.875   9.486  19.890  0.00  0.00    +0.000 A 
ENDROOT
BRANCH   1   9
ATOM      7  C   UNL     1       2.089   6.086  20.181  0.00  0.00    +0.000 C 
ATOM      8  O   UNL     1       1.198   5.507  20.799  0.00  0.00    +0.000 OA
ATOM      9  N   UNL     1       2.229   7.467  20.054  0.00  0.00    +0.000 N 
ATOM     10  H   UNL     1       2.936   7.781  19.401  0.00  0.00    +0.000 HD
BRANCH   7  14
ATOM     11  C   UNL     1       3.485   1.721  18.270  0.00  0.00    +0.000 C 
ATOM     12  C   UNL     1       3.714   3.169  18.583  0.00  0.00    +0.000 A 
ATOM     13  C   UNL     1       2.770   3.917  19.234  0.00  0.00    +0.000 A 
ATOM     14  C   UNL     1       3.095   5.246  19.456  0.00  0.00    +0.000 A 
ATOM     15  N   UNL     1       4.251   5.823  19.061  0.00  0.00    +0.000 NA
ATOM     16  C   UNL     1       5.121   5.013  18.424  0.00  0.00    +0.000 A 
ATOM     17  N   UNL     1       4.883   3.699  18.186  0.00  0.00    +0.000 NA
BRANCH  16  18
ATOM     18  C   UNL     1       6.442   5.549  17.930  0.00  0.00    +0.000 C 
ATOM     19  C   UNL     1       7.596   5.633  18.910  0.00  0.00    +0.000 C 
ATOM     20  C   UNL     1       7.649   4.660  17.771  0.00  0.00    +0.000 C 
ENDBRANCH  16  18
ENDBRANCH   7  14
ENDBRANCH   1   9
BRANCH   5  21
ATOM     21  C   UNL     1      -0.697  11.514  19.506  0.00  0.00    +0.000 C 
ATOM     22  C   UNL     1      -1.239  10.785  18.255  0.00  0.00    +0.000 C 
ATOM     23  C   UNL     1      -1.853  12.145  20.315  0.00  0.00    +0.000 C 
BRANCH  21  24
ATOM     24  C   UNL     1       0.289  12.666  19.091  0.00  0.00    +0.000 C 
BRANCH  24  25
ATOM     25  C   UNL     1       0.740  13.598  20.183  0.00  0.00    +0.000 A 
ATOM     26  N   UNL     1       1.597  13.279  21.136  0.00  0.00    +0.000 NA
ATOM     27  N   UNL     1       1.724  14.341  21.993  0.00  0.00    +0.000 NA
ATOM     28  C   UNL     1       0.924  15.287  21.569  0.00  0.00    +0.000 A 
ATOM     29  N   UNL     1       0.283  14.871  20.439  0.00  0.00    +0.000 N 
ATOM     30  C   UNL     1      -0.680  15.661  19.719  0.00  0.00    +0.000 C 
ENDBRANCH  24  25
ENDBRANCH  21  24
ENDBRANCH   5  21
TORSDOF 6
ENDMDL
MODEL 4
REMARK VINA RESULT:      -8.4      2.038      2.580
REMARK  Name = 
REMARK  10 active torsions:
REMARK  status: ('A' for Active; 'I' for Inactive)
REMARK    1  A    between atoms: C_1  and  C_2
REMARK    2  A    between atoms: C_4  and  C_5
REMARK    3  A    between atoms: N_7  and  C_8
REMARK    4  A    between atoms: C_12  and  C_13
REMARK    5  A    between atoms: C_13  and  C_14
REMARK    6  A    between atoms: C_13  and  C_15
REMARK    7  A    between atoms: C_13  and  C_16
REMARK    8  A    between atoms: C_16  and  C_17
REMARK    9  A    between atoms: N_21  and  C_22
REMARK   10  A    between atoms: C_25  and  C_26
REMARK                            x       y       z     vdW  Elec       q    Type
REMARK                         _______ _______ _______ _____ _____    ______ ____
ROOT
ATOM      1  C   UNL     1       3.111   6.186  19.358  0.00  0.00    +0.000 A 
ATOM      2  C   UNL     1       2.822   4.907  19.832  0.00  0.00    +0.000 A 
ATOM      3  C   UNL     1       3.764   3.885  19.762  0.00  0.00    +0.000 A 
ATOM      4  C   UNL     1       5.033   4.130  19.240  0.00  0.00    +0.000 A 
ATOM      5  C   UNL     1       5.386   5.402  18.767  0.00  0.00    +0.000 A 
ATOM      6  C   UNL     1       4.382   6.412  18.792  0.00  0.00    +0.000 A 
ENDROOT
BRANCH   1   9
ATOM      7  C   UNL     1       2.048   8.256  18.468  0.00  0.00    +0.000 C 
ATOM      8  O   UNL     1       2.671   8.327  17.409  0.00  0.00    +0.000 OA
ATOM      9  N   UNL     1       2.187   7.258  19.429  0.00  0.00    +0.000 N 
ATOM     10  H   UNL     1       1.507   7.269  20.179  0.00  0.00    +0.000 HD
BRANCH   7  14
ATOM     11  C   UNL     1       0.184  11.821  21.379  0.00  0.00    +0.000 C 
ATOM     12  C   UNL     1       0.166  10.965  20.149  0.00  0.00    +0.000 A 
ATOM     13  C   UNL     1       1.134  10.025  19.918  0.00  0.00    +0.000 A 
ATOM     14  C   UNL     1       1.013   9.304  18.740  0.00  0.00    +0.000 A 
ATOM     15  N   UNL     1       0.030   9.488  17.833  0.00  0.00    +0.000 NA
ATOM     16  C   UNL     1      -0.878  10.437  18.139  0.00  0.00    +0.000 A 
ATOM     17  N   UNL     1      -0.838  11.171  19.280  0.00  0.00    +0.000 NA
BRANCH  16  18
ATOM     18  C   UNL     1      -2.017  10.737  17.196  0.00  0.00    +0.000 C 
ATOM     19  C   UNL     1      -3.240   9.841  17.238  0.00  0.00    +0.000 C 
ATOM     20  C   UNL     1      -3.339  11.265  17.693  0.00  0.00    +0.000 C 
ENDBRANCH  16  18
ENDBRANCH   7  14
ENDBRANCH   1   9
BRANCH   5  21
ATOM     21  C   UNL     1       6.824   5.720  18.259  0.00  0.00    +0.000 C 
ATOM     22  C   UNL     1       6.753   7.064  17.498  0.00  0.00    +0.000 C 
ATOM     23  C   UNL     1       7.721   5.847  19.512  0.00  0.00    +0.000 C 
BRANCH  21  24
ATOM     24  C   UNL     1       7.430   4.596  17.341  0.00  0.00    +0.000 C 
BRANCH  24  25
ATOM     25  C   UNL     1       7.021   4.612  15.892  0.00  0.00    +0.000 A 
ATOM     26  N   UNL     1       7.708   5.195  14.925  0.00  0.00    +0.000 NA
ATOM     27  N   UNL     1       7.012   5.072  13.751  0.00  0.00    +0.000 NA
ATOM     28  C   UNL     1       5.897   4.438  14.018  0.00  0.00    +0.000 A 
ATOM     29  N   UNL     1       5.854   4.129  15.346  0.00  0.00    +0.000 N 
ATOM     30  C   UNL     1       4.760   3.443  15.980  0.00  0.00    +0.000 C 
ENDBRANCH  24  25
ENDBRANCH  21  24
ENDBRANCH   5  21
TORSDOF 6
ENDMDL
MODEL 5
REMARK VINA RESULT:      -8.4      3.613     10.099
REMARK  Name = 
REMARK  10 active torsions:
REMARK  status: ('A' for Active; 'I' for Inactive)
REMARK    1  A    between atoms: C_1  and  C_2
REMARK    2  A    between atoms: C_4  and  C_5
REMARK    3  A    between atoms: N_7  and  C_8
REMARK    4  A    between atoms: C_12  and  C_13
REMARK    5  A    between atoms: C_13  and  C_14
REMARK    6  A    between atoms: C_13  and  C_15
REMARK    7  A    between atoms: C_13  and  C_16
REMARK    8  A    between atoms: C_16  and  C_17
REMARK    9  A    between atoms: N_21  and  C_22
REMARK   10  A    between atoms: C_25  and  C_26
REMARK                            x       y       z     vdW  Elec       q    Type
REMARK                         _______ _______ _______ _____ _____    ______ ____
ROOT
ATOM      1  C   UNL     1       0.423   9.978  18.878  0.00  0.00    +0.000 A 
ATOM      2  C   UNL     1       0.834  11.244  19.291  0.00  0.00    +0.000 A 
ATOM      3  C   UNL     1       0.064  12.372  19.022  0.00  0.00    +0.000 A 
ATOM      4  C   UNL     1      -1.154  12.252  18.356  0.00  0.00    +0.000 A 
ATOM      5  C   UNL     1      -1.627  11.001  17.935  0.00  0.00    +0.000 A 
ATOM      6  C   UNL     1      -0.789   9.872  18.167  0.00  0.00    +0.000 A 
ENDROOT
BRANCH   1   9
ATOM      7  C   UNL     1       2.060   8.202  18.265  0.00  0.00    +0.000 C 
ATOM      8  O   UNL     1       2.360   8.624  17.149  0.00  0.00    +0.000 OA
ATOM      9  N   UNL     1       1.168   8.803  19.150  0.00  0.00    +0.000 N 
ATOM     10  H   UNL     1       1.133   8.405  20.080  0.00  0.00    +0.000 HD
BRANCH   7  14
ATOM     11  C   UNL     1       5.826   4.976  18.014  0.00  0.00    +0.000 C 
ATOM     12  C   UNL     1       4.527   5.461  18.584  0.00  0.00    +0.000 A 
ATOM     13  C   UNL     1       3.934   6.609  18.134  0.00  0.00    +0.000 A 
ATOM     14  C   UNL     1       2.742   6.959  18.747  0.00  0.00    +0.000 A 
ATOM     15  N   UNL     1       2.164   6.254  19.744  0.00  0.00    +0.000 NA
ATOM     16  C   UNL     1       2.818   5.139  20.127  0.00  0.00    +0.000 A 
ATOM     17  N   UNL     1       3.979   4.722  19.563  0.00  0.00    +0.000 NA
BRANCH  16  18
ATOM     18  C   UNL     1       2.271   4.276  21.237  0.00  0.00    +0.000 C 
ATOM     19  C   UNL     1       1.201   3.257  20.896  0.00  0.00    +0.000 C 
ATOM     20  C   UNL     1       2.566   2.799  21.312  0.00  0.00    +0.000 C 
ENDBRANCH  16  18
ENDBRANCH   7  14
ENDBRANCH   1   9
BRANCH   5  21
ATOM     21  C   UNL     1      -3.024  10.833  17.265  0.00  0.00    +0.000 C 
ATOM     22  C   UNL     1      -2.785  10.678  15.746  0.00  0.00    +0.000 C 
ATOM     23  C   UNL     1      -3.649   9.549  17.856  0.00  0.00    +0.000 C 
BRANCH  21  24
ATOM     24  C   UNL     1      -4.006  12.027  17.552  0.00  0.00    +0.000 C 
BRANCH  24  25
ATOM     25  C   UNL     1      -4.702  12.026  18.887  0.00  0.00    +0.000 A 
ATOM     26  N   UNL     1      -4.154  12.430  20.018  0.00  0.00    +0.000 NA
ATOM     27  N   UNL     1      -5.046  12.228  21.040  0.00  0.00    +0.000 NA
ATOM     28  C   UNL     1      -6.117  11.679  20.525  0.00  0.00    +0.000 A 
ATOM     29  N   UNL     1      -5.952  11.529  19.178  0.00  0.00    +0.000 N 
ATOM     30  C   UNL     1      -6.934  10.946  18.304  0.00  0.00    +0.000 C 
ENDBRANCH  24  25
ENDBRANCH  21  24
ENDBRANCH   5  21
TORSDOF 6
ENDMDL
MODEL 6
REMARK VINA RESULT:      -8.4      1.336      2.288
REMARK  Name = 
REMARK  10 active torsions:
REMARK  status: ('A' for Active; 'I' for Inactive)
REMARK    1  A    between atoms: C_1  and  C_2
REMARK    2  A    between atoms: C_4  and  C_5
REMARK    3  A    between atoms: N_7  and  C_8
REMARK    4  A    between atoms: C_12  and  C_13
REMARK    5  A    between atoms: C_13  and  C_14
REMARK    6  A    between atoms: C_13  and  C_15
REMARK    7  A    between atoms: C_13  and  C_16
REMARK    8  A    between atoms: C_16  and  C_17
REMARK    9  A    between atoms: N_21  and  C_22
REMARK   10  A    between atoms: C_25  and  C_26
REMARK                            x       y       z     vdW  Elec       q    Type
REMARK                         _______ _______ _______ _____ _____    ______ ____
ROOT
ATOM      1  C   UNL     1       2.836   6.422  19.025  0.00  0.00    +0.000 A 
ATOM      2  C   UNL     1       2.923   5.251  19.776  0.00  0.00    +0.000 A 
ATOM      3  C   UNL     1       3.848   4.260  19.457  0.00  0.00    +0.000 A 
ATOM      4  C   UNL     1       4.729   4.435  18.391  0.00  0.00    +0.000 A 
ATOM      5  C   UNL     1       4.700   5.602  17.614  0.00  0.00    +0.000 A 
ATOM      6  C   UNL     1       3.702   6.571  17.924  0.00  0.00    +0.000 A 
ENDROOT
BRANCH   1   9
ATOM      7  C   UNL     1       1.714   8.594  18.546  0.00  0.00    +0.000 C 
ATOM      8  O   UNL     1       2.252   8.831  17.465  0.00  0.00    +0.000 OA
ATOM      9  N   UNL     1       1.924   7.463  19.330  0.00  0.00    +0.000 N 
ATOM     10  H   UNL     1       1.304   7.354  20.124  0.00  0.00    +0.000 HD
BRANCH   7  14
ATOM     11  C   UNL     1      -2.111  11.655  17.735  0.00  0.00    +0.000 C 
ATOM     12  C   UNL     1      -1.084  11.016  18.621  0.00  0.00    +0.000 A 
ATOM     13  C   UNL     1      -0.185  10.108  18.133  0.00  0.00    +0.000 A 
ATOM     14  C   UNL     1       0.707   9.580  19.053  0.00  0.00    +0.000 A 
ATOM     15  N   UNL     1       0.721   9.896  20.366  0.00  0.00    +0.000 NA
ATOM     16  C   UNL     1      -0.203  10.796  20.761  0.00  0.00    +0.000 A 
ATOM     17  N   UNL     1      -1.096  11.370  19.917  0.00  0.00    +0.000 NA
BRANCH  16  18
ATOM     18  C   UNL     1      -0.287  11.220  22.206  0.00  0.00    +0.000 C 
ATOM     19  C   UNL     1      -1.644  11.602  22.766  0.00  0.00    +0.000 C 
ATOM     20  C   UNL     1      -0.958  10.359  23.247  0.00  0.00    +0.000 C 
ENDBRANCH  16  18
ENDBRANCH   7  14
ENDBRANCH   1   9
BRANCH   5  21
ATOM     21  C   UNL     1       5.731   5.855  16.473  0.00  0.00    +0.000 C 
ATOM     22  C   UNL     1       5.118   6.918  15.533  0.00  0.00    +0.000 C 
ATOM     23  C   UNL     1       7.015   6.393  17.145  0.00  0.00    +0.000 C 
BRANCH  21  24
ATOM     24  C   UNL     1       6.111   4.559  15.669  0.00  0.00    +0.000 C 
BRANCH  24  25
ATOM     25  C   UNL     1       6.898   4.755  14.401  0.00  0.00    +0.000 A 
ATOM     26  N   UNL     1       7.963   5.529  14.292  0.00  0.00    +0.000 NA
ATOM     27  N   UNL     1       8.383   5.523  12.987  0.00  0.00    +0.000 NA
ATOM     28  C   UNL     1       7.556   4.767  12.310  0.00  0.00    +0.000 A 
ATOM     29  N   UNL     1       6.606   4.263  13.150  0.00  0.00    +0.000 N 
ATOM     30  C   UNL     1       5.532   3.402  12.730  0.00  0.00    +0.000 C 
ENDBRANCH  24  25
ENDBRANCH  21  24
ENDBRANCH   5  21
TORSDOF 6
ENDMDL
MODEL 7
REMARK VINA RESULT:      -8.4      0.896      2.395
REMARK  Name = 
REMARK  10 active torsions:
REMARK  status: ('A' for Active; 'I' for Inactive)
REMARK    1  A    between atoms: C_1  and  C_2
REMARK    2  A    between atoms: C_4  and  C_5
REMARK    3  A    between atoms: N_7  and  C_8
REMARK    4  A    between atoms: C_12  and  C_13
REMARK    5  A    between atoms: C_13  and  C_14
REMARK    6  A    between atoms: C_13  and  C_15
REMARK    7  A    between atoms: C_13  and  C_16
REMARK    8  A    between atoms: C_16  and  C_17
REMARK    9  A    between atoms: N_21  and  C_22
REMARK   10  A    between atoms: C_25  and  C_26
REMARK                            x       y       z     vdW  Elec       q    Type
REMARK                         _______ _______ _______ _____ _____    ______ ____
ROOT
ATOM      1  C   UNL     1       2.510   6.214  18.305  0.00  0.00    +0.000 A 
ATOM      2  C   UNL     1       1.763   5.039  18.241  0.00  0.00    +0.000 A 
ATOM      3  C   UNL     1       2.284   3.888  17.657  0.00  0.00    +0.000 A 
ATOM      4  C   UNL     1       3.581   3.881  17.147  0.00  0.00    +0.000 A 
ATOM      5  C   UNL     1       4.385   5.029  17.203  0.00  0.00    +0.000 A 
ATOM      6  C   UNL     1       3.804   6.209  17.749  0.00  0.00    +0.000 A 
ENDROOT
BRANCH   1   9
ATOM      7  C   UNL     1       1.950   8.642  18.284  0.00  0.00    +0.000 C 
ATOM      8  O   UNL     1       2.253   8.877  17.115  0.00  0.00    +0.000 OA
ATOM      9  N   UNL     1       2.023   7.400  18.910  0.00  0.00    +0.000 N 
ATOM     10  H   UNL     1       1.610   7.345  19.833  0.00  0.00    +0.000 HD
BRANCH   7  14
ATOM     11  C   UNL     1       1.111  13.494  18.919  0.00  0.00    +0.000 C 
ATOM     12  C   UNL     1       1.047  12.065  19.366  0.00  0.00    +0.000 A 
ATOM     13  C   UNL     1       1.536  11.051  18.587  0.00  0.00    +0.000 A 
ATOM     14  C   UNL     1       1.410   9.772  19.105  0.00  0.00    +0.000 A 
ATOM     15  N   UNL     1       0.834   9.486  20.293  0.00  0.00    +0.000 NA
ATOM     16  C   UNL     1       0.376  10.545  20.991  0.00  0.00    +0.000 A 
ATOM     17  N   UNL     1       0.480  11.826  20.560  0.00  0.00    +0.000 NA
BRANCH  16  18
ATOM     18  C   UNL     1      -0.293  10.346  22.329  0.00  0.00    +0.000 C 
ATOM     19  C   UNL     1      -0.798   8.959  22.681  0.00  0.00    +0.000 C 
ATOM     20  C   UNL     1       0.358   9.550  23.431  0.00  0.00    +0.000 C 
ENDBRANCH  16  18
ENDBRANCH   7  14
ENDBRANCH   1   9
BRANCH   5  21
ATOM     21  C   UNL     1       5.866   5.019  16.717  0.00  0.00    +0.000 C 
ATOM     22  C   UNL     1       6.221   6.467  16.310  0.00  0.00    +0.000 C 
ATOM     23  C   UNL     1       6.724   4.561  17.918  0.00  0.00    +0.000 C 
BRANCH  21  24
ATOM     24  C   UNL     1       6.131   4.028  15.525  0.00  0.00    +0.000 C 
BRANCH  24  25
ATOM     25  C   UNL     1       6.930   4.562  14.367  0.00  0.00    +0.000 A 
ATOM     26  N   UNL     1       7.868   5.486  14.465  0.00  0.00    +0.000 NA
ATOM     27  N   UNL     1       8.337   5.778  13.211  0.00  0.00    +0.000 NA
ATOM     28  C   UNL     1       7.663   5.048  12.358  0.00  0.00    +0.000 A 
ATOM     29  N   UNL     1       6.767   4.269  13.032  0.00  0.00    +0.000 N 
ATOM     30  C   UNL     1       5.854   3.356  12.398  0.00  0.00    +0.000 C 
ENDBRANCH  24  25
ENDBRANCH  21  24
ENDBRANCH   5  21
TORSDOF 6
ENDMDL
MODEL 8
REMARK VINA RESULT:      -8.3      3.114      8.971
REMARK  Name = 
REMARK  10 active torsions:
REMARK  status: ('A' for Active; 'I' for Inactive)
REMARK    1  A    between atoms: C_1  and  C_2
REMARK    2  A    between atoms: C_4  and  C_5
REMARK    3  A    between atoms: N_7  and  C_8
REMARK    4  A    between atoms: C_12  and  C_13
REMARK    5  A    between atoms: C_13  and  C_14
REMARK    6  A    between atoms: C_13  and  C_15
REMARK    7  A    between atoms: C_13  and  C_16
REMARK    8  A    between atoms: C_16  and  C_17
REMARK    9  A    between atoms: N_21  and  C_22
REMARK   10  A    between atoms: C_25  and  C_26
REMARK                            x       y       z     vdW  Elec       q    Type
REMARK                         _______ _______ _______ _____ _____    ______ ____
ROOT
ATOM      1  C   UNL     1       1.456   8.455  20.594  0.00  0.00    +0.000 A 
ATOM      2  C   UNL     1       1.372   8.722  21.959  0.00  0.00    +0.000 A 
ATOM      3  C   UNL     1       0.499   9.690  22.449  0.00  0.00    +0.000 A 
ATOM      4  C   UNL     1      -0.332  10.395  21.580  0.00  0.00    +0.000 A 
ATOM      5  C   UNL     1      -0.303  10.153  20.199  0.00  0.00    +0.000 A 
ATOM      6  C   UNL     1       0.643   9.203  19.719  0.00  0.00    +0.000 A 
ENDROOT
BRANCH   1   9
ATOM      7  C   UNL     1       2.129   6.090  20.192  0.00  0.00    +0.000 C 
ATOM      8  O   UNL     1       1.178   5.545  20.750  0.00  0.00    +0.000 OA
ATOM      9  N   UNL     1       2.316   7.464  20.058  0.00  0.00    +0.000 N 
ATOM     10  H   UNL     1       3.078   7.749  19.456  0.00  0.00    +0.000 HD
BRANCH   7  14
ATOM     11  C   UNL     1       3.480   1.708  18.287  0.00  0.00    +0.000 C 
ATOM     12  C   UNL     1       3.755   3.129  18.679  0.00  0.00    +0.000 A 
ATOM     13  C   UNL     1       2.787   3.913  19.247  0.00  0.00    +0.000 A 
ATOM     14  C   UNL     1       3.161   5.212  19.554  0.00  0.00    +0.000 A 
ATOM     15  N   UNL     1       4.386   5.728  19.316  0.00  0.00    +0.000 NA
ATOM     16  C   UNL     1       5.275   4.886  18.751  0.00  0.00    +0.000 A 
ATOM     17  N   UNL     1       4.991   3.597  18.438  0.00  0.00    +0.000 NA
BRANCH  16  18
ATOM     18  C   UNL     1       6.673   5.354  18.430  0.00  0.00    +0.000 C 
ATOM     19  C   UNL     1       7.057   5.528  16.973  0.00  0.00    +0.000 C 
ATOM     20  C   UNL     1       6.939   6.727  17.865  0.00  0.00    +0.000 C 
ENDBRANCH  16  18
ENDBRANCH   7  14
ENDBRANCH   1   9
BRANCH   5  21
ATOM     21  C   UNL     1      -1.283  10.868  19.220  0.00  0.00    +0.000 C 
ATOM     22  C   UNL     1      -1.987  11.990  20.017  0.00  0.00    +0.000 C 
ATOM     23  C   UNL     1      -0.421  11.462  18.082  0.00  0.00    +0.000 C 
BRANCH  21  24
ATOM     24  C   UNL     1      -2.342   9.902  18.573  0.00  0.00    +0.000 C 
BRANCH  24  25
ATOM     25  C   UNL     1      -2.786  10.225  17.171  0.00  0.00    +0.000 A 
ATOM     26  N   UNL     1      -2.172   9.813  16.077  0.00  0.00    +0.000 NA
ATOM     27  N   UNL     1      -2.807  10.348  14.985  0.00  0.00    +0.000 NA
ATOM     28  C   UNL     1      -3.784  11.100  15.426  0.00  0.00    +0.000 A 
ATOM     29  N   UNL     1      -3.813  11.059  16.790  0.00  0.00    +0.000 N 
ATOM     30  C   UNL     1      -4.755  11.783  17.599  0.00  0.00    +0.000 C 
ENDBRANCH  24  25
ENDBRANCH  21  24
ENDBRANCH   5  21
TORSDOF 6
ENDMDL
MODEL 9
REMARK VINA RESULT:      -8.2      2.968      9.371
REMARK  Name = 
REMARK  10 active torsions:
REMARK  status: ('A' for Active; 'I' for Inactive)
REMARK    1  A    between atoms: C_1  and  C_2
REMARK    2  A    between atoms: C_4  and  C_5
REMARK    3  A    between atoms: N_7  and  C_8
REMARK    4  A    between atoms: C_12  and  C_13
REMARK    5  A    between atoms: C_13  and  C_14
REMARK    6  A    between atoms: C_13  and  C_15
REMARK    7  A    between atoms: C_13  and  C_16
REMARK    8  A    between atoms: C_16  and  C_17
REMARK    9  A    between atoms: N_21  and  C_22
REMARK   10  A    between atoms: C_25  and  C_26
REMARK                            x       y       z     vdW  Elec       q    Type
REMARK                         _______ _______ _______ _____ _____    ______ ____
ROOT
ATOM      1  C   UNL     1       1.356   8.552  20.491  0.00  0.00    +0.000 A 
ATOM      2  C   UNL     1       1.165   8.604  21.871  0.00  0.00    +0.000 A 
ATOM      3  C   UNL     1       0.327   9.558  22.444  0.00  0.00    +0.000 A 
ATOM      4  C   UNL     1      -0.362  10.465  21.641  0.00  0.00    +0.000 A 
ATOM      5  C   UNL     1      -0.223  10.445  20.245  0.00  0.00    +0.000 A 
ATOM      6  C   UNL     1       0.689   9.500  19.691  0.00  0.00    +0.000 A 
ENDROOT
BRANCH   1   9
ATOM      7  C   UNL     1       2.109   6.211  20.090  0.00  0.00    +0.000 C 
ATOM      8  O   UNL     1       1.295   5.642  20.817  0.00  0.00    +0.000 OA
ATOM      9  N   UNL     1       2.183   7.584  19.868  0.00  0.00    +0.000 N 
ATOM     10  H   UNL     1       2.820   7.880  19.139  0.00  0.00    +0.000 HD
BRANCH   7  14
ATOM     11  C   UNL     1       3.329   1.877  17.997  0.00  0.00    +0.000 C 
ATOM     12  C   UNL     1       3.617   3.298  18.374  0.00  0.00    +0.000 A 
ATOM     13  C   UNL     1       2.703   4.057  19.052  0.00  0.00    +0.000 A 
ATOM     14  C   UNL     1       3.082   5.360  19.334  0.00  0.00    +0.000 A 
ATOM     15  N   UNL     1       4.265   5.903  18.971  0.00  0.00    +0.000 NA
ATOM     16  C   UNL     1       5.103   5.085  18.303  0.00  0.00    +0.000 A 
ATOM     17  N   UNL     1       4.811   3.794  18.006  0.00  0.00    +0.000 NA
BRANCH  16  18
ATOM     18  C   UNL     1       6.449   5.585  17.839  0.00  0.00    +0.000 C 
ATOM     19  C   UNL     1       7.583   5.636  18.845  0.00  0.00    +0.000 C 
ATOM     20  C   UNL     1       7.634   4.663  17.707  0.00  0.00    +0.000 C 
ENDBRANCH  16  18
ENDBRANCH   7  14
ENDBRANCH   1   9
BRANCH   5  21
ATOM     21  C   UNL     1      -1.048  11.392  19.324  0.00  0.00    +0.000 C 
ATOM     22  C   UNL     1      -1.854  10.497  18.355  0.00  0.00    +0.000 C 
ATOM     23  C   UNL     1      -1.996  12.194  20.245  0.00  0.00    +0.000 C 
BRANCH  21  24
ATOM     24  C   UNL     1      -0.166  12.419  18.524  0.00  0.00    +0.000 C 
BRANCH  24  25
ATOM     25  C   UNL     1       0.134  13.728  19.204  0.00  0.00    +0.000 A 
ATOM     26  N   UNL     1      -0.501  14.861  18.963  0.00  0.00    +0.000 NA
ATOM     27  N   UNL     1       0.074  15.858  19.707  0.00  0.00    +0.000 NA
ATOM     28  C   UNL     1       1.069  15.329  20.374  0.00  0.00    +0.000 A 
ATOM     29  N   UNL     1       1.150  13.996  20.093  0.00  0.00    +0.000 N 
ATOM     30  C   UNL     1       2.141  13.113  20.647  0.00  0.00    +0.000 C 
ENDBRANCH  24  25
ENDBRANCH  21  24
ENDBRANCH   5  21
TORSDOF 6
ENDMDL
