MODEL 1
REMARK VINA RESULT:      -8.8      0.000      0.000
REMARK  Name = 
REMARK  7 active torsions:
REMARK  status: ('A' for Active; 'I' for Inactive)
REMARK    1  A    between atoms: C_1  and  C_2
REMARK    2  A    between atoms: C_2  and  C_3
REMARK    3  A    between atoms: C_2  and  C_10
REMARK    4  A    between atoms: C_3  and  C_4
REMARK    5  A    between atoms: N_8  and  C_9
REMARK    6  A    between atoms: C_12  and  C_13
REMARK    7  A    between atoms: C_28  and  C_29
REMARK                            x       y       z     vdW  Elec       q    Type
REMARK                         _______ _______ _______ _____ _____    ______ ____
ROOT
ATOM      1  C   UNL     1       3.760   7.205  17.623  0.00  0.00    +0.000 A 
ATOM      2  C   UNL     1       3.598   5.912  18.113  0.00  0.00    +0.000 A 
ATOM      3  C   UNL     1       2.689   5.677  19.142  0.00  0.00    +0.000 A 
ATOM      4  N   UNL     1       1.944   6.672  19.687  0.00  0.00    +0.000 NA
ATOM      5  C   UNL     1       2.074   7.927  19.217  0.00  0.00    +0.000 A 
ATOM      6  N   UNL     1       1.331   8.976  19.798  0.00  0.00    +0.000 N 
ATOM      7  C   UNL     1       1.363  10.332  19.278  0.00  0.00    +0.000 C 
ATOM      8  C   UNL     1       0.475  11.087  20.211  0.00  0.00    +0.000 A 
ATOM      9  C   UNL     1       0.011  10.221  21.200  0.00  0.00    +0.000 A 
ATOM     10  C   UNL     1      -0.805  10.645  22.231  0.00  0.00    +0.000 A 
ATOM     11  C   UNL     1      -1.169  11.992  22.256  0.00  0.00    +0.000 A 
ATOM     12  C   UNL     1      -0.721  12.872  21.252  0.00  0.00    +0.000 A 
ATOM     13  C   UNL     1       0.112  12.431  20.206  0.00  0.00    +0.000 A 
ATOM     14  C   UNL     1       0.539   8.871  20.937  0.00  0.00    +0.000 C 
ATOM     15  O   UNL     1       0.270   7.929  21.658  0.00  0.00    +0.000 OA
ATOM     16  C   UNL     1       2.950   8.207  18.166  0.00  0.00    +0.000 A 
ENDROOT
BRANCH   3  17
ATOM     17  C   UNL     1       2.467   4.279  19.691  0.00  0.00    +0.000 C 
ATOM     18  C   UNL     1       1.568   4.280  20.938  0.00  0.00    +0.000 C 
ATOM     19  C   UNL     1       1.520   2.903  21.582  0.00  0.00    +0.000 C 
ATOM     20  O   UNL     1       2.840   2.441  21.867  0.00  0.00    +0.000 OA
ATOM     21  C   UNL     1       3.603   2.256  20.676  0.00  0.00    +0.000 C 
ATOM     22  C   UNL     1       3.809   3.585  19.967  0.00  0.00    +0.000 C 
ENDBRANCH   3  17
BRANCH  13  23
ATOM     23  C   UNL     1       0.561  13.396  19.139  0.00  0.00    +0.000 C 
ATOM     24  F   UNL     1       1.912  13.478  19.010  0.00  0.00    +0.000 F 
ATOM     25  F   UNL     1       0.087  13.060  17.907  0.00  0.00    +0.000 F 
ATOM     26  F   UNL     1       0.132  14.666  19.373  0.00  0.00    +0.000 F 
ENDBRANCH  13  23
BRANCH   1  28
ATOM     27  C   UNL     1       4.639   6.593  15.302  0.00  0.00    +0.000 C 
ATOM     28  C   UNL     1       4.787   7.494  16.540  0.00  0.00    +0.000 C 
BRANCH  28  29
ATOM     29  C   UNL     1       6.232   7.539  17.082  0.00  0.00    +0.000 C 
BRANCH  29  30
ATOM     30  C   UNL     1       6.939   6.226  17.017  0.00  0.00    +0.000 A 
ATOM     31  N   UNL     1       7.375   5.625  15.929  0.00  0.00    +0.000 NA
ATOM     32  N   UNL     1       7.881   4.399  16.283  0.00  0.00    +0.000 NA
ATOM     33  C   UNL     1       7.780   4.293  17.587  0.00  0.00    +0.000 A 
ATOM     34  N   UNL     1       7.221   5.424  18.094  0.00  0.00    +0.000 N 
ATOM     35  C   UNL     1       6.993   5.705  19.485  0.00  0.00    +0.000 C 
ENDBRANCH  29  30
ENDBRANCH  28  29
ENDBRANCH   1  28
TORSDOF 5
ENDMDL
MODEL 2
REMARK VINA RESULT:      -8.7      4.257      9.931
REMARK  Name = 
REMARK  7 active torsions:
REMARK  status: ('A' for Active; 'I' for Inactive)
REMARK    1  A    between atoms: C_1  and  C_2
REMARK    2  A    between atoms: C_2  and  C_3
REMARK    3  A    between atoms: C_2  and  C_10
REMARK    4  A    between atoms: C_3  and  C_4
REMARK    5  A    between atoms: N_8  and  C_9
REMARK    6  A    between atoms: C_12  and  C_13
REMARK    7  A    between atoms: C_28  and  C_29
REMARK                            x       y       z     vdW  Elec       q    Type
REMARK                         _______ _______ _______ _____ _____    ______ ____
ROOT
ATOM      1  C   UNL     1       0.167  10.794  21.424  0.00  0.00    +0.000 A 
ATOM      2  C   UNL     1       0.372  11.940  20.662  0.00  0.00    +0.000 A 
ATOM      3  C   UNL     1       1.066  11.847  19.457  0.00  0.00    +0.000 A 
ATOM      4  N   UNL     1       1.549  10.668  18.992  0.00  0.00    +0.000 NA
ATOM      5  C   UNL     1       1.348   9.544  19.707  0.00  0.00    +0.000 A 
ATOM      6  N   UNL     1       1.876   8.318  19.252  0.00  0.00    +0.000 N 
ATOM      7  C   UNL     1       1.617   7.061  19.933  0.00  0.00    +0.000 C 
ATOM      8  C   UNL     1       2.390   6.064  19.134  0.00  0.00    +0.000 A 
ATOM      9  C   UNL     1       3.060   6.725  18.105  0.00  0.00    +0.000 A 
ATOM     10  C   UNL     1       3.890   6.064  17.219  0.00  0.00    +0.000 A 
ATOM     11  C   UNL     1       4.041   4.687  17.379  0.00  0.00    +0.000 A 
ATOM     12  C   UNL     1       3.356   4.006  18.403  0.00  0.00    +0.000 A 
ATOM     13  C   UNL     1       2.513   4.687  19.302  0.00  0.00    +0.000 A 
ATOM     14  C   UNL     1       2.726   8.158  18.162  0.00  0.00    +0.000 C 
ATOM     15  O   UNL     1       3.181   8.952  17.360  0.00  0.00    +0.000 OA
ATOM     16  C   UNL     1       0.633   9.582  20.905  0.00  0.00    +0.000 A 
ENDROOT
BRANCH   3  17
ATOM     17  C   UNL     1       1.293  13.070  18.586  0.00  0.00    +0.000 C 
ATOM     18  C   UNL     1       2.784  13.423  18.457  0.00  0.00    +0.000 C 
ATOM     19  C   UNL     1       2.974  14.754  17.747  0.00  0.00    +0.000 C 
ATOM     20  O   UNL     1       2.231  15.779  18.405  0.00  0.00    +0.000 OA
ATOM     21  C   UNL     1       0.827  15.535  18.344  0.00  0.00    +0.000 C 
ATOM     22  C   UNL     1       0.476  14.264  19.100  0.00  0.00    +0.000 C 
ENDBRANCH   3  17
BRANCH  13  23
ATOM     23  C   UNL     1       1.783   3.926  20.378  0.00  0.00    +0.000 C 
ATOM     24  F   UNL     1       0.436   4.112  20.361  0.00  0.00    +0.000 F 
ATOM     25  F   UNL     1       1.975   2.582  20.280  0.00  0.00    +0.000 F 
ATOM     26  F   UNL     1       2.190   4.274  21.629  0.00  0.00    +0.000 F 
ENDBRANCH  13  23
BRANCH   1  28
ATOM     27  C   UNL     1      -0.696   9.518  23.464  0.00  0.00    +0.000 C 
ATOM     28  C   UNL     1      -0.537  10.880  22.769  0.00  0.00    +0.000 C 
BRANCH  28  29
ATOM     29  C   UNL     1      -1.856  11.680  22.703  0.00  0.00    +0.000 C 
BRANCH  29  30
ATOM     30  C   UNL     1      -1.798  12.994  23.407  0.00  0.00    +0.000 A 
ATOM     31  N   UNL     1      -0.726  13.740  23.584  0.00  0.00    +0.000 NA
ATOM     32  N   UNL     1      -1.072  14.819  24.358  0.00  0.00    +0.000 NA
ATOM     33  C   UNL     1      -2.357  14.732  24.606  0.00  0.00    +0.000 A 
ATOM     34  N   UNL     1      -2.861  13.619  24.007  0.00  0.00    +0.000 N 
ATOM     35  C   UNL     1      -4.239  13.210  24.008  0.00  0.00    +0.000 C 
ENDBRANCH  29  30
ENDBRANCH  28  29
ENDBRANCH   1  28
TORSDOF 5
ENDMDL
MODEL 3
REMARK VINA RESULT:      -8.6      0.639      1.045
REMARK  Name = 
REMARK  7 active torsions:
REMARK  status: ('A' for Active; 'I' for Inactive)
REMARK    1  A    between atoms: C_1  and  C_2
REMARK    2  A    between atoms: C_2  and  C_3
REMARK    3  A    between atoms: C_2  and  C_10
REMARK    4  A    between atoms: C_3  and  C_4
REMARK    5  A    between atoms: N_8  and  C_9
REMARK    6  A    between atoms: C_12  and  C_13
REMARK    7  A    between atoms: C_28  and  C_29
REMARK                            x       y       z     vdW  Elec       q    Type
REMARK                         _______ _______ _______ _____ _____    ______ ____
ROOT
ATOM      1  C   UNL     1       3.701   7.358  17.837  0.00  0.00    +0.000 A 
ATOM      2  C   UNL     1       3.664   6.155  18.537  0.00  0.00    +0.000 A 
ATOM      3  C   UNL     1       2.786   6.013  19.609  0.00  0.00    +0.000 A 
ATOM      4  N   UNL     1       1.954   7.011  19.998  0.00  0.00    +0.000 NA
ATOM      5  C   UNL     1       1.963   8.178  19.324  0.00  0.00    +0.000 A 
ATOM      6  N   UNL     1       1.128   9.236  19.740  0.00  0.00    +0.000 N 
ATOM      7  C   UNL     1       1.030  10.484  19.002  0.00  0.00    +0.000 C 
ATOM      8  C   UNL     1       0.079  11.298  19.816  0.00  0.00    +0.000 A 
ATOM      9  C   UNL     1      -0.296  10.570  20.944  0.00  0.00    +0.000 A 
ATOM     10  C   UNL     1      -1.143  11.083  21.908  0.00  0.00    +0.000 A 
ATOM     11  C   UNL     1      -1.632  12.376  21.717  0.00  0.00    +0.000 A 
ATOM     12  C   UNL     1      -1.274  13.114  20.573  0.00  0.00    +0.000 A 
ATOM     13  C   UNL     1      -0.409  12.583  19.597  0.00  0.00    +0.000 A 
ATOM     14  C   UNL     1       0.354   9.250  20.896  0.00  0.00    +0.000 C 
ATOM     15  O   UNL     1       0.179   8.419  21.769  0.00  0.00    +0.000 OA
ATOM     16  C   UNL     1       2.803   8.358  18.224  0.00  0.00    +0.000 A 
ENDROOT
BRANCH   3  17
ATOM     17  C   UNL     1       2.700   4.711  20.386  0.00  0.00    +0.000 C 
ATOM     18  C   UNL     1       3.577   3.608  19.772  0.00  0.00    +0.000 C 
ATOM     19  C   UNL     1       3.325   2.267  20.444  0.00  0.00    +0.000 C 
ATOM     20  O   UNL     1       1.937   1.942  20.401  0.00  0.00    +0.000 OA
ATOM     21  C   UNL     1       1.152   2.872  21.145  0.00  0.00    +0.000 C 
ATOM     22  C   UNL     1       1.239   4.256  20.523  0.00  0.00    +0.000 C 
ENDBRANCH   3  17
BRANCH  13  23
ATOM     23  C   UNL     1      -0.058  13.395  18.376  0.00  0.00    +0.000 C 
ATOM     24  F   UNL     1       1.267  13.380  18.072  0.00  0.00    +0.000 F 
ATOM     25  F   UNL     1      -0.703  12.953  17.261  0.00  0.00    +0.000 F 
ATOM     26  F   UNL     1      -0.394  14.707  18.510  0.00  0.00    +0.000 F 
ENDBRANCH  13  23
BRANCH   1  28
ATOM     27  C   UNL     1       4.471   6.590  15.524  0.00  0.00    +0.000 C 
ATOM     28  C   UNL     1       4.691   7.556  16.699  0.00  0.00    +0.000 C 
BRANCH  28  29
ATOM     29  C   UNL     1       6.157   7.593  17.182  0.00  0.00    +0.000 C 
BRANCH  29  30
ATOM     30  C   UNL     1       6.873   6.293  17.028  0.00  0.00    +0.000 A 
ATOM     31  N   UNL     1       7.258   5.740  15.895  0.00  0.00    +0.000 NA
ATOM     32  N   UNL     1       7.794   4.508  16.174  0.00  0.00    +0.000 NA
ATOM     33  C   UNL     1       7.762   4.349  17.475  0.00  0.00    +0.000 A 
ATOM     34  N   UNL     1       7.218   5.453  18.056  0.00  0.00    +0.000 N 
ATOM     35  C   UNL     1       7.061   5.675  19.467  0.00  0.00    +0.000 C 
ENDBRANCH  29  30
ENDBRANCH  28  29
ENDBRANCH   1  28
TORSDOF 5
ENDMDL
MODEL 4
REMARK VINA RESULT:      -8.4      0.943      1.307
REMARK  Name = 
REMARK  7 active torsions:
REMARK  status: ('A' for Active; 'I' for Inactive)
REMARK    1  A    between atoms: C_1  and  C_2
REMARK    2  A    between atoms: C_2  and  C_3
REMARK    3  A    between atoms: C_2  and  C_10
REMARK    4  A    between atoms: C_3  and  C_4
REMARK    5  A    between atoms: N_8  and  C_9
REMARK    6  A    between atoms: C_12  and  C_13
REMARK    7  A    between atoms: C_28  and  C_29
REMARK                            x       y       z     vdW  Elec       q    Type
REMARK                         _______ _______ _______ _____ _____    ______ ____
ROOT
ATOM      1  C   UNL     1       4.062   6.661  17.446  0.00  0.00    +0.000 A 
ATOM      2  C   UNL     1       3.840   5.412  18.019  0.00  0.00    +0.000 A 
ATOM      3  C   UNL     1       2.913   5.286  19.051  0.00  0.00    +0.000 A 
ATOM      4  N   UNL     1       2.208   6.345  19.521  0.00  0.00    +0.000 NA
ATOM      5  C   UNL     1       2.396   7.560  18.970  0.00  0.00    +0.000 A 
ATOM      6  N   UNL     1       1.695   8.675  19.473  0.00  0.00    +0.000 N 
ATOM      7  C   UNL     1       1.790   9.991  18.865  0.00  0.00    +0.000 C 
ATOM      8  C   UNL     1       0.928  10.844  19.736  0.00  0.00    +0.000 A 
ATOM      9  C   UNL     1       0.419  10.066  20.775  0.00  0.00    +0.000 A 
ATOM     10  C   UNL     1      -0.386  10.593  21.767  0.00  0.00    +0.000 A 
ATOM     11  C   UNL     1      -0.692  11.952  21.698  0.00  0.00    +0.000 A 
ATOM     12  C   UNL     1      -0.198  12.744  20.644  0.00  0.00    +0.000 A 
ATOM     13  C   UNL     1       0.623  12.199  19.638  0.00  0.00    +0.000 A 
ATOM     14  C   UNL     1       0.889   8.681  20.607  0.00  0.00    +0.000 C 
ATOM     15  O   UNL     1       0.574   7.801  21.386  0.00  0.00    +0.000 OA
ATOM     16  C   UNL     1       3.291   7.731  17.913  0.00  0.00    +0.000 A 
ENDROOT
BRANCH   3  17
ATOM     17  C   UNL     1       2.627   3.938  19.689  0.00  0.00    +0.000 C 
ATOM     18  C   UNL     1       1.641   4.048  20.863  0.00  0.00    +0.000 C 
ATOM     19  C   UNL     1       1.521   2.727  21.606  0.00  0.00    +0.000 C 
ATOM     20  O   UNL     1       2.808   2.271  22.022  0.00  0.00    +0.000 OA
ATOM     21  C   UNL     1       3.652   1.984  20.908  0.00  0.00    +0.000 C 
ATOM     22  C   UNL     1       3.933   3.250  20.115  0.00  0.00    +0.000 C 
ENDBRANCH   3  17
BRANCH  13  23
ATOM     23  C   UNL     1       1.122  13.071  18.515  0.00  0.00    +0.000 C 
ATOM     24  F   UNL     1       1.642  14.256  18.932  0.00  0.00    +0.000 F 
ATOM     25  F   UNL     1       2.104  12.466  17.790  0.00  0.00    +0.000 F 
ATOM     26  F   UNL     1       0.140  13.388  17.627  0.00  0.00    +0.000 F 
ENDBRANCH  13  23
BRANCH   1  28
ATOM     27  C   UNL     1       4.507   7.070  14.962  0.00  0.00    +0.000 C 
ATOM     28  C   UNL     1       5.109   6.834  16.357  0.00  0.00    +0.000 C 
BRANCH  28  29
ATOM     29  C   UNL     1       6.176   5.717  16.371  0.00  0.00    +0.000 C 
BRANCH  29  30
ATOM     30  C   UNL     1       7.018   5.707  17.602  0.00  0.00    +0.000 A 
ATOM     31  N   UNL     1       7.250   4.670  18.383  0.00  0.00    +0.000 NA
ATOM     32  N   UNL     1       7.992   5.094  19.457  0.00  0.00    +0.000 NA
ATOM     33  C   UNL     1       8.232   6.373  19.291  0.00  0.00    +0.000 A 
ATOM     34  N   UNL     1       7.665   6.795  18.128  0.00  0.00    +0.000 N 
ATOM     35  C   UNL     1       7.753   8.120  17.578  0.00  0.00    +0.000 C 
ENDBRANCH  29  30
ENDBRANCH  28  29
ENDBRANCH   1  28
TORSDOF 5
ENDMDL
MODEL 5
REMARK VINA RESULT:      -8.3      1.160      1.548
REMARK  Name = 
REMARK  7 active torsions:
REMARK  status: ('A' for Active; 'I' for Inactive)
REMARK    1  A    between atoms: C_1  and  C_2
REMARK    2  A    between atoms: C_2  and  C_3
REMARK    3  A    between atoms: C_2  and  C_10
REMARK    4  A    between atoms: C_3  and  C_4
REMARK    5  A    between atoms: N_8  and  C_9
REMARK    6  A    between atoms: C_12  and  C_13
REMARK    7  A    between atoms: C_28  and  C_29
REMARK                            x       y       z     vdW  Elec       q    Type
REMARK                         _______ _______ _______ _____ _____    ______ ____
ROOT
ATOM      1  C   UNL     1       3.992   6.830  17.478  0.00  0.00    +0.000 A 
ATOM      2  C   UNL     1       3.799   5.566  18.028  0.00  0.00    +0.000 A 
ATOM      3  C   UNL     1       2.879   5.400  19.061  0.00  0.00    +0.000 A 
ATOM      4  N   UNL     1       2.153   6.435  19.553  0.00  0.00    +0.000 NA
ATOM      5  C   UNL     1       2.312   7.664  19.024  0.00  0.00    +0.000 A 
ATOM      6  N   UNL     1       1.588   8.754  19.549  0.00  0.00    +0.000 N 
ATOM      7  C   UNL     1       1.652  10.083  18.965  0.00  0.00    +0.000 C 
ATOM      8  C   UNL     1       0.774  10.899  19.855  0.00  0.00    +0.000 A 
ATOM      9  C   UNL     1       0.287  10.092  20.881  0.00  0.00    +0.000 A 
ATOM     10  C   UNL     1      -0.526  10.582  21.886  0.00  0.00    +0.000 A 
ATOM     11  C   UNL     1      -0.862  11.936  21.843  0.00  0.00    +0.000 A 
ATOM     12  C   UNL     1      -0.390  12.757  20.802  0.00  0.00    +0.000 A 
ATOM     13  C   UNL     1       0.439  12.249  19.784  0.00  0.00    +0.000 A 
ATOM     14  C   UNL     1       0.787   8.721  20.686  0.00  0.00    +0.000 C 
ATOM     15  O   UNL     1       0.494   7.819  21.450  0.00  0.00    +0.000 OA
ATOM     16  C   UNL     1       3.199   7.874  17.967  0.00  0.00    +0.000 A 
ENDROOT
BRANCH   3  17
ATOM     17  C   UNL     1       2.625   4.035  19.674  0.00  0.00    +0.000 C 
ATOM     18  C   UNL     1       1.661   4.105  20.869  0.00  0.00    +0.000 C 
ATOM     19  C   UNL     1       1.575   2.766  21.586  0.00  0.00    +0.000 C 
ATOM     20  O   UNL     1       2.876   2.321  21.966  0.00  0.00    +0.000 OA
ATOM     21  C   UNL     1       3.702   2.070  20.830  0.00  0.00    +0.000 C 
ATOM     22  C   UNL     1       3.948   3.358  20.060  0.00  0.00    +0.000 C 
ENDBRANCH   3  17
BRANCH  13  23
ATOM     23  C   UNL     1       0.915  13.153  18.675  0.00  0.00    +0.000 C 
ATOM     24  F   UNL     1       0.138  13.106  17.560  0.00  0.00    +0.000 F 
ATOM     25  F   UNL     1       0.946  14.460  19.053  0.00  0.00    +0.000 F 
ATOM     26  F   UNL     1       2.176  12.850  18.262  0.00  0.00    +0.000 F 
ENDBRANCH  13  23
BRANCH   1  28
ATOM     27  C   UNL     1       4.541   6.642  14.989  0.00  0.00    +0.000 C 
ATOM     28  C   UNL     1       5.031   7.046  16.389  0.00  0.00    +0.000 C 
BRANCH  28  29
ATOM     29  C   UNL     1       6.404   6.437  16.744  0.00  0.00    +0.000 C 
BRANCH  29  30
ATOM     30  C   UNL     1       7.279   7.350  17.536  0.00  0.00    +0.000 A 
ATOM     31  N   UNL     1       7.513   8.623  17.285  0.00  0.00    +0.000 NA
ATOM     32  N   UNL     1       8.441   9.079  18.187  0.00  0.00    +0.000 NA
ATOM     33  C   UNL     1       8.727   8.087  18.996  0.00  0.00    +0.000 A 
ATOM     34  N   UNL     1       8.003   6.990  18.644  0.00  0.00    +0.000 N 
ATOM     35  C   UNL     1       8.003   5.723  19.323  0.00  0.00    +0.000 C 
ENDBRANCH  29  30
ENDBRANCH  28  29
ENDBRANCH   1  28
TORSDOF 5
ENDMDL
MODEL 6
REMARK VINA RESULT:      -8.2      4.180      9.800
REMARK  Name = 
REMARK  7 active torsions:
REMARK  status: ('A' for Active; 'I' for Inactive)
REMARK    1  A    between atoms: C_1  and  C_2
REMARK    2  A    between atoms: C_2  and  C_3
REMARK    3  A    between atoms: C_2  and  C_10
REMARK    4  A    between atoms: C_3  and  C_4
REMARK    5  A    between atoms: N_8  and  C_9
REMARK    6  A    between atoms: C_12  and  C_13
REMARK    7  A    between atoms: C_28  and  C_29
REMARK                            x       y       z     vdW  Elec       q    Type
REMARK                         _______ _______ _______ _____ _____    ______ ____
ROOT
ATOM      1  C   UNL     1       0.196  10.716  21.488  0.00  0.00    +0.000 A 
ATOM      2  C   UNL     1       0.374  11.859  20.713  0.00  0.00    +0.000 A 
ATOM      3  C   UNL     1       1.042  11.764  19.494  0.00  0.00    +0.000 A 
ATOM      4  N   UNL     1       1.524  10.586  19.026  0.00  0.00    +0.000 NA
ATOM      5  C   UNL     1       1.348   9.465  19.752  0.00  0.00    +0.000 A 
ATOM      6  N   UNL     1       1.876   8.240  19.294  0.00  0.00    +0.000 N 
ATOM      7  C   UNL     1       1.643   6.985  19.988  0.00  0.00    +0.000 C 
ATOM      8  C   UNL     1       2.406   5.989  19.179  0.00  0.00    +0.000 A 
ATOM      9  C   UNL     1       3.047   6.648  18.131  0.00  0.00    +0.000 A 
ATOM     10  C   UNL     1       3.863   5.989  17.232  0.00  0.00    +0.000 A 
ATOM     11  C   UNL     1       4.029   4.613  17.397  0.00  0.00    +0.000 A 
ATOM     12  C   UNL     1       3.372   3.934  18.441  0.00  0.00    +0.000 A 
ATOM     13  C   UNL     1       2.544   4.615  19.353  0.00  0.00    +0.000 A 
ATOM     14  C   UNL     1       2.703   8.079  18.187  0.00  0.00    +0.000 C 
ATOM     15  O   UNL     1       3.133   8.872  17.370  0.00  0.00    +0.000 OA
ATOM     16  C   UNL     1       0.659   9.504  20.966  0.00  0.00    +0.000 A 
ENDROOT
BRANCH   3  17
ATOM     17  C   UNL     1       1.240  12.982  18.610  0.00  0.00    +0.000 C 
ATOM     18  C   UNL     1       2.715  13.406  18.526  0.00  0.00    +0.000 C 
ATOM     19  C   UNL     1       2.865  14.734  17.801  0.00  0.00    +0.000 C 
ATOM     20  O   UNL     1       2.049  15.732  18.415  0.00  0.00    +0.000 OA
ATOM     21  C   UNL     1       0.662  15.417  18.309  0.00  0.00    +0.000 C 
ATOM     22  C   UNL     1       0.347  14.142  19.075  0.00  0.00    +0.000 C 
ENDBRANCH   3  17
BRANCH  13  23
ATOM     23  C   UNL     1       1.844   3.855  20.451  0.00  0.00    +0.000 C 
ATOM     24  F   UNL     1       2.246   4.206  21.701  0.00  0.00    +0.000 F 
ATOM     25  F   UNL     1       0.495   4.041  20.427  0.00  0.00    +0.000 F 
ATOM     26  F   UNL     1       2.041   2.512  20.361  0.00  0.00    +0.000 F 
ENDBRANCH  13  23
BRANCH   1  28
ATOM     27  C   UNL     1      -0.597   9.450  23.562  0.00  0.00    +0.000 C 
ATOM     28  C   UNL     1      -0.479  10.806  22.848  0.00  0.00    +0.000 C 
BRANCH  28  29
ATOM     29  C   UNL     1      -1.814  11.580  22.803  0.00  0.00    +0.000 C 
BRANCH  29  30
ATOM     30  C   UNL     1      -1.653  13.061  22.900  0.00  0.00    +0.000 A 
ATOM     31  N   UNL     1      -0.935  13.713  23.792  0.00  0.00    +0.000 NA
ATOM     32  N   UNL     1      -1.123  15.058  23.601  0.00  0.00    +0.000 NA
ATOM     33  C   UNL     1      -1.922  15.203  22.571  0.00  0.00    +0.000 A 
ATOM     34  N   UNL     1      -2.259  13.979  22.081  0.00  0.00    +0.000 N 
ATOM     35  C   UNL     1      -3.076  13.726  20.927  0.00  0.00    +0.000 C 
ENDBRANCH  29  30
ENDBRANCH  28  29
ENDBRANCH   1  28
TORSDOF 5
ENDMDL
MODEL 7
REMARK VINA RESULT:      -8.2      1.174      1.503
REMARK  Name = 
REMARK  7 active torsions:
REMARK  status: ('A' for Active; 'I' for Inactive)
REMARK    1  A    between atoms: C_1  and  C_2
REMARK    2  A    between atoms: C_2  and  C_3
REMARK    3  A    between atoms: C_2  and  C_10
REMARK    4  A    between atoms: C_3  and  C_4
REMARK    5  A    between atoms: N_8  and  C_9
REMARK    6  A    between atoms: C_12  and  C_13
REMARK    7  A    between atoms: C_28  and  C_29
REMARK                            x       y       z     vdW  Elec       q    Type
REMARK                         _______ _______ _______ _____ _____    ______ ____
ROOT
ATOM      1  C   UNL     1       3.548   7.184  18.071  0.00  0.00    +0.000 A 
ATOM      2  C   UNL     1       3.114   5.939  18.517  0.00  0.00    +0.000 A 
ATOM      3  C   UNL     1       2.037   5.864  19.398  0.00  0.00    +0.000 A 
ATOM      4  N   UNL     1       1.387   6.969  19.839  0.00  0.00    +0.000 NA
ATOM      5  C   UNL     1       1.781   8.183  19.407  0.00  0.00    +0.000 A 
ATOM      6  N   UNL     1       1.136   9.343  19.886  0.00  0.00    +0.000 N 
ATOM      7  C   UNL     1       1.459  10.671  19.392  0.00  0.00    +0.000 C 
ATOM      8  C   UNL     1       0.573  11.567  20.193  0.00  0.00    +0.000 A 
ATOM      9  C   UNL     1      -0.162  10.797  21.093  0.00  0.00    +0.000 A 
ATOM     10  C   UNL     1      -1.043  11.357  21.998  0.00  0.00    +0.000 A 
ATOM     11  C   UNL     1      -1.190  12.745  21.984  0.00  0.00    +0.000 A 
ATOM     12  C   UNL     1      -0.466  13.531  21.068  0.00  0.00    +0.000 A 
ATOM     13  C   UNL     1       0.431  12.952  20.150  0.00  0.00    +0.000 A 
ATOM     14  C   UNL     1       0.178   9.378  20.894  0.00  0.00    +0.000 C 
ATOM     15  O   UNL     1      -0.339   8.499  21.557  0.00  0.00    +0.000 OA
ATOM     16  C   UNL     1       2.835   8.308  18.501  0.00  0.00    +0.000 A 
ENDROOT
BRANCH   3  17
ATOM     17  C   UNL     1       1.519   4.525  19.892  0.00  0.00    +0.000 C 
ATOM     18  C   UNL     1       2.160   4.110  21.226  0.00  0.00    +0.000 C 
ATOM     19  C   UNL     1       1.777   2.687  21.601  0.00  0.00    +0.000 C 
ATOM     20  O   UNL     1       2.104   1.788  20.542  0.00  0.00    +0.000 OA
ATOM     21  C   UNL     1       1.351   2.066  19.362  0.00  0.00    +0.000 C 
ATOM     22  C   UNL     1       1.705   3.441  18.819  0.00  0.00    +0.000 C 
ENDBRANCH   3  17
BRANCH  13  23
ATOM     23  C   UNL     1       1.179  13.821  19.172  0.00  0.00    +0.000 C 
ATOM     24  F   UNL     1       1.032  13.437  17.876  0.00  0.00    +0.000 F 
ATOM     25  F   UNL     1       0.776  15.121  19.225  0.00  0.00    +0.000 F 
ATOM     26  F   UNL     1       2.520  13.833  19.407  0.00  0.00    +0.000 F 
ENDBRANCH  13  23
BRANCH   1  28
ATOM     27  C   UNL     1       4.400   7.201  15.661  0.00  0.00    +0.000 C 
ATOM     28  C   UNL     1       4.756   7.295  17.154  0.00  0.00    +0.000 C 
BRANCH  28  29
ATOM     29  C   UNL     1       5.904   6.345  17.559  0.00  0.00    +0.000 C 
BRANCH  29  30
ATOM     30  C   UNL     1       6.485   5.584  16.416  0.00  0.00    +0.000 A 
ATOM     31  N   UNL     1       7.521   5.941  15.683  0.00  0.00    +0.000 NA
ATOM     32  N   UNL     1       7.680   5.021  14.677  0.00  0.00    +0.000 NA
ATOM     33  C   UNL     1       6.761   4.099  14.838  0.00  0.00    +0.000 A 
ATOM     34  N   UNL     1       6.006   4.393  15.931  0.00  0.00    +0.000 N 
ATOM     35  C   UNL     1       4.935   3.594  16.459  0.00  0.00    +0.000 C 
ENDBRANCH  29  30
ENDBRANCH  28  29
ENDBRANCH   1  28
TORSDOF 5
ENDMDL
MODEL 8
REMARK VINA RESULT:      -8.1      0.556      1.041
REMARK  Name = 
REMARK  7 active torsions:
REMARK  status: ('A' for Active; 'I' for Inactive)
REMARK    1  A    between atoms: C_1  and  C_2
REMARK    2  A    between atoms: C_2  and  C_3
REMARK    3  A    between atoms: C_2  and  C_10
REMARK    4  A    between atoms: C_3  and  C_4
REMARK    5  A    between atoms: N_8  and  C_9
REMARK    6  A    between atoms: C_12  and  C_13
REMARK    7  A    between atoms: C_28  and  C_29
REMARK                            x       y       z     vdW  Elec       q    Type
REMARK                         _______ _______ _______ _____ _____    ______ ____
ROOT
ATOM      1  C   UNL     1       3.830   6.953  17.511  0.00  0.00    +0.000 A 
ATOM      2  C   UNL     1       3.656   5.678  18.040  0.00  0.00    +0.000 A 
ATOM      3  C   UNL     1       2.769   5.489  19.097  0.00  0.00    +0.000 A 
ATOM      4  N   UNL     1       2.057   6.512  19.633  0.00  0.00    +0.000 NA
ATOM      5  C   UNL     1       2.197   7.752  19.124  0.00  0.00    +0.000 A 
ATOM      6  N   UNL     1       1.489   8.830  19.694  0.00  0.00    +0.000 N 
ATOM      7  C   UNL     1       1.533  10.170  19.136  0.00  0.00    +0.000 C 
ATOM      8  C   UNL     1       0.682  10.967  20.069  0.00  0.00    +0.000 A 
ATOM      9  C   UNL     1       0.228  10.138  21.093  0.00  0.00    +0.000 A 
ATOM     10  C   UNL     1      -0.554  10.606  22.132  0.00  0.00    +0.000 A 
ATOM     11  C   UNL     1      -0.893  11.959  22.127  0.00  0.00    +0.000 A 
ATOM     12  C   UNL     1      -0.454  12.802  21.089  0.00  0.00    +0.000 A 
ATOM     13  C   UNL     1       0.344  12.317  20.035  0.00  0.00    +0.000 A 
ATOM     14  C   UNL     1       0.723   8.771  20.855  0.00  0.00    +0.000 C 
ATOM     15  O   UNL     1       0.456   7.854  21.608  0.00  0.00    +0.000 OA
ATOM     16  C   UNL     1       3.052   7.985  18.045  0.00  0.00    +0.000 A 
ENDROOT
BRANCH   3  17
ATOM     17  C   UNL     1       2.536   4.111  19.691  0.00  0.00    +0.000 C 
ATOM     18  C   UNL     1       1.598   4.153  20.908  0.00  0.00    +0.000 C 
ATOM     19  C   UNL     1       1.535   2.801  21.601  0.00  0.00    +0.000 C 
ATOM     20  O   UNL     1       2.847   2.356  21.943  0.00  0.00    +0.000 OA
ATOM     21  C   UNL     1       3.648   2.131  20.785  0.00  0.00    +0.000 C 
ATOM     22  C   UNL     1       3.871   3.434  20.033  0.00  0.00    +0.000 C 
ENDBRANCH   3  17
BRANCH  13  23
ATOM     23  C   UNL     1       0.784  13.244  18.931  0.00  0.00    +0.000 C 
ATOM     24  F   UNL     1       2.108  13.153  18.636  0.00  0.00    +0.000 F 
ATOM     25  F   UNL     1       0.124  13.004  17.764  0.00  0.00    +0.000 F 
ATOM     26  F   UNL     1       0.558  14.552  19.230  0.00  0.00    +0.000 F 
ENDBRANCH  13  23
BRANCH   1  28
ATOM     27  C   UNL     1       4.783   6.127  15.287  0.00  0.00    +0.000 C 
ATOM     28  C   UNL     1       4.835   7.193  16.394  0.00  0.00    +0.000 C 
BRANCH  28  29
ATOM     29  C   UNL     1       6.264   7.445  16.920  0.00  0.00    +0.000 C 
BRANCH  29  30
ATOM     30  C   UNL     1       6.872   6.263  17.598  0.00  0.00    +0.000 A 
ATOM     31  N   UNL     1       7.011   6.092  18.898  0.00  0.00    +0.000 NA
ATOM     32  N   UNL     1       7.699   4.924  19.111  0.00  0.00    +0.000 NA
ATOM     33  C   UNL     1       7.932   4.384  17.938  0.00  0.00    +0.000 A 
ATOM     34  N   UNL     1       7.408   5.173  16.961  0.00  0.00    +0.000 N 
ATOM     35  C   UNL     1       7.416   4.892  15.552  0.00  0.00    +0.000 C 
ENDBRANCH  29  30
ENDBRANCH  28  29
ENDBRANCH   1  28
TORSDOF 5
ENDMDL
MODEL 9
REMARK VINA RESULT:      -8.1      1.494      2.146
REMARK  Name = 
REMARK  7 active torsions:
REMARK  status: ('A' for Active; 'I' for Inactive)
REMARK    1  A    between atoms: C_1  and  C_2
REMARK    2  A    between atoms: C_2  and  C_3
REMARK    3  A    between atoms: C_2  and  C_10
REMARK    4  A    between atoms: C_3  and  C_4
REMARK    5  A    between atoms: N_8  and  C_9
REMARK    6  A    between atoms: C_12  and  C_13
REMARK    7  A    between atoms: C_28  and  C_29
REMARK                            x       y       z     vdW  Elec       q    Type
REMARK                         _______ _______ _______ _____ _____    ______ ____
ROOT
ATOM      1  C   UNL     1       4.044   6.286  17.422  0.00  0.00    +0.000 A 
ATOM      2  C   UNL     1       3.770   5.069  18.041  0.00  0.00    +0.000 A 
ATOM      3  C   UNL     1       2.871   5.028  19.104  0.00  0.00    +0.000 A 
ATOM      4  N   UNL     1       2.243   6.140  19.561  0.00  0.00    +0.000 NA
ATOM      5  C   UNL     1       2.482   7.325  18.966  0.00  0.00    +0.000 A 
ATOM      6  N   UNL     1       1.862   8.494  19.454  0.00  0.00    +0.000 N 
ATOM      7  C   UNL     1       2.012   9.783  18.802  0.00  0.00    +0.000 C 
ATOM      8  C   UNL     1       1.228  10.710  19.671  0.00  0.00    +0.000 A 
ATOM      9  C   UNL     1       0.710   9.995  20.749  0.00  0.00    +0.000 A 
ATOM     10  C   UNL     1      -0.032  10.597  21.748  0.00  0.00    +0.000 A 
ATOM     11  C   UNL     1      -0.261  11.969  21.645  0.00  0.00    +0.000 A 
ATOM     12  C   UNL     1       0.243  12.698  20.551  0.00  0.00    +0.000 A 
ATOM     13  C   UNL     1       0.998  12.077  19.539  0.00  0.00    +0.000 A 
ATOM     14  C   UNL     1       1.095   8.580  20.612  0.00  0.00    +0.000 C 
ATOM     15  O   UNL     1       0.756   7.744  21.428  0.00  0.00    +0.000 OA
ATOM     16  C   UNL     1       3.351   7.412  17.878  0.00  0.00    +0.000 A 
ENDROOT
BRANCH   3  17
ATOM     17  C   UNL     1       2.529   3.719  19.793  0.00  0.00    +0.000 C 
ATOM     18  C   UNL     1       1.494   3.905  20.914  0.00  0.00    +0.000 C 
ATOM     19  C   UNL     1       1.314   2.625  21.715  0.00  0.00    +0.000 C 
ATOM     20  O   UNL     1       2.572   2.167  22.210  0.00  0.00    +0.000 OA
ATOM     21  C   UNL     1       3.458   1.810  21.152  0.00  0.00    +0.000 C 
ATOM     22  C   UNL     1       3.800   3.030  20.312  0.00  0.00    +0.000 C 
ENDBRANCH   3  17
BRANCH  13  23
ATOM     23  C   UNL     1       1.510  12.884  18.374  0.00  0.00    +0.000 C 
ATOM     24  F   UNL     1       0.540  13.248  17.493  0.00  0.00    +0.000 F 
ATOM     25  F   UNL     1       2.107  14.042  18.771  0.00  0.00    +0.000 F 
ATOM     26  F   UNL     1       2.441  12.212  17.644  0.00  0.00    +0.000 F 
ENDBRANCH  13  23
BRANCH   1  28
ATOM     27  C   UNL     1       4.585   7.195  15.095  0.00  0.00    +0.000 C 
ATOM     28  C   UNL     1       5.064   6.364  16.297  0.00  0.00    +0.000 C 
BRANCH  28  29
ATOM     29  C   UNL     1       5.613   4.980  15.890  0.00  0.00    +0.000 C 
BRANCH  29  30
ATOM     30  C   UNL     1       6.606   5.031  14.777  0.00  0.00    +0.000 A 
ATOM     31  N   UNL     1       7.765   5.659  14.791  0.00  0.00    +0.000 NA
ATOM     32  N   UNL     1       8.335   5.543  13.548  0.00  0.00    +0.000 NA
ATOM     33  C   UNL     1       7.532   4.814  12.811  0.00  0.00    +0.000 A 
ATOM     34  N   UNL     1       6.448   4.446  13.547  0.00  0.00    +0.000 N 
ATOM     35  C   UNL     1       5.373   3.602  13.103  0.00  0.00    +0.000 C 
ENDBRANCH  29  30
ENDBRANCH  28  29
ENDBRANCH   1  28
TORSDOF 5
ENDMDL
