MODEL 1
REMARK VINA RESULT:      -9.6      0.000      0.000
REMARK  Name = 
REMARK  7 active torsions:
REMARK  status: ('A' for Active; 'I' for Inactive)
REMARK    1  A    between atoms: C_1  and  C_2
REMARK    2  A    between atoms: C_6  and  C_7
REMARK    3  A    between atoms: C_7  and  C_8
REMARK    4  A    between atoms: C_8  and  C_9
REMARK    5  A    between atoms: C_8  and  C_10
REMARK    6  A    between atoms: C_14  and  N_15
REMARK    7  A    between atoms: C_22  and  C_23
REMARK                            x       y       z     vdW  Elec       q    Type
REMARK                         _______ _______ _______ _____ _____    ______ ____
ROOT
ATOM      1  C   UNL     1       4.399   5.688  17.715  0.00  0.00    +0.000 A 
ATOM      2  C   UNL     1       4.156   4.511  18.418  0.00  0.00    +0.000 A 
ATOM      3  C   UNL     1       3.230   4.492  19.467  0.00  0.00    +0.000 A 
ATOM      4  C   UNL     1       2.486   5.634  19.794  0.00  0.00    +0.000 A 
ATOM      5  C   UNL     1       2.664   6.812  19.074  0.00  0.00    +0.000 A 
ATOM      6  C   UNL     1       3.645   6.816  18.059  0.00  0.00    +0.000 A 
ENDROOT
BRANCH   5   7
ATOM      7  N   UNL     1       1.883   7.978  19.273  0.00  0.00    +0.000 N 
ATOM      8  C   UNL     1       1.218   8.170  20.545  0.00  0.00    +0.000 C 
ATOM      9  C   UNL     1       0.620   9.519  20.443  0.00  0.00    +0.000 A 
ATOM     10  C   UNL     1       0.881  10.054  19.183  0.00  0.00    +0.000 A 
ATOM     11  C   UNL     1       0.421  11.306  18.832  0.00  0.00    +0.000 A 
ATOM     12  C   UNL     1      -0.310  12.025  19.783  0.00  0.00    +0.000 A 
ATOM     13  C   UNL     1      -0.561  11.489  21.064  0.00  0.00    +0.000 A 
ATOM     14  C   UNL     1      -0.091  10.215  21.419  0.00  0.00    +0.000 A 
ATOM     15  C   UNL     1       1.703   9.075  18.429  0.00  0.00    +0.000 C 
ATOM     16  O   UNL     1       2.111   9.285  17.301  0.00  0.00    +0.000 OA
BRANCH  14  17
ATOM     17  C   UNL     1      -0.330   9.645  22.795  0.00  0.00    +0.000 C 
ATOM     18  F   UNL     1      -1.075  10.453  23.603  0.00  0.00    +0.000 F 
ATOM     19  F   UNL     1      -0.994   8.459  22.758  0.00  0.00    +0.000 F 
ATOM     20  F   UNL     1       0.824   9.414  23.475  0.00  0.00    +0.000 F 
ENDBRANCH  14  17
ENDBRANCH   5   7
BRANCH   1  21
ATOM     21  C   UNL     1       5.397   5.825  16.573  0.00  0.00    +0.000 C 
ATOM     22  C   UNL     1       4.966   6.981  15.661  0.00  0.00    +0.000 C 
BRANCH  21  23
ATOM     23  C   UNL     1       5.662   4.543  15.757  0.00  0.00    +0.000 C 
BRANCH  23  29
ATOM     24  C   UNL     1       5.413   3.387  12.675  0.00  0.00    +0.000 C 
ATOM     25  C   UNL     1       6.462   4.249  13.263  0.00  0.00    +0.000 A 
ATOM     26  C   UNL     1       7.584   4.739  12.638  0.00  0.00    +0.000 A 
ATOM     27  O   UNL     1       8.293   5.508  13.496  0.00  0.00    +0.000 OA
ATOM     28  N   UNL     1       7.651   5.541  14.719  0.00  0.00    +0.000 NA
ATOM     29  C   UNL     1       6.569   4.761  14.586  0.00  0.00    +0.000 A 
ENDBRANCH  23  29
ENDBRANCH  21  23
ENDBRANCH   1  21
TORSDOF 5
ENDMDL
MODEL 2
REMARK VINA RESULT:      -9.6      1.756      2.623
REMARK  Name = 
REMARK  7 active torsions:
REMARK  status: ('A' for Active; 'I' for Inactive)
REMARK    1  A    between atoms: C_1  and  C_2
REMARK    2  A    between atoms: C_6  and  C_7
REMARK    3  A    between atoms: C_7  and  C_8
REMARK    4  A    between atoms: C_8  and  C_9
REMARK    5  A    between atoms: C_8  and  C_10
REMARK    6  A    between atoms: C_14  and  N_15
REMARK    7  A    between atoms: C_22  and  C_23
REMARK                            x       y       z     vdW  Elec       q    Type
REMARK                         _______ _______ _______ _____ _____    ______ ____
ROOT
ATOM      1  C   UNL     1       4.208   4.882  18.069  0.00  0.00    +0.000 A 
ATOM      2  C   UNL     1       3.952   3.848  18.965  0.00  0.00    +0.000 A 
ATOM      3  C   UNL     1       3.125   4.061  20.074  0.00  0.00    +0.000 A 
ATOM      4  C   UNL     1       2.492   5.295  20.275  0.00  0.00    +0.000 A 
ATOM      5  C   UNL     1       2.681   6.333  19.367  0.00  0.00    +0.000 A 
ATOM      6  C   UNL     1       3.564   6.106  18.290  0.00  0.00    +0.000 A 
ENDROOT
BRANCH   5   7
ATOM      7  N   UNL     1       2.000   7.573  19.442  0.00  0.00    +0.000 N 
ATOM      8  C   UNL     1       1.317   7.929  20.669  0.00  0.00    +0.000 C 
ATOM      9  C   UNL     1       0.844   9.310  20.436  0.00  0.00    +0.000 A 
ATOM     10  C   UNL     1       1.189   9.712  19.146  0.00  0.00    +0.000 A 
ATOM     11  C   UNL     1       0.852  10.965  18.678  0.00  0.00    +0.000 A 
ATOM     12  C   UNL     1       0.159  11.822  19.540  0.00  0.00    +0.000 A 
ATOM     13  C   UNL     1      -0.176  11.419  20.850  0.00  0.00    +0.000 A 
ATOM     14  C   UNL     1       0.169  10.145  21.325  0.00  0.00    +0.000 A 
ATOM     15  C   UNL     1       1.944   8.607  18.505  0.00  0.00    +0.000 C 
ATOM     16  O   UNL     1       2.402   8.685  17.380  0.00  0.00    +0.000 OA
BRANCH  14  17
ATOM     17  C   UNL     1      -0.160   9.714  22.733  0.00  0.00    +0.000 C 
ATOM     18  F   UNL     1      -0.845  10.653  23.448  0.00  0.00    +0.000 F 
ATOM     19  F   UNL     1      -0.934   8.597  22.768  0.00  0.00    +0.000 F 
ATOM     20  F   UNL     1       0.948   9.434  23.468  0.00  0.00    +0.000 F 
ENDBRANCH  14  17
ENDBRANCH   5   7
BRANCH   1  21
ATOM     21  C   UNL     1       5.105   4.765  16.844  0.00  0.00    +0.000 C 
ATOM     22  C   UNL     1       4.609   3.610  15.964  0.00  0.00    +0.000 C 
BRANCH  21  23
ATOM     23  C   UNL     1       6.615   4.639  17.127  0.00  0.00    +0.000 C 
BRANCH  23  29
ATOM     24  C   UNL     1       7.993   5.621  19.961  0.00  0.00    +0.000 C 
ATOM     25  C   UNL     1       7.849   6.365  18.692  0.00  0.00    +0.000 A 
ATOM     26  C   UNL     1       8.248   7.654  18.431  0.00  0.00    +0.000 A 
ATOM     27  O   UNL     1       7.966   7.976  17.148  0.00  0.00    +0.000 OA
ATOM     28  N   UNL     1       7.364   6.899  16.527  0.00  0.00    +0.000 NA
ATOM     29  C   UNL     1       7.268   5.944  17.463  0.00  0.00    +0.000 A 
ENDBRANCH  23  29
ENDBRANCH  21  23
ENDBRANCH   1  21
TORSDOF 5
ENDMDL
MODEL 3
REMARK VINA RESULT:      -9.5      1.130      1.601
REMARK  Name = 
REMARK  7 active torsions:
REMARK  status: ('A' for Active; 'I' for Inactive)
REMARK    1  A    between atoms: C_1  and  C_2
REMARK    2  A    between atoms: C_6  and  C_7
REMARK    3  A    between atoms: C_7  and  C_8
REMARK    4  A    between atoms: C_8  and  C_9
REMARK    5  A    between atoms: C_8  and  C_10
REMARK    6  A    between atoms: C_14  and  N_15
REMARK    7  A    between atoms: C_22  and  C_23
REMARK                            x       y       z     vdW  Elec       q    Type
REMARK                         _______ _______ _______ _____ _____    ______ ____
ROOT
ATOM      1  C   UNL     1       4.959   5.037  19.132  0.00  0.00    +0.000 A 
ATOM      2  C   UNL     1       4.392   3.832  19.541  0.00  0.00    +0.000 A 
ATOM      3  C   UNL     1       3.102   3.806  20.085  0.00  0.00    +0.000 A 
ATOM      4  C   UNL     1       2.333   4.974  20.174  0.00  0.00    +0.000 A 
ATOM      5  C   UNL     1       2.848   6.185  19.721  0.00  0.00    +0.000 A 
ATOM      6  C   UNL     1       4.171   6.190  19.230  0.00  0.00    +0.000 A 
ENDROOT
BRANCH   5   7
ATOM      7  N   UNL     1       2.101   7.389  19.681  0.00  0.00    +0.000 N 
ATOM      8  C   UNL     1       1.368   7.801  20.861  0.00  0.00    +0.000 C 
ATOM      9  C   UNL     1       0.829   9.132  20.508  0.00  0.00    +0.000 A 
ATOM     10  C   UNL     1       1.186   9.450  19.199  0.00  0.00    +0.000 A 
ATOM     11  C   UNL     1       0.795  10.642  18.625  0.00  0.00    +0.000 A 
ATOM     12  C   UNL     1       0.036  11.525  19.400  0.00  0.00    +0.000 A 
ATOM     13  C   UNL     1      -0.312  11.208  20.730  0.00  0.00    +0.000 A 
ATOM     14  C   UNL     1       0.087   9.995  21.313  0.00  0.00    +0.000 A 
ATOM     15  C   UNL     1       2.014   8.341  18.665  0.00  0.00    +0.000 C 
ATOM     16  O   UNL     1       2.498   8.356  17.547  0.00  0.00    +0.000 OA
BRANCH  14  17
ATOM     17  C   UNL     1      -0.256   9.659  22.743  0.00  0.00    +0.000 C 
ATOM     18  F   UNL     1      -0.960  10.638  23.383  0.00  0.00    +0.000 F 
ATOM     19  F   UNL     1      -1.020   8.539  22.845  0.00  0.00    +0.000 F 
ATOM     20  F   UNL     1       0.845   9.442  23.510  0.00  0.00    +0.000 F 
ENDBRANCH  14  17
ENDBRANCH   5   7
BRANCH   1  21
ATOM     21  C   UNL     1       6.356   5.181  18.547  0.00  0.00    +0.000 C 
ATOM     22  C   UNL     1       7.344   5.514  19.673  0.00  0.00    +0.000 C 
BRANCH  21  23
ATOM     23  C   UNL     1       6.494   6.174  17.375  0.00  0.00    +0.000 C 
BRANCH  23  29
ATOM     24  C   UNL     1       4.472   4.019  15.906  0.00  0.00    +0.000 C 
ATOM     25  C   UNL     1       5.756   4.568  15.420  0.00  0.00    +0.000 A 
ATOM     26  C   UNL     1       6.396   4.271  14.240  0.00  0.00    +0.000 A 
ATOM     27  O   UNL     1       7.537   4.991  14.139  0.00  0.00    +0.000 OA
ATOM     28  N   UNL     1       7.680   5.784  15.260  0.00  0.00    +0.000 NA
ATOM     29  C   UNL     1       6.626   5.506  16.041  0.00  0.00    +0.000 A 
ENDBRANCH  23  29
ENDBRANCH  21  23
ENDBRANCH   1  21
TORSDOF 5
ENDMDL
MODEL 4
REMARK VINA RESULT:      -9.4      1.178      1.633
REMARK  Name = 
REMARK  7 active torsions:
REMARK  status: ('A' for Active; 'I' for Inactive)
REMARK    1  A    between atoms: C_1  and  C_2
REMARK    2  A    between atoms: C_6  and  C_7
REMARK    3  A    between atoms: C_7  and  C_8
REMARK    4  A    between atoms: C_8  and  C_9
REMARK    5  A    between atoms: C_8  and  C_10
REMARK    6  A    between atoms: C_14  and  N_15
REMARK    7  A    between atoms: C_22  and  C_23
REMARK                            x       y       z     vdW  Elec       q    Type
REMARK                         _______ _______ _______ _____ _____    ______ ____
ROOT
ATOM      1  C   UNL     1       5.396   5.279  18.945  0.00  0.00    +0.000 A 
ATOM      2  C   UNL     1       4.913   4.024  19.310  0.00  0.00    +0.000 A 
ATOM      3  C   UNL     1       3.610   3.883  19.801  0.00  0.00    +0.000 A 
ATOM      4  C   UNL     1       2.745   4.984  19.879  0.00  0.00    +0.000 A 
ATOM      5  C   UNL     1       3.178   6.241  19.469  0.00  0.00    +0.000 A 
ATOM      6  C   UNL     1       4.514   6.363  19.031  0.00  0.00    +0.000 A 
ENDROOT
BRANCH   5   7
ATOM      7  N   UNL     1       2.337   7.381  19.420  0.00  0.00    +0.000 N 
ATOM      8  C   UNL     1       1.596   7.761  20.606  0.00  0.00    +0.000 C 
ATOM      9  C   UNL     1       0.948   9.038  20.238  0.00  0.00    +0.000 A 
ATOM     10  C   UNL     1       1.254   9.354  18.915  0.00  0.00    +0.000 A 
ATOM     11  C   UNL     1       0.760  10.499  18.325  0.00  0.00    +0.000 A 
ATOM     12  C   UNL     1      -0.052  11.336  19.098  0.00  0.00    +0.000 A 
ATOM     13  C   UNL     1      -0.348  11.022  20.441  0.00  0.00    +0.000 A 
ATOM     14  C   UNL     1       0.156   9.857  21.039  0.00  0.00    +0.000 A 
ATOM     15  C   UNL     1       2.157   8.302  18.386  0.00  0.00    +0.000 C 
ATOM     16  O   UNL     1       2.617   8.330  17.259  0.00  0.00    +0.000 OA
BRANCH  14  17
ATOM     17  C   UNL     1      -0.133   9.527  22.483  0.00  0.00    +0.000 C 
ATOM     18  F   UNL     1      -0.894   8.406  22.648  0.00  0.00    +0.000 F 
ATOM     19  F   UNL     1       0.999   9.304  23.202  0.00  0.00    +0.000 F 
ATOM     20  F   UNL     1      -0.804  10.520  23.124  0.00  0.00    +0.000 F 
ENDBRANCH  14  17
ENDBRANCH   5   7
BRANCH   1  21
ATOM     21  C   UNL     1       6.799   5.547  18.419  0.00  0.00    +0.000 C 
ATOM     22  C   UNL     1       6.841   6.942  17.782  0.00  0.00    +0.000 C 
BRANCH  21  23
ATOM     23  C   UNL     1       7.372   4.481  17.463  0.00  0.00    +0.000 C 
BRANCH  23  29
ATOM     24  C   UNL     1       4.503   3.524  16.142  0.00  0.00    +0.000 C 
ATOM     25  C   UNL     1       5.649   4.193  15.490  0.00  0.00    +0.000 A 
ATOM     26  C   UNL     1       5.766   4.543  14.166  0.00  0.00    +0.000 A 
ATOM     27  O   UNL     1       6.952   5.159  13.953  0.00  0.00    +0.000 OA
ATOM     28  N   UNL     1       7.653   5.227  15.140  0.00  0.00    +0.000 NA
ATOM     29  C   UNL     1       6.883   4.620  16.055  0.00  0.00    +0.000 A 
ENDBRANCH  23  29
ENDBRANCH  21  23
ENDBRANCH   1  21
TORSDOF 5
ENDMDL
MODEL 5
REMARK VINA RESULT:      -9.2      1.757      2.732
REMARK  Name = 
REMARK  7 active torsions:
REMARK  status: ('A' for Active; 'I' for Inactive)
REMARK    1  A    between atoms: C_1  and  C_2
REMARK    2  A    between atoms: C_6  and  C_7
REMARK    3  A    between atoms: C_7  and  C_8
REMARK    4  A    between atoms: C_8  and  C_9
REMARK    5  A    between atoms: C_8  and  C_10
REMARK    6  A    between atoms: C_14  and  N_15
REMARK    7  A    between atoms: C_22  and  C_23
REMARK                            x       y       z     vdW  Elec       q    Type
REMARK                         _______ _______ _______ _____ _____    ______ ____
ROOT
ATOM      1  C   UNL     1       4.293   5.265  17.475  0.00  0.00    +0.000 A 
ATOM      2  C   UNL     1       4.282   4.242  18.421  0.00  0.00    +0.000 A 
ATOM      3  C   UNL     1       3.637   4.423  19.650  0.00  0.00    +0.000 A 
ATOM      4  C   UNL     1       2.940   5.606  19.933  0.00  0.00    +0.000 A 
ATOM      5  C   UNL     1       2.884   6.626  18.987  0.00  0.00    +0.000 A 
ATOM      6  C   UNL     1       3.591   6.437  17.780  0.00  0.00    +0.000 A 
ENDROOT
BRANCH   5   7
ATOM      7  N   UNL     1       2.120   7.807  19.154  0.00  0.00    +0.000 N 
ATOM      8  C   UNL     1       1.450   8.040  20.417  0.00  0.00    +0.000 C 
ATOM      9  C   UNL     1       0.874   9.395  20.280  0.00  0.00    +0.000 A 
ATOM     10  C   UNL     1       1.151   9.896  19.009  0.00  0.00    +0.000 A 
ATOM     11  C   UNL     1       0.713  11.146  18.626  0.00  0.00    +0.000 A 
ATOM     12  C   UNL     1      -0.013  11.899  19.555  0.00  0.00    +0.000 A 
ATOM     13  C   UNL     1      -0.280  11.397  20.846  0.00  0.00    +0.000 A 
ATOM     14  C   UNL     1       0.168  10.125  21.234  0.00  0.00    +0.000 A 
ATOM     15  C   UNL     1       1.963   8.887  18.283  0.00  0.00    +0.000 C 
ATOM     16  O   UNL     1       2.381   9.064  17.153  0.00  0.00    +0.000 OA
BRANCH  14  17
ATOM     17  C   UNL     1      -0.089   9.590  22.622  0.00  0.00    +0.000 C 
ATOM     18  F   UNL     1       1.047   9.251  23.298  0.00  0.00    +0.000 F 
ATOM     19  F   UNL     1      -0.728  10.490  23.416  0.00  0.00    +0.000 F 
ATOM     20  F   UNL     1      -0.859   8.470  22.618  0.00  0.00    +0.000 F 
ENDBRANCH  14  17
ENDBRANCH   5   7
BRANCH   1  21
ATOM     21  C   UNL     1       4.979   5.182  16.119  0.00  0.00    +0.000 C 
ATOM     22  C   UNL     1       4.972   3.726  15.637  0.00  0.00    +0.000 C 
BRANCH  21  23
ATOM     23  C   UNL     1       6.396   5.785  16.046  0.00  0.00    +0.000 C 
BRANCH  23  29
ATOM     24  C   UNL     1       7.616   8.310  17.786  0.00  0.00    +0.000 C 
ATOM     25  C   UNL     1       7.651   6.865  18.097  0.00  0.00    +0.000 A 
ATOM     26  C   UNL     1       8.229   6.260  19.188  0.00  0.00    +0.000 A 
ATOM     27  O   UNL     1       8.034   4.923  19.133  0.00  0.00    +0.000 OA
ATOM     28  N   UNL     1       7.320   4.610  17.994  0.00  0.00    +0.000 NA
ATOM     29  C   UNL     1       7.117   5.773  17.358  0.00  0.00    +0.000 A 
ENDBRANCH  23  29
ENDBRANCH  21  23
ENDBRANCH   1  21
TORSDOF 5
ENDMDL
MODEL 6
REMARK VINA RESULT:      -9.2      2.938      3.933
REMARK  Name = 
REMARK  7 active torsions:
REMARK  status: ('A' for Active; 'I' for Inactive)
REMARK    1  A    between atoms: C_1  and  C_2
REMARK    2  A    between atoms: C_6  and  C_7
REMARK    3  A    between atoms: C_7  and  C_8
REMARK    4  A    between atoms: C_8  and  C_9
REMARK    5  A    between atoms: C_8  and  C_10
REMARK    6  A    between atoms: C_14  and  N_15
REMARK    7  A    between atoms: C_22  and  C_23
REMARK                            x       y       z     vdW  Elec       q    Type
REMARK                         _______ _______ _______ _____ _____    ______ ____
ROOT
ATOM      1  C   UNL     1       4.592   4.761  16.569  0.00  0.00    +0.000 A 
ATOM      2  C   UNL     1       4.034   3.486  16.534  0.00  0.00    +0.000 A 
ATOM      3  C   UNL     1       3.015   3.136  17.427  0.00  0.00    +0.000 A 
ATOM      4  C   UNL     1       2.494   4.071  18.331  0.00  0.00    +0.000 A 
ATOM      5  C   UNL     1       2.990   5.372  18.353  0.00  0.00    +0.000 A 
ATOM      6  C   UNL     1       4.056   5.679  17.480  0.00  0.00    +0.000 A 
ENDROOT
BRANCH   5   7
ATOM      7  N   UNL     1       2.451   6.403  19.162  0.00  0.00    +0.000 N 
ATOM      8  C   UNL     1       2.200   7.702  18.573  0.00  0.00    +0.000 C 
ATOM      9  C   UNL     1       1.532   8.467  19.647  0.00  0.00    +0.000 A 
ATOM     10  C   UNL     1       1.442   7.682  20.795  0.00  0.00    +0.000 A 
ATOM     11  C   UNL     1       0.864   8.171  21.948  0.00  0.00    +0.000 A 
ATOM     12  C   UNL     1       0.364   9.477  21.927  0.00  0.00    +0.000 A 
ATOM     13  C   UNL     1       0.442  10.265  20.760  0.00  0.00    +0.000 A 
ATOM     14  C   UNL     1       1.030   9.766  19.588  0.00  0.00    +0.000 A 
ATOM     15  C   UNL     1       2.019   6.349  20.488  0.00  0.00    +0.000 C 
ATOM     16  O   UNL     1       2.049   5.439  21.298  0.00  0.00    +0.000 OA
BRANCH  14  17
ATOM     17  C   UNL     1       1.094  10.591  18.326  0.00  0.00    +0.000 C 
ATOM     18  F   UNL     1       0.637  11.867  18.481  0.00  0.00    +0.000 F 
ATOM     19  F   UNL     1       2.361  10.715  17.850  0.00  0.00    +0.000 F 
ATOM     20  F   UNL     1       0.356  10.061  17.315  0.00  0.00    +0.000 F 
ENDBRANCH  14  17
ENDBRANCH   5   7
BRANCH   1  21
ATOM     21  C   UNL     1       5.715   5.240  15.659  0.00  0.00    +0.000 C 
ATOM     22  C   UNL     1       5.416   4.808  14.217  0.00  0.00    +0.000 C 
BRANCH  21  23
ATOM     23  C   UNL     1       7.140   4.829  16.078  0.00  0.00    +0.000 C 
BRANCH  23  29
ATOM     24  C   UNL     1       7.402   7.891  17.282  0.00  0.00    +0.000 C 
ATOM     25  C   UNL     1       7.630   6.601  17.967  0.00  0.00    +0.000 A 
ATOM     26  C   UNL     1       8.026   6.407  19.270  0.00  0.00    +0.000 A 
ATOM     27  O   UNL     1       8.104   5.084  19.538  0.00  0.00    +0.000 OA
ATOM     28  N   UNL     1       7.762   4.366  18.409  0.00  0.00    +0.000 NA
ATOM     29  C   UNL     1       7.507   5.277  17.459  0.00  0.00    +0.000 A 
ENDBRANCH  23  29
ENDBRANCH  21  23
ENDBRANCH   1  21
TORSDOF 5
ENDMDL
MODEL 7
REMARK VINA RESULT:      -9.1      2.880      3.959
REMARK  Name = 
REMARK  7 active torsions:
REMARK  status: ('A' for Active; 'I' for Inactive)
REMARK    1  A    between atoms: C_1  and  C_2
REMARK    2  A    between atoms: C_6  and  C_7
REMARK    3  A    between atoms: C_7  and  C_8
REMARK    4  A    between atoms: C_8  and  C_9
REMARK    5  A    between atoms: C_8  and  C_10
REMARK    6  A    between atoms: C_14  and  N_15
REMARK    7  A    between atoms: C_22  and  C_23
REMARK                            x       y       z     vdW  Elec       q    Type
REMARK                         _______ _______ _______ _____ _____    ______ ____
ROOT
ATOM      1  C   UNL     1       4.438   4.398  16.750  0.00  0.00    +0.000 A 
ATOM      2  C   UNL     1       3.685   3.237  16.595  0.00  0.00    +0.000 A 
ATOM      3  C   UNL     1       2.532   3.035  17.361  0.00  0.00    +0.000 A 
ATOM      4  C   UNL     1       2.077   4.014  18.254  0.00  0.00    +0.000 A 
ATOM      5  C   UNL     1       2.776   5.211  18.392  0.00  0.00    +0.000 A 
ATOM      6  C   UNL     1       3.965   5.363  17.647  0.00  0.00    +0.000 A 
ENDROOT
BRANCH   5   7
ATOM      7  N   UNL     1       2.329   6.291  19.194  0.00  0.00    +0.000 N 
ATOM      8  C   UNL     1       2.099   7.579  18.574  0.00  0.00    +0.000 C 
ATOM      9  C   UNL     1       1.528   8.409  19.657  0.00  0.00    +0.000 A 
ATOM     10  C   UNL     1       1.473   7.666  20.836  0.00  0.00    +0.000 A 
ATOM     11  C   UNL     1       0.985   8.218  22.002  0.00  0.00    +0.000 A 
ATOM     12  C   UNL     1       0.540   9.544  21.963  0.00  0.00    +0.000 A 
ATOM     13  C   UNL     1       0.583  10.289  20.766  0.00  0.00    +0.000 A 
ATOM     14  C   UNL     1       1.079   9.725  19.581  0.00  0.00    +0.000 A 
ATOM     15  C   UNL     1       1.973   6.300  20.544  0.00  0.00    +0.000 C 
ATOM     16  O   UNL     1       2.013   5.417  21.381  0.00  0.00    +0.000 OA
BRANCH  14  17
ATOM     17  C   UNL     1       1.103  10.505  18.289  0.00  0.00    +0.000 C 
ATOM     18  F   UNL     1       0.801  11.827  18.440  0.00  0.00    +0.000 F 
ATOM     19  F   UNL     1       2.323  10.479  17.689  0.00  0.00    +0.000 F 
ATOM     20  F   UNL     1       0.217  10.031  17.373  0.00  0.00    +0.000 F 
ENDBRANCH  14  17
ENDBRANCH   5   7
BRANCH   1  21
ATOM     21  C   UNL     1       5.716   4.710  15.983  0.00  0.00    +0.000 C 
ATOM     22  C   UNL     1       5.791   3.814  14.739  0.00  0.00    +0.000 C 
BRANCH  21  23
ATOM     23  C   UNL     1       7.022   4.639  16.799  0.00  0.00    +0.000 C 
BRANCH  23  29
ATOM     24  C   UNL     1       7.881   5.535  19.857  0.00  0.00    +0.000 C 
ATOM     25  C   UNL     1       7.838   6.354  18.627  0.00  0.00    +0.000 A 
ATOM     26  C   UNL     1       8.133   7.691  18.505  0.00  0.00    +0.000 A 
ATOM     27  O   UNL     1       8.000   8.079  17.216  0.00  0.00    +0.000 OA
ATOM     28  N   UNL     1       7.607   6.999  16.450  0.00  0.00    +0.000 NA
ATOM     29  C   UNL     1       7.481   5.972  17.304  0.00  0.00    +0.000 A 
ENDBRANCH  23  29
ENDBRANCH  21  23
ENDBRANCH   1  21
TORSDOF 5
ENDMDL
MODEL 8
REMARK VINA RESULT:      -9.1      3.671      8.281
REMARK  Name = 
REMARK  7 active torsions:
REMARK  status: ('A' for Active; 'I' for Inactive)
REMARK    1  A    between atoms: C_1  and  C_2
REMARK    2  A    between atoms: C_6  and  C_7
REMARK    3  A    between atoms: C_7  and  C_8
REMARK    4  A    between atoms: C_8  and  C_9
REMARK    5  A    between atoms: C_8  and  C_10
REMARK    6  A    between atoms: C_14  and  N_15
REMARK    7  A    between atoms: C_22  and  C_23
REMARK                            x       y       z     vdW  Elec       q    Type
REMARK                         _______ _______ _______ _____ _____    ______ ____
ROOT
ATOM      1  C   UNL     1      -0.225  10.777  20.013  0.00  0.00    +0.000 A 
ATOM      2  C   UNL     1      -0.198  11.041  21.380  0.00  0.00    +0.000 A 
ATOM      3  C   UNL     1       0.410  10.140  22.262  0.00  0.00    +0.000 A 
ATOM      4  C   UNL     1       1.053   8.988  21.788  0.00  0.00    +0.000 A 
ATOM      5  C   UNL     1       1.093   8.724  20.422  0.00  0.00    +0.000 A 
ATOM      6  C   UNL     1       0.424   9.621  19.562  0.00  0.00    +0.000 A 
ENDROOT
BRANCH   5   7
ATOM      7  N   UNL     1       1.807   7.639  19.854  0.00  0.00    +0.000 N 
ATOM      8  C   UNL     1       1.684   6.326  20.451  0.00  0.00    +0.000 C 
ATOM      9  C   UNL     1       2.441   5.439  19.542  0.00  0.00    +0.000 A 
ATOM     10  C   UNL     1       3.003   6.193  18.513  0.00  0.00    +0.000 A 
ATOM     11  C   UNL     1       3.770   5.598  17.532  0.00  0.00    +0.000 A 
ATOM     12  C   UNL     1       3.959   4.214  17.599  0.00  0.00    +0.000 A 
ATOM     13  C   UNL     1       3.377   3.450  18.633  0.00  0.00    +0.000 A 
ATOM     14  C   UNL     1       2.598   4.057  19.629  0.00  0.00    +0.000 A 
ATOM     15  C   UNL     1       2.590   7.606  18.698  0.00  0.00    +0.000 C 
ATOM     16  O   UNL     1       2.907   8.494  17.928  0.00  0.00    +0.000 OA
BRANCH  14  17
ATOM     17  C   UNL     1       1.949   3.245  20.723  0.00  0.00    +0.000 C 
ATOM     18  F   UNL     1       2.001   1.898  20.512  0.00  0.00    +0.000 F 
ATOM     19  F   UNL     1       2.532   3.445  21.935  0.00  0.00    +0.000 F 
ATOM     20  F   UNL     1       0.630   3.538  20.881  0.00  0.00    +0.000 F 
ENDBRANCH  14  17
ENDBRANCH   5   7
BRANCH   1  21
ATOM     21  C   UNL     1      -0.874  11.678  18.970  0.00  0.00    +0.000 C 
ATOM     22  C   UNL     1      -0.488  13.136  19.251  0.00  0.00    +0.000 C 
BRANCH  21  23
ATOM     23  C   UNL     1      -2.400  11.527  18.810  0.00  0.00    +0.000 C 
BRANCH  23  29
ATOM     24  C   UNL     1      -5.211  12.077  17.171  0.00  0.00    +0.000 C 
ATOM     25  C   UNL     1      -4.031  11.291  16.753  0.00  0.00    +0.000 A 
ATOM     26  C   UNL     1      -3.867  10.594  15.579  0.00  0.00    +0.000 A 
ATOM     27  O   UNL     1      -2.643  10.019  15.550  0.00  0.00    +0.000 OA
ATOM     28  N   UNL     1      -1.966  10.322  16.715  0.00  0.00    +0.000 NA
ATOM     29  C   UNL     1      -2.811  11.060  17.448  0.00  0.00    +0.000 A 
ENDBRANCH  23  29
ENDBRANCH  21  23
ENDBRANCH   1  21
TORSDOF 5
ENDMDL
MODEL 9
REMARK VINA RESULT:      -8.8      1.401      2.043
REMARK  Name = 
REMARK  7 active torsions:
REMARK  status: ('A' for Active; 'I' for Inactive)
REMARK    1  A    between atoms: C_1  and  C_2
REMARK    2  A    between atoms: C_6  and  C_7
REMARK    3  A    between atoms: C_7  and  C_8
REMARK    4  A    between atoms: C_8  and  C_9
REMARK    5  A    between atoms: C_8  and  C_10
REMARK    6  A    between atoms: C_14  and  N_15
REMARK    7  A    between atoms: C_22  and  C_23
REMARK                            x       y       z     vdW  Elec       q    Type
REMARK                         _______ _______ _______ _____ _____    ______ ____
ROOT
ATOM      1  C   UNL     1       5.275   4.908  19.052  0.00  0.00    +0.000 A 
ATOM      2  C   UNL     1       4.668   3.676  19.284  0.00  0.00    +0.000 A 
ATOM      3  C   UNL     1       3.319   3.611  19.650  0.00  0.00    +0.000 A 
ATOM      4  C   UNL     1       2.535   4.770  19.733  0.00  0.00    +0.000 A 
ATOM      5  C   UNL     1       3.097   6.013  19.451  0.00  0.00    +0.000 A 
ATOM      6  C   UNL     1       4.473   6.053  19.140  0.00  0.00    +0.000 A 
ENDROOT
BRANCH   5   7
ATOM      7  N   UNL     1       2.353   7.218  19.412  0.00  0.00    +0.000 N 
ATOM      8  C   UNL     1       1.621   7.632  20.591  0.00  0.00    +0.000 C 
ATOM      9  C   UNL     1       1.085   8.965  20.239  0.00  0.00    +0.000 A 
ATOM     10  C   UNL     1       1.443   9.282  18.929  0.00  0.00    +0.000 A 
ATOM     11  C   UNL     1       1.056  10.475  18.355  0.00  0.00    +0.000 A 
ATOM     12  C   UNL     1       0.299  11.360  19.131  0.00  0.00    +0.000 A 
ATOM     13  C   UNL     1      -0.049  11.044  20.461  0.00  0.00    +0.000 A 
ATOM     14  C   UNL     1       0.346   9.830  21.044  0.00  0.00    +0.000 A 
ATOM     15  C   UNL     1       2.269   8.171  18.395  0.00  0.00    +0.000 C 
ATOM     16  O   UNL     1       2.752   8.184  17.277  0.00  0.00    +0.000 OA
BRANCH  14  17
ATOM     17  C   UNL     1       0.002   9.494  22.474  0.00  0.00    +0.000 C 
ATOM     18  F   UNL     1       1.086   9.183  23.241  0.00  0.00    +0.000 F 
ATOM     19  F   UNL     1      -0.613  10.523  23.116  0.00  0.00    +0.000 F 
ATOM     20  F   UNL     1      -0.834   8.427  22.575  0.00  0.00    +0.000 F 
ENDBRANCH  14  17
ENDBRANCH   5   7
BRANCH   1  21
ATOM     21  C   UNL     1       6.736   5.095  18.669  0.00  0.00    +0.000 C 
ATOM     22  C   UNL     1       7.498   5.696  19.857  0.00  0.00    +0.000 C 
BRANCH  21  23
ATOM     23  C   UNL     1       6.994   5.899  17.379  0.00  0.00    +0.000 C 
BRANCH  23  29
ATOM     24  C   UNL     1       4.768   6.880  15.149  0.00  0.00    +0.000 C 
ATOM     25  C   UNL     1       5.551   5.627  15.189  0.00  0.00    +0.000 A 
ATOM     26  C   UNL     1       5.498   4.581  14.299  0.00  0.00    +0.000 A 
ATOM     27  O   UNL     1       6.381   3.622  14.658  0.00  0.00    +0.000 OA
ATOM     28  N   UNL     1       7.042   4.013  15.806  0.00  0.00    +0.000 NA
ATOM     29  C   UNL     1       6.522   5.203  16.140  0.00  0.00    +0.000 A 
ENDBRANCH  23  29
ENDBRANCH  21  23
ENDBRANCH   1  21
TORSDOF 5
ENDMDL
