MODEL 1
REMARK VINA RESULT:     -10.3      0.000      0.000
REMARK  Name = 
REMARK  8 active torsions:
REMARK  status: ('A' for Active; 'I' for Inactive)
REMARK    1  A    between atoms: C_1  and  N_2
REMARK    2  A    between atoms: C_6  and  C_7
REMARK    3  A    between atoms: C_7  and  C_8
REMARK    4  A    between atoms: C_8  and  C_9
REMARK    5  A    between atoms: C_13  and  N_14
REMARK    6  A    between atoms: C_19  and  C_20
REMARK    7  A    between atoms: C_20  and  N_21
REMARK    8  A    between atoms: C_32  and  C_33
REMARK                            x       y       z     vdW  Elec       q    Type
REMARK                         _______ _______ _______ _____ _____    ______ ____
ROOT
ATOM      1  N   UNL     1       2.329   7.390  19.436  0.00  0.00    +0.000 N 
ATOM      2  C   UNL     1       1.573   7.719  20.631  0.00  0.00    +0.000 C 
ATOM      3  C   UNL     1       1.028   9.071  20.362  0.00  0.00    +0.000 A 
ATOM      4  C   UNL     1       1.379   9.467  19.075  0.00  0.00    +0.000 A 
ATOM      5  C   UNL     1       0.957  10.686  18.561  0.00  0.00    +0.000 A 
ATOM      6  C   UNL     1       0.156  11.510  19.375  0.00  0.00    +0.000 A 
ATOM      7  C   UNL     1      -0.155  11.107  20.697  0.00  0.00    +0.000 A 
ATOM      8  C   UNL     1       0.285   9.879  21.220  0.00  0.00    +0.000 A 
ATOM      9  C   UNL     1       2.226   8.403  18.476  0.00  0.00    +0.000 C 
ATOM     10  O   UNL     1       2.711   8.488  17.362  0.00  0.00    +0.000 OA
ENDROOT
BRANCH   1  15
ATOM     11  C   UNL     1       5.337   5.218  18.849  0.00  0.00    +0.000 A 
ATOM     12  C   UNL     1       4.793   3.964  19.164  0.00  0.00    +0.000 A 
ATOM     13  C   UNL     1       3.471   3.831  19.612  0.00  0.00    +0.000 A 
ATOM     14  C   UNL     1       2.633   4.947  19.739  0.00  0.00    +0.000 A 
ATOM     15  C   UNL     1       3.115   6.209  19.419  0.00  0.00    +0.000 A 
ATOM     16  C   UNL     1       4.460   6.306  19.012  0.00  0.00    +0.000 A 
BRANCH  11  17
ATOM     17  C   UNL     1       6.846   5.474  18.331  0.00  0.00    +0.000 C 
ATOM     18  C   UNL     1       7.888   5.810  19.430  0.00  0.00    +0.000 C 
ATOM     19  O   UNL     1       8.219   7.075  18.826  0.00  0.00    +0.000 OA
ATOM     20  C   UNL     1       7.202   6.902  17.817  0.00  0.00    +0.000 C 
BRANCH  17  21
ATOM     21  C   UNL     1       7.317   4.348  17.376  0.00  0.00    +0.000 C 
BRANCH  21  27
ATOM     22  C   UNL     1       4.782   3.249  15.855  0.00  0.00    +0.000 C 
ATOM     23  N   UNL     1       5.834   4.062  15.308  0.00  0.00    +0.000 N 
ATOM     24  C   UNL     1       5.912   4.468  14.014  0.00  0.00    +0.000 A 
ATOM     25  N   UNL     1       7.011   5.163  13.832  0.00  0.00    +0.000 NA
ATOM     26  N   UNL     1       7.676   5.192  15.033  0.00  0.00    +0.000 NA
ATOM     27  C   UNL     1       6.952   4.552  15.934  0.00  0.00    +0.000 A 
ENDBRANCH  21  27
ENDBRANCH  17  21
ENDBRANCH  11  17
ENDBRANCH   1  15
BRANCH   8  28
ATOM     28  C   UNL     1      -0.028   9.469  22.636  0.00  0.00    +0.000 C 
ATOM     29  F   UNL     1       1.065   9.120  23.368  0.00  0.00    +0.000 F 
ATOM     30  F   UNL     1      -0.644  10.458  23.337  0.00  0.00    +0.000 F 
ATOM     31  F   UNL     1      -0.858   8.392  22.690  0.00  0.00    +0.000 F 
ENDBRANCH   8  28
BRANCH   6  32
ATOM     32  C   UNL     1      -0.396  12.822  18.846  0.00  0.00    +0.000 C 
BRANCH  32  33
ATOM     33  N   UNL     1      -1.840  12.840  18.652  0.00  0.00    +0.000 NA
ATOM     34  C   UNL     1      -2.570  13.007  19.937  0.00  0.00    +0.000 C 
ATOM     35  C   UNL     1      -3.894  12.349  19.698  0.00  0.00    +0.000 A 
ATOM     36  C   UNL     1      -5.055  12.381  20.452  0.00  0.00    +0.000 A 
ATOM     37  C   UNL     1      -6.191  11.742  19.943  0.00  0.00    +0.000 A 
ATOM     38  C   UNL     1      -6.148  11.096  18.695  0.00  0.00    +0.000 A 
ATOM     39  C   UNL     1      -4.951  11.027  17.984  0.00  0.00    +0.000 A 
ATOM     40  F   UNL     1      -4.908  10.399  16.803  0.00  0.00    +0.000 F 
ATOM     41  C   UNL     1      -3.826  11.629  18.504  0.00  0.00    +0.000 A 
ATOM     42  C   UNL     1      -2.415  11.636  18.014  0.00  0.00    +0.000 C 
ENDBRANCH  32  33
ENDBRANCH   6  32
TORSDOF 7
ENDMDL
MODEL 2
REMARK VINA RESULT:     -10.2      1.429      2.354
REMARK  Name = 
REMARK  8 active torsions:
REMARK  status: ('A' for Active; 'I' for Inactive)
REMARK    1  A    between atoms: C_1  and  N_2
REMARK    2  A    between atoms: C_6  and  C_7
REMARK    3  A    between atoms: C_7  and  C_8
REMARK    4  A    between atoms: C_8  and  C_9
REMARK    5  A    between atoms: C_13  and  N_14
REMARK    6  A    between atoms: C_19  and  C_20
REMARK    7  A    between atoms: C_20  and  N_21
REMARK    8  A    between atoms: C_32  and  C_33
REMARK                            x       y       z     vdW  Elec       q    Type
REMARK                         _______ _______ _______ _____ _____    ______ ____
ROOT
ATOM      1  N   UNL     1       2.305   7.208  19.226  0.00  0.00    +0.000 N 
ATOM      2  C   UNL     1       1.630   7.561  20.460  0.00  0.00    +0.000 C 
ATOM      3  C   UNL     1       1.161   8.950  20.239  0.00  0.00    +0.000 A 
ATOM      4  C   UNL     1       1.475   9.347  18.944  0.00  0.00    +0.000 A 
ATOM      5  C   UNL     1       1.109  10.600  18.471  0.00  0.00    +0.000 A 
ATOM      6  C   UNL     1       0.402  11.458  19.336  0.00  0.00    +0.000 A 
ATOM      7  C   UNL     1       0.127  11.050  20.664  0.00  0.00    +0.000 A 
ATOM      8  C   UNL     1       0.512   9.787  21.145  0.00  0.00    +0.000 A 
ATOM      9  C   UNL     1       2.223   8.243  18.288  0.00  0.00    +0.000 C 
ATOM     10  O   UNL     1       2.660   8.319  17.154  0.00  0.00    +0.000 OA
ENDROOT
BRANCH   1  15
ATOM     11  C   UNL     1       4.653   4.619  17.847  0.00  0.00    +0.000 A 
ATOM     12  C   UNL     1       4.398   3.565  18.736  0.00  0.00    +0.000 A 
ATOM     13  C   UNL     1       3.505   3.711  19.807  0.00  0.00    +0.000 A 
ATOM     14  C   UNL     1       2.812   4.912  20.016  0.00  0.00    +0.000 A 
ATOM     15  C   UNL     1       3.012   5.980  19.152  0.00  0.00    +0.000 A 
ATOM     16  C   UNL     1       3.948   5.807  18.112  0.00  0.00    +0.000 A 
BRANCH  11  17
ATOM     17  C   UNL     1       5.666   4.550  16.590  0.00  0.00    +0.000 C 
ATOM     18  C   UNL     1       5.318   5.472  15.391  0.00  0.00    +0.000 C 
ATOM     19  O   UNL     1       5.227   4.365  14.476  0.00  0.00    +0.000 OA
ATOM     20  C   UNL     1       5.443   3.416  15.543  0.00  0.00    +0.000 C 
BRANCH  17  21
ATOM     21  C   UNL     1       7.142   4.679  17.042  0.00  0.00    +0.000 C 
BRANCH  21  27
ATOM     22  C   UNL     1       8.015   5.659  19.910  0.00  0.00    +0.000 C 
ATOM     23  N   UNL     1       7.938   6.449  18.712  0.00  0.00    +0.000 N 
ATOM     24  C   UNL     1       8.209   7.779  18.637  0.00  0.00    +0.000 A 
ATOM     25  N   UNL     1       8.006   8.205  17.411  0.00  0.00    +0.000 NA
ATOM     26  N   UNL     1       7.572   7.131  16.676  0.00  0.00    +0.000 NA
ATOM     27  C   UNL     1       7.557   6.062  17.452  0.00  0.00    +0.000 A 
ENDBRANCH  21  27
ENDBRANCH  17  21
ENDBRANCH  11  17
ENDBRANCH   1  15
BRANCH   8  28
ATOM     28  C   UNL     1       0.240   9.370  22.568  0.00  0.00    +0.000 C 
ATOM     29  F   UNL     1      -0.593   8.300  22.683  0.00  0.00    +0.000 F 
ATOM     30  F   UNL     1       1.375   9.031  23.233  0.00  0.00    +0.000 F 
ATOM     31  F   UNL     1      -0.344  10.362  23.294  0.00  0.00    +0.000 F 
ENDBRANCH   8  28
BRANCH   6  32
ATOM     32  C   UNL     1      -0.088  12.812  18.855  0.00  0.00    +0.000 C 
BRANCH  32  33
ATOM     33  N   UNL     1      -1.537  12.939  18.770  0.00  0.00    +0.000 NA
ATOM     34  C   UNL     1      -2.154  13.154  20.107  0.00  0.00    +0.000 C 
ATOM     35  C   UNL     1      -3.538  12.597  19.969  0.00  0.00    +0.000 A 
ATOM     36  C   UNL     1      -4.634  12.713  20.809  0.00  0.00    +0.000 A 
ATOM     37  C   UNL     1      -5.849  12.163  20.387  0.00  0.00    +0.000 A 
ATOM     38  C   UNL     1      -5.948  11.522  19.140  0.00  0.00    +0.000 A 
ATOM     39  C   UNL     1      -4.817  11.367  18.341  0.00  0.00    +0.000 A 
ATOM     40  F   UNL     1      -4.911  10.744  17.160  0.00  0.00    +0.000 F 
ATOM     41  C   UNL     1      -3.614  11.880  18.774  0.00  0.00    +0.000 A 
ATOM     42  C   UNL     1      -2.248  11.784  18.179  0.00  0.00    +0.000 C 
ENDBRANCH  32  33
ENDBRANCH   6  32
TORSDOF 7
ENDMDL
MODEL 3
REMARK VINA RESULT:     -10.0      2.205      3.977
REMARK  Name = 
REMARK  8 active torsions:
REMARK  status: ('A' for Active; 'I' for Inactive)
REMARK    1  A    between atoms: C_1  and  N_2
REMARK    2  A    between atoms: C_6  and  C_7
REMARK    3  A    between atoms: C_7  and  C_8
REMARK    4  A    between atoms: C_8  and  C_9
REMARK    5  A    between atoms: C_13  and  N_14
REMARK    6  A    between atoms: C_19  and  C_20
REMARK    7  A    between atoms: C_20  and  N_21
REMARK    8  A    between atoms: C_32  and  C_33
REMARK                            x       y       z     vdW  Elec       q    Type
REMARK                         _______ _______ _______ _____ _____    ______ ____
ROOT
ATOM      1  N   UNL     1       2.304   7.380  19.369  0.00  0.00    +0.000 N 
ATOM      2  C   UNL     1       1.559   7.747  20.559  0.00  0.00    +0.000 C 
ATOM      3  C   UNL     1       0.951   9.057  20.222  0.00  0.00    +0.000 A 
ATOM      4  C   UNL     1       1.259   9.390  18.907  0.00  0.00    +0.000 A 
ATOM      5  C   UNL     1       0.776  10.557  18.332  0.00  0.00    +0.000 A 
ATOM      6  C   UNL     1      -0.045  11.394  19.114  0.00  0.00    +0.000 A 
ATOM      7  C   UNL     1      -0.312  11.058  20.464  0.00  0.00    +0.000 A 
ATOM      8  C   UNL     1       0.191   9.883  21.048  0.00  0.00    +0.000 A 
ATOM      9  C   UNL     1       2.139   8.328  18.354  0.00  0.00    +0.000 C 
ATOM     10  O   UNL     1       2.599   8.367  17.226  0.00  0.00    +0.000 OA
ENDROOT
BRANCH   1  15
ATOM     11  C   UNL     1       5.389   5.303  18.840  0.00  0.00    +0.000 A 
ATOM     12  C   UNL     1       4.907   4.049  19.244  0.00  0.00    +0.000 A 
ATOM     13  C   UNL     1       3.603   3.889  19.733  0.00  0.00    +0.000 A 
ATOM     14  C   UNL     1       2.720   4.975  19.812  0.00  0.00    +0.000 A 
ATOM     15  C   UNL     1       3.140   6.234  19.405  0.00  0.00    +0.000 A 
ATOM     16  C   UNL     1       4.471   6.361  18.959  0.00  0.00    +0.000 A 
BRANCH  11  17
ATOM     17  C   UNL     1       6.875   5.588  18.271  0.00  0.00    +0.000 C 
ATOM     18  C   UNL     1       7.935   5.997  19.327  0.00  0.00    +0.000 C 
ATOM     19  O   UNL     1       8.207   7.249  18.671  0.00  0.00    +0.000 OA
ATOM     20  C   UNL     1       7.168   7.009  17.698  0.00  0.00    +0.000 C 
BRANCH  17  21
ATOM     21  C   UNL     1       7.356   4.446  17.342  0.00  0.00    +0.000 C 
BRANCH  21  27
ATOM     22  C   UNL     1       4.692   3.486  15.953  0.00  0.00    +0.000 C 
ATOM     23  N   UNL     1       5.792   4.174  15.333  0.00  0.00    +0.000 N 
ATOM     24  C   UNL     1       5.865   4.498  14.015  0.00  0.00    +0.000 A 
ATOM     25  N   UNL     1       7.013   5.085  13.766  0.00  0.00    +0.000 NA
ATOM     26  N   UNL     1       7.714   5.123  14.945  0.00  0.00    +0.000 NA
ATOM     27  C   UNL     1       6.966   4.600  15.901  0.00  0.00    +0.000 A 
ENDBRANCH  21  27
ENDBRANCH  17  21
ENDBRANCH  11  17
ENDBRANCH   1  15
BRANCH   8  28
ATOM     28  C   UNL     1      -0.077   9.546  22.492  0.00  0.00    +0.000 C 
ATOM     29  F   UNL     1       1.045   9.295  23.221  0.00  0.00    +0.000 F 
ATOM     30  F   UNL     1      -0.729  10.544  23.144  0.00  0.00    +0.000 F 
ATOM     31  F   UNL     1      -0.851   8.434  22.628  0.00  0.00    +0.000 F 
ENDBRANCH   8  28
BRANCH   6  32
ATOM     32  C   UNL     1      -0.662  12.648  18.520  0.00  0.00    +0.000 C 
BRANCH  32  33
ATOM     33  N   UNL     1       0.208  13.817  18.532  0.00  0.00    +0.000 NA
ATOM     34  C   UNL     1       1.597  13.478  18.122  0.00  0.00    +0.000 C 
ATOM     35  C   UNL     1       2.446  14.505  18.806  0.00  0.00    +0.000 A 
ATOM     36  C   UNL     1       3.782  14.823  18.626  0.00  0.00    +0.000 A 
ATOM     37  C   UNL     1       4.307  15.903  19.344  0.00  0.00    +0.000 A 
ATOM     38  C   UNL     1       3.491  16.646  20.214  0.00  0.00    +0.000 A 
ATOM     39  C   UNL     1       2.165  16.268  20.423  0.00  0.00    +0.000 A 
ATOM     40  F   UNL     1       1.393  16.969  21.262  0.00  0.00    +0.000 F 
ATOM     41  C   UNL     1       1.660  15.184  19.739  0.00  0.00    +0.000 A 
ATOM     42  C   UNL     1       0.330  14.512  19.832  0.00  0.00    +0.000 C 
ENDBRANCH  32  33
ENDBRANCH   6  32
TORSDOF 7
ENDMDL
MODEL 4
REMARK VINA RESULT:      -9.8      3.184     10.888
REMARK  Name = 
REMARK  8 active torsions:
REMARK  status: ('A' for Active; 'I' for Inactive)
REMARK    1  A    between atoms: C_1  and  N_2
REMARK    2  A    between atoms: C_6  and  C_7
REMARK    3  A    between atoms: C_7  and  C_8
REMARK    4  A    between atoms: C_8  and  C_9
REMARK    5  A    between atoms: C_13  and  N_14
REMARK    6  A    between atoms: C_19  and  C_20
REMARK    7  A    between atoms: C_20  and  N_21
REMARK    8  A    between atoms: C_32  and  C_33
REMARK                            x       y       z     vdW  Elec       q    Type
REMARK                         _______ _______ _______ _____ _____    ______ ____
ROOT
ATOM      1  N   UNL     1       1.204   9.207  18.954  0.00  0.00    +0.000 N 
ATOM      2  C   UNL     1       1.165   8.037  19.812  0.00  0.00    +0.000 C 
ATOM      3  C   UNL     1       2.257   7.172  19.305  0.00  0.00    +0.000 A 
ATOM      4  C   UNL     1       2.929   7.825  18.276  0.00  0.00    +0.000 A 
ATOM      5  C   UNL     1       4.024   7.241  17.653  0.00  0.00    +0.000 A 
ATOM      6  C   UNL     1       4.443   5.971  18.096  0.00  0.00    +0.000 A 
ATOM      7  C   UNL     1       3.720   5.306  19.116  0.00  0.00    +0.000 A 
ATOM      8  C   UNL     1       2.603   5.893  19.735  0.00  0.00    +0.000 A 
ATOM      9  C   UNL     1       2.254   9.126  18.032  0.00  0.00    +0.000 C 
ATOM     10  O   UNL     1       2.603   9.903  17.162  0.00  0.00    +0.000 OA
ENDROOT
BRANCH   1  15
ATOM     11  C   UNL     1      -2.015  10.986  18.192  0.00  0.00    +0.000 A 
ATOM     12  C   UNL     1      -1.881  12.097  19.037  0.00  0.00    +0.000 A 
ATOM     13  C   UNL     1      -0.775  12.242  19.887  0.00  0.00    +0.000 A 
ATOM     14  C   UNL     1       0.255  11.292  19.905  0.00  0.00    +0.000 A 
ATOM     15  C   UNL     1       0.182  10.184  19.071  0.00  0.00    +0.000 A 
ATOM     16  C   UNL     1      -0.965  10.054  18.263  0.00  0.00    +0.000 A 
BRANCH  11  17
ATOM     17  C   UNL     1      -3.252  10.728  17.184  0.00  0.00    +0.000 C 
ATOM     18  C   UNL     1      -3.062   9.573  16.166  0.00  0.00    +0.000 C 
ATOM     19  O   UNL     1      -3.242  10.447  15.036  0.00  0.00    +0.000 OA
ATOM     20  C   UNL     1      -3.330  11.603  15.896  0.00  0.00    +0.000 C 
BRANCH  17  21
ATOM     21  C   UNL     1      -4.598  10.646  17.947  0.00  0.00    +0.000 C 
BRANCH  21  27
ATOM     22  C   UNL     1      -5.175  12.492  20.439  0.00  0.00    +0.000 C 
ATOM     23  N   UNL     1      -5.606  12.707  19.084  0.00  0.00    +0.000 N 
ATOM     24  C   UNL     1      -6.371  13.750  18.667  0.00  0.00    +0.000 A 
ATOM     25  N   UNL     1      -6.619  13.632  17.382  0.00  0.00    +0.000 NA
ATOM     26  N   UNL     1      -6.020  12.472  16.959  0.00  0.00    +0.000 NA
ATOM     27  C   UNL     1      -5.382  11.926  17.979  0.00  0.00    +0.000 A 
ENDBRANCH  21  27
ENDBRANCH  17  21
ENDBRANCH  11  17
ENDBRANCH   1  15
BRANCH   8  28
ATOM     28  C   UNL     1       1.823   5.167  20.801  0.00  0.00    +0.000 C 
ATOM     29  F   UNL     1       2.584   4.371  21.602  0.00  0.00    +0.000 F 
ATOM     30  F   UNL     1       1.172   6.021  21.636  0.00  0.00    +0.000 F 
ATOM     31  F   UNL     1       0.871   4.348  20.278  0.00  0.00    +0.000 F 
ENDBRANCH   8  28
BRANCH   6  32
ATOM     32  C   UNL     1       5.675   5.311  17.503  0.00  0.00    +0.000 C 
BRANCH  32  33
ATOM     33  N   UNL     1       5.768   5.392  16.051  0.00  0.00    +0.000 NA
ATOM     34  C   UNL     1       5.086   4.249  15.387  0.00  0.00    +0.000 C 
ATOM     35  C   UNL     1       5.807   4.094  14.084  0.00  0.00    +0.000 A 
ATOM     36  C   UNL     1       5.480   3.344  12.966  0.00  0.00    +0.000 A 
ATOM     37  C   UNL     1       6.295   3.455  11.834  0.00  0.00    +0.000 A 
ATOM     38  C   UNL     1       7.408   4.313  11.838  0.00  0.00    +0.000 A 
ATOM     39  C   UNL     1       7.750   5.011  12.995  0.00  0.00    +0.000 A 
ATOM     40  F   UNL     1       8.818   5.818  13.000  0.00  0.00    +0.000 F 
ATOM     41  C   UNL     1       6.964   4.875  14.118  0.00  0.00    +0.000 A 
ATOM     42  C   UNL     1       7.139   5.420  15.497  0.00  0.00    +0.000 C 
ENDBRANCH  32  33
ENDBRANCH   6  32
TORSDOF 7
ENDMDL
MODEL 5
REMARK VINA RESULT:      -9.8      2.230      3.184
REMARK  Name = 
REMARK  8 active torsions:
REMARK  status: ('A' for Active; 'I' for Inactive)
REMARK    1  A    between atoms: C_1  and  N_2
REMARK    2  A    between atoms: C_6  and  C_7
REMARK    3  A    between atoms: C_7  and  C_8
REMARK    4  A    between atoms: C_8  and  C_9
REMARK    5  A    between atoms: C_13  and  N_14
REMARK    6  A    between atoms: C_19  and  C_20
REMARK    7  A    between atoms: C_20  and  N_21
REMARK    8  A    between atoms: C_32  and  C_33
REMARK                            x       y       z     vdW  Elec       q    Type
REMARK                         _______ _______ _______ _____ _____    ______ ____
ROOT
ATOM      1  N   UNL     1       2.297   7.401  19.425  0.00  0.00    +0.000 N 
ATOM      2  C   UNL     1       1.557   7.754  20.623  0.00  0.00    +0.000 C 
ATOM      3  C   UNL     1       0.954   9.071  20.307  0.00  0.00    +0.000 A 
ATOM      4  C   UNL     1       1.259   9.422  18.997  0.00  0.00    +0.000 A 
ATOM      5  C   UNL     1       0.779  10.600  18.441  0.00  0.00    +0.000 A 
ATOM      6  C   UNL     1      -0.035  11.429  19.237  0.00  0.00    +0.000 A 
ATOM      7  C   UNL     1      -0.300  11.074  20.583  0.00  0.00    +0.000 A 
ATOM      8  C   UNL     1       0.199   9.888  21.147  0.00  0.00    +0.000 A 
ATOM      9  C   UNL     1       2.133   8.365  18.425  0.00  0.00    +0.000 C 
ATOM     10  O   UNL     1       2.590   8.419  17.296  0.00  0.00    +0.000 OA
ENDROOT
BRANCH   1  15
ATOM     11  C   UNL     1       5.366   5.315  18.843  0.00  0.00    +0.000 A 
ATOM     12  C   UNL     1       4.883   4.060  19.241  0.00  0.00    +0.000 A 
ATOM     13  C   UNL     1       3.583   3.902  19.742  0.00  0.00    +0.000 A 
ATOM     14  C   UNL     1       2.706   4.990  19.841  0.00  0.00    +0.000 A 
ATOM     15  C   UNL     1       3.128   6.251  19.441  0.00  0.00    +0.000 A 
ATOM     16  C   UNL     1       4.454   6.376  18.981  0.00  0.00    +0.000 A 
BRANCH  11  17
ATOM     17  C   UNL     1       6.847   5.599  18.260  0.00  0.00    +0.000 C 
ATOM     18  C   UNL     1       7.915   6.016  19.305  0.00  0.00    +0.000 C 
ATOM     19  O   UNL     1       8.180   7.265  18.639  0.00  0.00    +0.000 OA
ATOM     20  C   UNL     1       7.134   7.017  17.676  0.00  0.00    +0.000 C 
BRANCH  17  21
ATOM     21  C   UNL     1       7.322   4.452  17.334  0.00  0.00    +0.000 C 
BRANCH  21  27
ATOM     22  C   UNL     1       4.671   3.503  15.912  0.00  0.00    +0.000 C 
ATOM     23  N   UNL     1       5.780   4.192  15.307  0.00  0.00    +0.000 N 
ATOM     24  C   UNL     1       5.867   4.522  13.991  0.00  0.00    +0.000 A 
ATOM     25  N   UNL     1       7.019   5.107  13.757  0.00  0.00    +0.000 NA
ATOM     26  N   UNL     1       7.707   5.139  14.944  0.00  0.00    +0.000 NA
ATOM     27  C   UNL     1       6.948   4.613  15.889  0.00  0.00    +0.000 A 
ENDBRANCH  21  27
ENDBRANCH  17  21
ENDBRANCH  11  17
ENDBRANCH   1  15
BRANCH   8  28
ATOM     28  C   UNL     1      -0.066   9.530  22.587  0.00  0.00    +0.000 C 
ATOM     29  F   UNL     1      -0.686  10.511  23.299  0.00  0.00    +0.000 F 
ATOM     30  F   UNL     1      -0.853   8.428  22.710  0.00  0.00    +0.000 F 
ATOM     31  F   UNL     1       1.079   9.257  23.271  0.00  0.00    +0.000 F 
ENDBRANCH   8  28
BRANCH   6  32
ATOM     32  C   UNL     1      -0.648  12.695  18.665  0.00  0.00    +0.000 C 
BRANCH  32  33
ATOM     33  N   UNL     1      -0.431  13.891  19.467  0.00  0.00    +0.000 NA
ATOM     34  C   UNL     1      -1.639  14.258  20.254  0.00  0.00    +0.000 C 
ATOM     35  C   UNL     1      -1.525  15.740  20.439  0.00  0.00    +0.000 A 
ATOM     36  C   UNL     1      -2.236  16.593  21.267  0.00  0.00    +0.000 A 
ATOM     37  C   UNL     1      -1.856  17.939  21.310  0.00  0.00    +0.000 A 
ATOM     38  C   UNL     1      -0.775  18.401  20.539  0.00  0.00    +0.000 A 
ATOM     39  C   UNL     1      -0.115  17.534  19.670  0.00  0.00    +0.000 A 
ATOM     40  F   UNL     1       0.906  17.979  18.926  0.00  0.00    +0.000 F 
ATOM     41  C   UNL     1      -0.513  16.217  19.605  0.00  0.00    +0.000 A 
ATOM     42  C   UNL     1      -0.055  15.108  18.715  0.00  0.00    +0.000 C 
ENDBRANCH  32  33
ENDBRANCH   6  32
TORSDOF 7
ENDMDL
MODEL 6
REMARK VINA RESULT:      -9.7      3.331     10.437
REMARK  Name = 
REMARK  8 active torsions:
REMARK  status: ('A' for Active; 'I' for Inactive)
REMARK    1  A    between atoms: C_1  and  N_2
REMARK    2  A    between atoms: C_6  and  C_7
REMARK    3  A    between atoms: C_7  and  C_8
REMARK    4  A    between atoms: C_8  and  C_9
REMARK    5  A    between atoms: C_13  and  N_14
REMARK    6  A    between atoms: C_19  and  C_20
REMARK    7  A    between atoms: C_20  and  N_21
REMARK    8  A    between atoms: C_32  and  C_33
REMARK                            x       y       z     vdW  Elec       q    Type
REMARK                         _______ _______ _______ _____ _____    ______ ____
ROOT
ATOM      1  N   UNL     1       1.050   9.132  18.899  0.00  0.00    +0.000 N 
ATOM      2  C   UNL     1       1.051   7.958  19.751  0.00  0.00    +0.000 C 
ATOM      3  C   UNL     1       2.191   7.148  19.260  0.00  0.00    +0.000 A 
ATOM      4  C   UNL     1       2.850   7.836  18.246  0.00  0.00    +0.000 A 
ATOM      5  C   UNL     1       3.981   7.307  17.640  0.00  0.00    +0.000 A 
ATOM      6  C   UNL     1       4.452   6.056  18.084  0.00  0.00    +0.000 A 
ATOM      7  C   UNL     1       3.743   5.353  19.089  0.00  0.00    +0.000 A 
ATOM      8  C   UNL     1       2.590   5.884  19.691  0.00  0.00    +0.000 A 
ATOM      9  C   UNL     1       2.118   9.105  17.995  0.00  0.00    +0.000 C 
ATOM     10  O   UNL     1       2.446   9.902  17.134  0.00  0.00    +0.000 OA
ENDROOT
BRANCH   1  15
ATOM     11  C   UNL     1      -1.271  11.603  20.517  0.00  0.00    +0.000 A 
ATOM     12  C   UNL     1      -2.171  11.814  19.461  0.00  0.00    +0.000 A 
ATOM     13  C   UNL     1      -1.995  11.196  18.216  0.00  0.00    +0.000 A 
ATOM     14  C   UNL     1      -0.926  10.321  17.984  0.00  0.00    +0.000 A 
ATOM     15  C   UNL     1      -0.018  10.060  19.002  0.00  0.00    +0.000 A 
ATOM     16  C   UNL     1      -0.206  10.733  20.226  0.00  0.00    +0.000 A 
BRANCH  11  17
ATOM     17  C   UNL     1      -1.384  12.273  21.983  0.00  0.00    +0.000 C 
ATOM     18  C   UNL     1      -1.485  11.281  23.172  0.00  0.00    +0.000 C 
ATOM     19  O   UNL     1      -2.750  11.818  23.603  0.00  0.00    +0.000 OA
ATOM     20  C   UNL     1      -2.800  12.711  22.470  0.00  0.00    +0.000 C 
BRANCH  17  21
ATOM     21  C   UNL     1      -0.304  13.363  22.195  0.00  0.00    +0.000 C 
BRANCH  21  27
ATOM     22  C   UNL     1       2.284  13.528  20.398  0.00  0.00    +0.000 C 
ATOM     23  N   UNL     1       1.074  14.291  20.247  0.00  0.00    +0.000 N 
ATOM     24  C   UNL     1       0.867  15.243  19.299  0.00  0.00    +0.000 A 
ATOM     25  N   UNL     1      -0.323  15.775  19.458  0.00  0.00    +0.000 NA
ATOM     26  N   UNL     1      -0.896  15.170  20.548  0.00  0.00    +0.000 NA
ATOM     27  C   UNL     1      -0.065  14.252  21.010  0.00  0.00    +0.000 A 
ENDBRANCH  21  27
ENDBRANCH  17  21
ENDBRANCH  11  17
ENDBRANCH   1  15
BRANCH   8  28
ATOM     28  C   UNL     1       1.826   5.118  20.740  0.00  0.00    +0.000 C 
ATOM     29  F   UNL     1       2.571   4.192  21.405  0.00  0.00    +0.000 F 
ATOM     30  F   UNL     1       1.304   5.931  21.697  0.00  0.00    +0.000 F 
ATOM     31  F   UNL     1       0.777   4.427  20.216  0.00  0.00    +0.000 F 
ENDBRANCH   8  28
BRANCH   6  32
ATOM     32  C   UNL     1       5.724   5.457  17.510  0.00  0.00    +0.000 C 
BRANCH  32  33
ATOM     33  N   UNL     1       5.812   5.498  16.056  0.00  0.00    +0.000 NA
ATOM     34  C   UNL     1       5.098   4.355  15.426  0.00  0.00    +0.000 C 
ATOM     35  C   UNL     1       5.809   4.148  14.124  0.00  0.00    +0.000 A 
ATOM     36  C   UNL     1       5.458   3.377  13.028  0.00  0.00    +0.000 A 
ATOM     37  C   UNL     1       6.270   3.438  11.890  0.00  0.00    +0.000 A 
ATOM     38  C   UNL     1       7.404   4.269  11.866  0.00  0.00    +0.000 A 
ATOM     39  C   UNL     1       7.769   4.989  13.003  0.00  0.00    +0.000 A 
ATOM     40  F   UNL     1       8.856   5.769  12.982  0.00  0.00    +0.000 F 
ATOM     41  C   UNL     1       6.985   4.901  14.133  0.00  0.00    +0.000 A 
ATOM     42  C   UNL     1       7.180   5.478  15.496  0.00  0.00    +0.000 C 
ENDBRANCH  32  33
ENDBRANCH   6  32
TORSDOF 7
ENDMDL
MODEL 7
REMARK VINA RESULT:      -9.7      2.438      3.686
REMARK  Name = 
REMARK  8 active torsions:
REMARK  status: ('A' for Active; 'I' for Inactive)
REMARK    1  A    between atoms: C_1  and  N_2
REMARK    2  A    between atoms: C_6  and  C_7
REMARK    3  A    between atoms: C_7  and  C_8
REMARK    4  A    between atoms: C_8  and  C_9
REMARK    5  A    between atoms: C_13  and  N_14
REMARK    6  A    between atoms: C_19  and  C_20
REMARK    7  A    between atoms: C_20  and  N_21
REMARK    8  A    between atoms: C_32  and  C_33
REMARK                            x       y       z     vdW  Elec       q    Type
REMARK                         _______ _______ _______ _____ _____    ______ ____
ROOT
ATOM      1  N   UNL     1       2.290   7.439  19.448  0.00  0.00    +0.000 N 
ATOM      2  C   UNL     1       1.533   7.759  20.644  0.00  0.00    +0.000 C 
ATOM      3  C   UNL     1       0.955   9.096  20.366  0.00  0.00    +0.000 A 
ATOM      4  C   UNL     1       1.291   9.490  19.075  0.00  0.00    +0.000 A 
ATOM      5  C   UNL     1       0.838  10.695  18.555  0.00  0.00    +0.000 A 
ATOM      6  C   UNL     1       0.022  11.507  19.366  0.00  0.00    +0.000 A 
ATOM      7  C   UNL     1      -0.274  11.106  20.692  0.00  0.00    +0.000 A 
ATOM      8  C   UNL     1       0.197   9.893  21.222  0.00  0.00    +0.000 A 
ATOM      9  C   UNL     1       2.160   8.441  18.481  0.00  0.00    +0.000 C 
ATOM     10  O   UNL     1       2.638   8.530  17.364  0.00  0.00    +0.000 OA
ENDROOT
BRANCH   1  15
ATOM     11  C   UNL     1       5.327   5.320  18.812  0.00  0.00    +0.000 A 
ATOM     12  C   UNL     1       4.825   4.064  19.184  0.00  0.00    +0.000 A 
ATOM     13  C   UNL     1       3.524   3.914  19.685  0.00  0.00    +0.000 A 
ATOM     14  C   UNL     1       2.664   5.014  19.810  0.00  0.00    +0.000 A 
ATOM     15  C   UNL     1       3.104   6.276  19.436  0.00  0.00    +0.000 A 
ATOM     16  C   UNL     1       4.431   6.392  18.976  0.00  0.00    +0.000 A 
BRANCH  11  17
ATOM     17  C   UNL     1       6.810   5.595  18.232  0.00  0.00    +0.000 C 
ATOM     18  C   UNL     1       7.874   6.024  19.276  0.00  0.00    +0.000 C 
ATOM     19  O   UNL     1       8.143   7.264  18.595  0.00  0.00    +0.000 OA
ATOM     20  C   UNL     1       7.101   7.004  17.630  0.00  0.00    +0.000 C 
BRANCH  17  21
ATOM     21  C   UNL     1       7.288   4.435  17.323  0.00  0.00    +0.000 C 
BRANCH  21  27
ATOM     22  C   UNL     1       4.674   3.468  15.845  0.00  0.00    +0.000 C 
ATOM     23  N   UNL     1       5.792   4.161  15.263  0.00  0.00    +0.000 N 
ATOM     24  C   UNL     1       5.906   4.489  13.949  0.00  0.00    +0.000 A 
ATOM     25  N   UNL     1       7.059   5.081  13.739  0.00  0.00    +0.000 NA
ATOM     26  N   UNL     1       7.721   5.120  14.941  0.00  0.00    +0.000 NA
ATOM     27  C   UNL     1       6.944   4.590  15.870  0.00  0.00    +0.000 A 
ENDBRANCH  21  27
ENDBRANCH  17  21
ENDBRANCH  11  17
ENDBRANCH   1  15
BRANCH   8  28
ATOM     28  C   UNL     1      -0.101   9.486  22.642  0.00  0.00    +0.000 C 
ATOM     29  F   UNL     1      -0.768  10.429  23.362  0.00  0.00    +0.000 F 
ATOM     30  F   UNL     1      -0.860   8.361  22.710  0.00  0.00    +0.000 F 
ATOM     31  F   UNL     1       1.030   9.224  23.353  0.00  0.00    +0.000 F 
ENDBRANCH   8  28
BRANCH   6  32
ATOM     32  C   UNL     1      -0.562  12.802  18.830  0.00  0.00    +0.000 C 
BRANCH  32  33
ATOM     33  N   UNL     1       0.327  13.952  18.921  0.00  0.00    +0.000 NA
ATOM     34  C   UNL     1       0.721  14.237  20.327  0.00  0.00    +0.000 C 
ATOM     35  C   UNL     1       1.007  15.708  20.340  0.00  0.00    +0.000 A 
ATOM     36  C   UNL     1       1.617  16.490  21.307  0.00  0.00    +0.000 A 
ATOM     37  C   UNL     1       1.843  17.840  21.018  0.00  0.00    +0.000 A 
ATOM     38  C   UNL     1       1.466  18.377  19.775  0.00  0.00    +0.000 A 
ATOM     39  C   UNL     1       0.799  17.583  18.843  0.00  0.00    +0.000 A 
ATOM     40  F   UNL     1       0.429  18.100  17.665  0.00  0.00    +0.000 F 
ATOM     41  C   UNL     1       0.549  16.262  19.143  0.00  0.00    +0.000 A 
ATOM     42  C   UNL     1      -0.211  15.222  18.388  0.00  0.00    +0.000 C 
ENDBRANCH  32  33
ENDBRANCH   6  32
TORSDOF 7
ENDMDL
MODEL 8
REMARK VINA RESULT:      -9.6      3.130     10.277
REMARK  Name = 
REMARK  8 active torsions:
REMARK  status: ('A' for Active; 'I' for Inactive)
REMARK    1  A    between atoms: C_1  and  N_2
REMARK    2  A    between atoms: C_6  and  C_7
REMARK    3  A    between atoms: C_7  and  C_8
REMARK    4  A    between atoms: C_8  and  C_9
REMARK    5  A    between atoms: C_13  and  N_14
REMARK    6  A    between atoms: C_19  and  C_20
REMARK    7  A    between atoms: C_20  and  N_21
REMARK    8  A    between atoms: C_32  and  C_33
REMARK                            x       y       z     vdW  Elec       q    Type
REMARK                         _______ _______ _______ _____ _____    ______ ____
ROOT
ATOM      1  N   UNL     1       1.679   7.944  19.990  0.00  0.00    +0.000 N 
ATOM      2  C   UNL     1       1.644   6.656  20.658  0.00  0.00    +0.000 C 
ATOM      3  C   UNL     1       2.613   5.825  19.905  0.00  0.00    +0.000 A 
ATOM      4  C   UNL     1       3.222   6.595  18.919  0.00  0.00    +0.000 A 
ATOM      5  C   UNL     1       4.202   6.060  18.096  0.00  0.00    +0.000 A 
ATOM      6  C   UNL     1       4.572   4.714  18.288  0.00  0.00    +0.000 A 
ATOM      7  C   UNL     1       3.911   3.935  19.269  0.00  0.00    +0.000 A 
ATOM      8  C   UNL     1       2.909   4.476  20.092  0.00  0.00    +0.000 A 
ATOM      9  C   UNL     1       2.620   7.953  18.955  0.00  0.00    +0.000 C 
ATOM     10  O   UNL     1       2.934   8.839  18.180  0.00  0.00    +0.000 OA
ENDROOT
BRANCH   1  15
ATOM     11  C   UNL     1      -0.890  10.651  19.562  0.00  0.00    +0.000 A 
ATOM     12  C   UNL     1      -1.034  11.059  20.896  0.00  0.00    +0.000 A 
ATOM     13  C   UNL     1      -0.337  10.425  21.934  0.00  0.00    +0.000 A 
ATOM     14  C   UNL     1       0.552   9.373  21.675  0.00  0.00    +0.000 A 
ATOM     15  C   UNL     1       0.747   8.944  20.369  0.00  0.00    +0.000 A 
ATOM     16  C   UNL     1      -0.003   9.579  19.359  0.00  0.00    +0.000 A 
BRANCH  11  17
ATOM     17  C   UNL     1      -1.653  11.313  18.300  0.00  0.00    +0.000 C 
ATOM     18  C   UNL     1      -3.136  11.701  18.536  0.00  0.00    +0.000 C 
ATOM     19  O   UNL     1      -3.601  10.851  17.471  0.00  0.00    +0.000 OA
ATOM     20  C   UNL     1      -2.267  10.348  17.240  0.00  0.00    +0.000 C 
BRANCH  17  21
ATOM     21  C   UNL     1      -0.821  12.458  17.671  0.00  0.00    +0.000 C 
BRANCH  21  27
ATOM     22  C   UNL     1       2.232  12.476  18.462  0.00  0.00    +0.000 C 
ATOM     23  N   UNL     1       1.200  13.337  18.974  0.00  0.00    +0.000 N 
ATOM     24  C   UNL     1       1.384  14.295  19.920  0.00  0.00    +0.000 A 
ATOM     25  N   UNL     1       0.237  14.875  20.191  0.00  0.00    +0.000 NA
ATOM     26  N   UNL     1      -0.719  14.265  19.418  0.00  0.00    +0.000 NA
ATOM     27  C   UNL     1      -0.135  13.354  18.660  0.00  0.00    +0.000 A 
ENDBRANCH  21  27
ENDBRANCH  17  21
ENDBRANCH  11  17
ENDBRANCH   1  15
BRANCH   8  28
ATOM     28  C   UNL     1       2.192   3.633  21.116  0.00  0.00    +0.000 C 
ATOM     29  F   UNL     1       0.841   3.596  20.957  0.00  0.00    +0.000 F 
ATOM     30  F   UNL     1       2.604   2.338  21.100  0.00  0.00    +0.000 F 
ATOM     31  F   UNL     1       2.394   4.080  22.386  0.00  0.00    +0.000 F 
ENDBRANCH   8  28
BRANCH   6  32
ATOM     32  C   UNL     1       5.687   4.091  17.467  0.00  0.00    +0.000 C 
BRANCH  32  33
ATOM     33  N   UNL     1       5.756   4.554  16.087  0.00  0.00    +0.000 NA
ATOM     34  C   UNL     1       5.157   3.572  15.143  0.00  0.00    +0.000 C 
ATOM     35  C   UNL     1       5.872   3.819  13.850  0.00  0.00    +0.000 A 
ATOM     36  C   UNL     1       5.591   3.361  12.574  0.00  0.00    +0.000 A 
ATOM     37  C   UNL     1       6.381   3.826  11.517  0.00  0.00    +0.000 A 
ATOM     38  C   UNL     1       7.423   4.739  11.753  0.00  0.00    +0.000 A 
ATOM     39  C   UNL     1       7.724   5.137  13.054  0.00  0.00    +0.000 A 
ATOM     40  F   UNL     1       8.726   5.996  13.278  0.00  0.00    +0.000 F 
ATOM     41  C   UNL     1       6.965   4.652  14.096  0.00  0.00    +0.000 A 
ATOM     42  C   UNL     1       7.114   4.832  15.572  0.00  0.00    +0.000 C 
ENDBRANCH  32  33
ENDBRANCH   6  32
TORSDOF 7
ENDMDL
MODEL 9
REMARK VINA RESULT:      -9.6      3.494     11.082
REMARK  Name = 
REMARK  8 active torsions:
REMARK  status: ('A' for Active; 'I' for Inactive)
REMARK    1  A    between atoms: C_1  and  N_2
REMARK    2  A    between atoms: C_6  and  C_7
REMARK    3  A    between atoms: C_7  and  C_8
REMARK    4  A    between atoms: C_8  and  C_9
REMARK    5  A    between atoms: C_13  and  N_14
REMARK    6  A    between atoms: C_19  and  C_20
REMARK    7  A    between atoms: C_20  and  N_21
REMARK    8  A    between atoms: C_32  and  C_33
REMARK                            x       y       z     vdW  Elec       q    Type
REMARK                         _______ _______ _______ _____ _____    ______ ____
ROOT
ATOM      1  N   UNL     1       0.807   9.286  18.723  0.00  0.00    +0.000 N 
ATOM      2  C   UNL     1       0.832   8.125  19.592  0.00  0.00    +0.000 C 
ATOM      3  C   UNL     1       2.027   7.363  19.154  0.00  0.00    +0.000 A 
ATOM      4  C   UNL     1       2.689   8.069  18.155  0.00  0.00    +0.000 A 
ATOM      5  C   UNL     1       3.866   7.587  17.599  0.00  0.00    +0.000 A 
ATOM      6  C   UNL     1       4.378   6.365  18.078  0.00  0.00    +0.000 A 
ATOM      7  C   UNL     1       3.667   5.642  19.067  0.00  0.00    +0.000 A 
ATOM      8  C   UNL     1       2.468   6.126  19.619  0.00  0.00    +0.000 A 
ATOM      9  C   UNL     1       1.908   9.298  17.859  0.00  0.00    +0.000 C 
ATOM     10  O   UNL     1       2.229  10.098  16.999  0.00  0.00    +0.000 OA
ENDROOT
BRANCH   1  15
ATOM     11  C   UNL     1      -1.623  11.746  20.189  0.00  0.00    +0.000 A 
ATOM     12  C   UNL     1      -2.543  11.834  19.134  0.00  0.00    +0.000 A 
ATOM     13  C   UNL     1      -2.348  11.136  17.934  0.00  0.00    +0.000 A 
ATOM     14  C   UNL     1      -1.236  10.302  17.752  0.00  0.00    +0.000 A 
ATOM     15  C   UNL     1      -0.307  10.163  18.774  0.00  0.00    +0.000 A 
ATOM     16  C   UNL     1      -0.517  10.913  19.948  0.00  0.00    +0.000 A 
BRANCH  11  17
ATOM     17  C   UNL     1      -1.757  12.515  21.605  0.00  0.00    +0.000 C 
ATOM     18  C   UNL     1      -0.433  13.058  22.205  0.00  0.00    +0.000 C 
ATOM     19  O   UNL     1      -0.583  12.286  23.412  0.00  0.00    +0.000 OA
ATOM     20  C   UNL     1      -1.771  11.646  22.900  0.00  0.00    +0.000 C 
BRANCH  17  21
ATOM     21  C   UNL     1      -2.886  13.575  21.572  0.00  0.00    +0.000 C 
BRANCH  21  27
ATOM     22  C   UNL     1      -3.634  14.349  24.537  0.00  0.00    +0.000 C 
ATOM     23  N   UNL     1      -4.418  13.563  23.623  0.00  0.00    +0.000 N 
ATOM     24  C   UNL     1      -5.619  12.996  23.915  0.00  0.00    +0.000 A 
ATOM     25  N   UNL     1      -6.051  12.315  22.879  0.00  0.00    +0.000 NA
ATOM     26  N   UNL     1      -5.099  12.423  21.897  0.00  0.00    +0.000 NA
ATOM     27  C   UNL     1      -4.124  13.201  22.333  0.00  0.00    +0.000 A 
ENDBRANCH  21  27
ENDBRANCH  17  21
ENDBRANCH  11  17
ENDBRANCH   1  15
BRANCH   8  28
ATOM     28  C   UNL     1       1.703   5.338  20.651  0.00  0.00    +0.000 C 
ATOM     29  F   UNL     1       1.071   6.107  21.580  0.00  0.00    +0.000 F 
ATOM     30  F   UNL     1       0.738   4.557  20.096  0.00  0.00    +0.000 F 
ATOM     31  F   UNL     1       2.507   4.501  21.362  0.00  0.00    +0.000 F 
ENDBRANCH   8  28
BRANCH   6  32
ATOM     32  C   UNL     1       5.697   5.820  17.560  0.00  0.00    +0.000 C 
BRANCH  32  33
ATOM     33  N   UNL     1       5.798   5.755  16.108  0.00  0.00    +0.000 NA
ATOM     34  C   UNL     1       5.062   4.587  15.554  0.00  0.00    +0.000 C 
ATOM     35  C   UNL     1       5.779   4.270  14.277  0.00  0.00    +0.000 A 
ATOM     36  C   UNL     1       5.418   3.432  13.235  0.00  0.00    +0.000 A 
ATOM     37  C   UNL     1       6.241   3.391  12.104  0.00  0.00    +0.000 A 
ATOM     38  C   UNL     1       7.395   4.191  12.033  0.00  0.00    +0.000 A 
ATOM     39  C   UNL     1       7.768   4.981  13.119  0.00  0.00    +0.000 A 
ATOM     40  F   UNL     1       8.874   5.732  13.053  0.00  0.00    +0.000 F 
ATOM     41  C   UNL     1       6.973   4.993  14.244  0.00  0.00    +0.000 A 
ATOM     42  C   UNL     1       7.171   5.662  15.565  0.00  0.00    +0.000 C 
ENDBRANCH  32  33
ENDBRANCH   6  32
TORSDOF 7
ENDMDL
