MODEL 1
REMARK VINA RESULT:      -8.8      0.000      0.000
REMARK  Name = 
REMARK  8 active torsions:
REMARK  status: ('A' for Active; 'I' for Inactive)
REMARK    1  A    between atoms: C_1  and  C_2
REMARK    2  A    between atoms: C_2  and  C_3
REMARK    3  A    between atoms: C_2  and  C_10
REMARK    4  A    between atoms: C_3  and  C_4
REMARK    5  A    between atoms: N_8  and  C_9
REMARK    6  A    between atoms: C_12  and  N_13
REMARK    7  A    between atoms: N_13  and  C_14
REMARK    8  A    between atoms: C_27  and  C_28
REMARK                            x       y       z     vdW  Elec       q    Type
REMARK                         _______ _______ _______ _____ _____    ______ ____
ROOT
ATOM      1  C   UNL     1       0.003  11.279  18.823  0.00  0.00    +0.000 A 
ATOM      2  C   UNL     1       0.896  12.316  18.531  0.00  0.00    +0.000 A 
ATOM      3  C   UNL     1       2.179  12.037  18.052  0.00  0.00    +0.000 A 
ATOM      4  N   UNL     1       2.634  10.776  17.919  0.00  0.00    +0.000 NA
ATOM      5  C   UNL     1       1.836   9.778  18.369  0.00  0.00    +0.000 A 
ATOM      6  N   UNL     1       2.351   8.478  18.407  0.00  0.00    +0.000 N 
ATOM      7  C   UNL     1       3.286   8.005  17.420  0.00  0.00    +0.000 C 
ATOM      8  C   UNL     1       3.633   6.635  17.924  0.00  0.00    +0.000 A 
ATOM      9  C   UNL     1       2.964   6.395  19.124  0.00  0.00    +0.000 A 
ATOM     10  C   UNL     1       3.105   5.223  19.846  0.00  0.00    +0.000 A 
ATOM     11  C   UNL     1       3.945   4.242  19.316  0.00  0.00    +0.000 A 
ATOM     12  C   UNL     1       4.613   4.459  18.097  0.00  0.00    +0.000 A 
ATOM     13  C   UNL     1       4.471   5.667  17.379  0.00  0.00    +0.000 A 
ATOM     14  C   UNL     1       2.144   7.572  19.444  0.00  0.00    +0.000 C 
ATOM     15  O   UNL     1       1.479   7.671  20.456  0.00  0.00    +0.000 OA
ATOM     16  C   UNL     1       0.520   9.986  18.772  0.00  0.00    +0.000 A 
ENDROOT
BRANCH  13  17
ATOM     17  C   UNL     1       5.214   5.864  16.084  0.00  0.00    +0.000 C 
ATOM     18  F   UNL     1       5.120   4.808  15.233  0.00  0.00    +0.000 F 
ATOM     19  F   UNL     1       4.765   6.946  15.389  0.00  0.00    +0.000 F 
ATOM     20  F   UNL     1       6.546   6.065  16.278  0.00  0.00    +0.000 F 
ENDBRANCH  13  17
BRANCH   1  22
ATOM     21  C   UNL     1      -1.688  11.936  20.644  0.00  0.00    +0.000 C 
ATOM     22  C   UNL     1      -1.456  11.588  19.160  0.00  0.00    +0.000 C 
BRANCH  22  23
ATOM     23  C   UNL     1      -2.358  10.401  18.734  0.00  0.00    +0.000 C 
BRANCH  23  24
ATOM     24  C   UNL     1      -2.770  10.459  17.303  0.00  0.00    +0.000 A 
ATOM     25  N   UNL     1      -2.140   9.913  16.283  0.00  0.00    +0.000 NA
ATOM     26  N   UNL     1      -2.819  10.244  15.133  0.00  0.00    +0.000 NA
ATOM     27  C   UNL     1      -3.854  10.973  15.479  0.00  0.00    +0.000 A 
ATOM     28  N   UNL     1      -3.878  11.112  16.830  0.00  0.00    +0.000 N 
ATOM     29  C   UNL     1      -4.876  11.806  17.598  0.00  0.00    +0.000 C 
ENDBRANCH  23  24
ENDBRANCH  22  23
ENDBRANCH   1  22
BRANCH   3  30
ATOM     30  N   UNL     1       2.955  13.147  17.642  0.00  0.00    +0.000 N 
ATOM     31  H   UNL     1       2.571  13.506  16.770  0.00  0.00    +0.000 HD
BRANCH  30  32
ATOM     32  C   UNL     1       3.421  14.183  18.510  0.00  0.00    +0.000 C 
ATOM     33  C   UNL     1       4.723  14.849  18.009  0.00  0.00    +0.000 C 
ATOM     34  C   UNL     1       4.060  16.221  18.224  0.00  0.00    +0.000 C 
ATOM     35  C   UNL     1       2.694  15.518  18.207  0.00  0.00    +0.000 C 
ENDBRANCH  30  32
ENDBRANCH   3  30
TORSDOF 6
ENDMDL
MODEL 2
REMARK VINA RESULT:      -8.7      1.892      2.916
REMARK  Name = 
REMARK  8 active torsions:
REMARK  status: ('A' for Active; 'I' for Inactive)
REMARK    1  A    between atoms: C_1  and  C_2
REMARK    2  A    between atoms: C_2  and  C_3
REMARK    3  A    between atoms: C_2  and  C_10
REMARK    4  A    between atoms: C_3  and  C_4
REMARK    5  A    between atoms: N_8  and  C_9
REMARK    6  A    between atoms: C_12  and  N_13
REMARK    7  A    between atoms: N_13  and  C_14
REMARK    8  A    between atoms: C_27  and  C_28
REMARK                            x       y       z     vdW  Elec       q    Type
REMARK                         _______ _______ _______ _____ _____    ______ ____
ROOT
ATOM      1  C   UNL     1      -0.245  11.009  18.998  0.00  0.00    +0.000 A 
ATOM      2  C   UNL     1       0.570  12.100  18.674  0.00  0.00    +0.000 A 
ATOM      3  C   UNL     1       1.850  11.899  18.149  0.00  0.00    +0.000 A 
ATOM      4  N   UNL     1       2.377  10.668  18.000  0.00  0.00    +0.000 NA
ATOM      5  C   UNL     1       1.660   9.624  18.480  0.00  0.00    +0.000 A 
ATOM      6  N   UNL     1       2.255   8.358  18.500  0.00  0.00    +0.000 N 
ATOM      7  C   UNL     1       3.182   7.942  17.480  0.00  0.00    +0.000 C 
ATOM      8  C   UNL     1       3.632   6.598  17.971  0.00  0.00    +0.000 A 
ATOM      9  C   UNL     1       3.022   6.320  19.195  0.00  0.00    +0.000 A 
ATOM     10  C   UNL     1       3.262   5.161  19.912  0.00  0.00    +0.000 A 
ATOM     11  C   UNL     1       4.141   4.232  19.353  0.00  0.00    +0.000 A 
ATOM     12  C   UNL     1       4.750   4.487  18.111  0.00  0.00    +0.000 A 
ATOM     13  C   UNL     1       4.508   5.681  17.397  0.00  0.00    +0.000 A 
ATOM     14  C   UNL     1       2.143   7.445  19.544  0.00  0.00    +0.000 C 
ATOM     15  O   UNL     1       1.510   7.505  20.579  0.00  0.00    +0.000 OA
ATOM     16  C   UNL     1       0.349   9.752  18.929  0.00  0.00    +0.000 A 
ENDROOT
BRANCH  13  17
ATOM     17  C   UNL     1       5.189   5.921  16.075  0.00  0.00    +0.000 C 
ATOM     18  F   UNL     1       5.060   4.890  15.199  0.00  0.00    +0.000 F 
ATOM     19  F   UNL     1       4.705   7.020  15.435  0.00  0.00    +0.000 F 
ATOM     20  F   UNL     1       6.528   6.123  16.214  0.00  0.00    +0.000 F 
ENDBRANCH  13  17
BRANCH   1  22
ATOM     21  C   UNL     1      -2.684  11.151  18.198  0.00  0.00    +0.000 C 
ATOM     22  C   UNL     1      -1.707  11.229  19.388  0.00  0.00    +0.000 C 
BRANCH  22  23
ATOM     23  C   UNL     1      -1.858  12.585  20.126  0.00  0.00    +0.000 C 
BRANCH  23  24
ATOM     24  C   UNL     1      -2.682  12.492  21.364  0.00  0.00    +0.000 A 
ATOM     25  N   UNL     1      -3.952  12.823  21.488  0.00  0.00    +0.000 NA
ATOM     26  N   UNL     1      -4.317  12.634  22.800  0.00  0.00    +0.000 NA
ATOM     27  C   UNL     1      -3.268  12.181  23.444  0.00  0.00    +0.000 A 
ATOM     28  N   UNL     1      -2.228  12.051  22.580  0.00  0.00    +0.000 N 
ATOM     29  C   UNL     1      -0.918  11.547  22.890  0.00  0.00    +0.000 C 
ENDBRANCH  23  24
ENDBRANCH  22  23
ENDBRANCH   1  22
BRANCH   3  30
ATOM     30  N   UNL     1       2.540  13.054  17.710  0.00  0.00    +0.000 N 
ATOM     31  H   UNL     1       2.037  13.451  16.919  0.00  0.00    +0.000 HD
BRANCH  30  32
ATOM     32  C   UNL     1       3.093  14.051  18.572  0.00  0.00    +0.000 C 
ATOM     33  C   UNL     1       4.193  14.897  17.889  0.00  0.00    +0.000 C 
ATOM     34  C   UNL     1       3.477  16.164  18.388  0.00  0.00    +0.000 C 
ATOM     35  C   UNL     1       2.205  15.323  18.576  0.00  0.00    +0.000 C 
ENDBRANCH  30  32
ENDBRANCH   3  30
TORSDOF 6
ENDMDL
MODEL 3
REMARK VINA RESULT:      -8.6      1.994      2.896
REMARK  Name = 
REMARK  8 active torsions:
REMARK  status: ('A' for Active; 'I' for Inactive)
REMARK    1  A    between atoms: C_1  and  C_2
REMARK    2  A    between atoms: C_2  and  C_3
REMARK    3  A    between atoms: C_2  and  C_10
REMARK    4  A    between atoms: C_3  and  C_4
REMARK    5  A    between atoms: N_8  and  C_9
REMARK    6  A    between atoms: C_12  and  N_13
REMARK    7  A    between atoms: N_13  and  C_14
REMARK    8  A    between atoms: C_27  and  C_28
REMARK                            x       y       z     vdW  Elec       q    Type
REMARK                         _______ _______ _______ _____ _____    ______ ____
ROOT
ATOM      1  C   UNL     1      -0.194  11.073  18.824  0.00  0.00    +0.000 A 
ATOM      2  C   UNL     1       0.650  12.151  18.533  0.00  0.00    +0.000 A 
ATOM      3  C   UNL     1       1.946  11.932  18.058  0.00  0.00    +0.000 A 
ATOM      4  N   UNL     1       2.461  10.694  17.928  0.00  0.00    +0.000 NA
ATOM      5  C   UNL     1       1.710   9.660  18.379  0.00  0.00    +0.000 A 
ATOM      6  N   UNL     1       2.286   8.386  18.421  0.00  0.00    +0.000 N 
ATOM      7  C   UNL     1       3.245   7.957  17.437  0.00  0.00    +0.000 C 
ATOM      8  C   UNL     1       3.656   6.606  17.945  0.00  0.00    +0.000 A 
ATOM      9  C   UNL     1       2.995   6.336  19.144  0.00  0.00    +0.000 A 
ATOM     10  C   UNL     1       3.191   5.174  19.869  0.00  0.00    +0.000 A 
ATOM     11  C   UNL     1       4.077   4.233  19.344  0.00  0.00    +0.000 A 
ATOM     12  C   UNL     1       4.738   4.479  18.126  0.00  0.00    +0.000 A 
ATOM     13  C   UNL     1       4.540   5.677  17.404  0.00  0.00    +0.000 A 
ATOM     14  C   UNL     1       2.120   7.474  19.459  0.00  0.00    +0.000 C 
ATOM     15  O   UNL     1       1.448   7.543  20.470  0.00  0.00    +0.000 OA
ATOM     16  C   UNL     1       0.385   9.807  18.777  0.00  0.00    +0.000 A 
ENDROOT
BRANCH  13  17
ATOM     17  C   UNL     1       5.276   5.907  16.111  0.00  0.00    +0.000 C 
ATOM     18  F   UNL     1       6.596   6.189  16.276  0.00  0.00    +0.000 F 
ATOM     19  F   UNL     1       5.224   4.826  15.286  0.00  0.00    +0.000 F 
ATOM     20  F   UNL     1       4.761   6.949  15.402  0.00  0.00    +0.000 F 
ENDBRANCH  13  17
BRANCH   1  22
ATOM     21  C   UNL     1      -2.588  11.315  17.922  0.00  0.00    +0.000 C 
ATOM     22  C   UNL     1      -1.666  11.313  19.157  0.00  0.00    +0.000 C 
BRANCH  22  23
ATOM     23  C   UNL     1      -1.818  12.638  19.949  0.00  0.00    +0.000 C 
BRANCH  23  24
ATOM     24  C   UNL     1      -1.900  12.436  21.423  0.00  0.00    +0.000 A 
ATOM     25  N   UNL     1      -0.898  12.172  22.236  0.00  0.00    +0.000 NA
ATOM     26  N   UNL     1      -1.405  12.009  23.504  0.00  0.00    +0.000 NA
ATOM     27  C   UNL     1      -2.703  12.190  23.438  0.00  0.00    +0.000 A 
ATOM     28  N   UNL     1      -3.054  12.485  22.160  0.00  0.00    +0.000 N 
ATOM     29  C   UNL     1      -4.378  12.790  21.688  0.00  0.00    +0.000 C 
ENDBRANCH  23  24
ENDBRANCH  22  23
ENDBRANCH   1  22
BRANCH   3  30
ATOM     30  N   UNL     1       2.669  13.077  17.647  0.00  0.00    +0.000 N 
ATOM     31  H   UNL     1       2.207  13.478  16.833  0.00  0.00    +0.000 HD
BRANCH  30  32
ATOM     32  C   UNL     1       3.196  14.070  18.530  0.00  0.00    +0.000 C 
ATOM     33  C   UNL     1       4.417  14.814  17.942  0.00  0.00    +0.000 C 
ATOM     34  C   UNL     1       3.743  16.145  18.318  0.00  0.00    +0.000 C 
ATOM     35  C   UNL     1       2.403  15.396  18.395  0.00  0.00    +0.000 C 
ENDBRANCH  30  32
ENDBRANCH   3  30
TORSDOF 6
ENDMDL
MODEL 4
REMARK VINA RESULT:      -8.6      0.751      1.437
REMARK  Name = 
REMARK  8 active torsions:
REMARK  status: ('A' for Active; 'I' for Inactive)
REMARK    1  A    between atoms: C_1  and  C_2
REMARK    2  A    between atoms: C_2  and  C_3
REMARK    3  A    between atoms: C_2  and  C_10
REMARK    4  A    between atoms: C_3  and  C_4
REMARK    5  A    between atoms: N_8  and  C_9
REMARK    6  A    between atoms: C_12  and  N_13
REMARK    7  A    between atoms: N_13  and  C_14
REMARK    8  A    between atoms: C_27  and  C_28
REMARK                            x       y       z     vdW  Elec       q    Type
REMARK                         _______ _______ _______ _____ _____    ______ ____
ROOT
ATOM      1  C   UNL     1       0.033  11.445  18.925  0.00  0.00    +0.000 A 
ATOM      2  C   UNL     1       0.944  12.469  18.644  0.00  0.00    +0.000 A 
ATOM      3  C   UNL     1       2.219  12.172  18.153  0.00  0.00    +0.000 A 
ATOM      4  N   UNL     1       2.648  10.905  17.996  0.00  0.00    +0.000 NA
ATOM      5  C   UNL     1       1.834   9.916  18.436  0.00  0.00    +0.000 A 
ATOM      6  N   UNL     1       2.323   8.605  18.450  0.00  0.00    +0.000 N 
ATOM      7  C   UNL     1       3.242   8.131  17.450  0.00  0.00    +0.000 C 
ATOM      8  C   UNL     1       3.566   6.746  17.929  0.00  0.00    +0.000 A 
ATOM      9  C   UNL     1       2.900   6.500  19.130  0.00  0.00    +0.000 A 
ATOM     10  C   UNL     1       3.023   5.315  19.832  0.00  0.00    +0.000 A 
ATOM     11  C   UNL     1       3.840   4.326  19.282  0.00  0.00    +0.000 A 
ATOM     12  C   UNL     1       4.504   4.549  18.062  0.00  0.00    +0.000 A 
ATOM     13  C   UNL     1       4.381   5.770  17.364  0.00  0.00    +0.000 A 
ATOM     14  C   UNL     1       2.105   7.688  19.474  0.00  0.00    +0.000 C 
ATOM     15  O   UNL     1       1.449   7.784  20.492  0.00  0.00    +0.000 OA
ATOM     16  C   UNL     1       0.525  10.144  18.851  0.00  0.00    +0.000 A 
ENDROOT
BRANCH  13  17
ATOM     17  C   UNL     1       5.119   5.974  16.067  0.00  0.00    +0.000 C 
ATOM     18  F   UNL     1       4.662   7.027  15.338  0.00  0.00    +0.000 F 
ATOM     19  F   UNL     1       6.448   6.198  16.257  0.00  0.00    +0.000 F 
ATOM     20  F   UNL     1       5.032   4.891  15.247  0.00  0.00    +0.000 F 
ENDBRANCH  13  17
BRANCH   1  22
ATOM     21  C   UNL     1      -1.681  11.866  20.793  0.00  0.00    +0.000 C 
ATOM     22  C   UNL     1      -1.417  11.777  19.277  0.00  0.00    +0.000 C 
BRANCH  22  23
ATOM     23  C   UNL     1      -2.369  10.744  18.620  0.00  0.00    +0.000 C 
BRANCH  23  24
ATOM     24  C   UNL     1      -3.629  11.350  18.105  0.00  0.00    +0.000 A 
ATOM     25  N   UNL     1      -4.581  11.909  18.824  0.00  0.00    +0.000 NA
ATOM     26  N   UNL     1      -5.590  12.295  17.973  0.00  0.00    +0.000 NA
ATOM     27  C   UNL     1      -5.225  11.975  16.754  0.00  0.00    +0.000 A 
ATOM     28  N   UNL     1      -3.993  11.404  16.786  0.00  0.00    +0.000 N 
ATOM     29  C   UNL     1      -3.232  10.954  15.652  0.00  0.00    +0.000 C 
ENDBRANCH  23  24
ENDBRANCH  22  23
ENDBRANCH   1  22
BRANCH   3  30
ATOM     30  N   UNL     1       3.013  13.273  17.755  0.00  0.00    +0.000 N 
ATOM     31  H   UNL     1       3.157  13.222  16.748  0.00  0.00    +0.000 HD
BRANCH  30  32
ATOM     32  C   UNL     1       2.845  14.614  18.223  0.00  0.00    +0.000 C 
ATOM     33  C   UNL     1       3.800  14.971  19.385  0.00  0.00    +0.000 C 
ATOM     34  C   UNL     1       4.185  16.253  18.627  0.00  0.00    +0.000 C 
ATOM     35  C   UNL     1       3.648  15.605  17.341  0.00  0.00    +0.000 C 
ENDBRANCH  30  32
ENDBRANCH   3  30
TORSDOF 6
ENDMDL
MODEL 5
REMARK VINA RESULT:      -8.4      1.727      2.411
REMARK  Name = 
REMARK  8 active torsions:
REMARK  status: ('A' for Active; 'I' for Inactive)
REMARK    1  A    between atoms: C_1  and  C_2
REMARK    2  A    between atoms: C_2  and  C_3
REMARK    3  A    between atoms: C_2  and  C_10
REMARK    4  A    between atoms: C_3  and  C_4
REMARK    5  A    between atoms: N_8  and  C_9
REMARK    6  A    between atoms: C_12  and  N_13
REMARK    7  A    between atoms: N_13  and  C_14
REMARK    8  A    between atoms: C_27  and  C_28
REMARK                            x       y       z     vdW  Elec       q    Type
REMARK                         _______ _______ _______ _____ _____    ______ ____
ROOT
ATOM      1  C   UNL     1      -0.200  10.592  18.700  0.00  0.00    +0.000 A 
ATOM      2  C   UNL     1       0.594  11.722  18.475  0.00  0.00    +0.000 A 
ATOM      3  C   UNL     1       1.927  11.587  18.078  0.00  0.00    +0.000 A 
ATOM      4  N   UNL     1       2.521  10.383  17.964  0.00  0.00    +0.000 NA
ATOM      5  C   UNL     1       1.808   9.300  18.354  0.00  0.00    +0.000 A 
ATOM      6  N   UNL     1       2.454   8.061  18.414  0.00  0.00    +0.000 N 
ATOM      7  C   UNL     1       3.495   7.705  17.486  0.00  0.00    +0.000 C 
ATOM      8  C   UNL     1       3.954   6.372  18.000  0.00  0.00    +0.000 A 
ATOM      9  C   UNL     1       3.239   6.045  19.153  0.00  0.00    +0.000 A 
ATOM     10  C   UNL     1       3.459   4.884  19.873  0.00  0.00    +0.000 A 
ATOM     11  C   UNL     1       4.430   4.005  19.391  0.00  0.00    +0.000 A 
ATOM     12  C   UNL     1       5.147   4.309  18.219  0.00  0.00    +0.000 A 
ATOM     13  C   UNL     1       4.923   5.506  17.502  0.00  0.00    +0.000 A 
ATOM     14  C   UNL     1       2.280   7.124  19.428  0.00  0.00    +0.000 C 
ATOM     15  O   UNL     1       1.546   7.137  20.397  0.00  0.00    +0.000 OA
ATOM     16  C   UNL     1       0.454   9.362  18.672  0.00  0.00    +0.000 A 
ENDROOT
BRANCH  13  17
ATOM     17  C   UNL     1       5.720   5.800  16.259  0.00  0.00    +0.000 C 
ATOM     18  F   UNL     1       4.957   6.157  15.192  0.00  0.00    +0.000 F 
ATOM     19  F   UNL     1       6.608   6.816  16.442  0.00  0.00    +0.000 F 
ATOM     20  F   UNL     1       6.451   4.728  15.849  0.00  0.00    +0.000 F 
ENDBRANCH  13  17
BRANCH   1  22
ATOM     21  C   UNL     1      -2.575  10.095  17.851  0.00  0.00    +0.000 C 
ATOM     22  C   UNL     1      -1.702  10.740  18.946  0.00  0.00    +0.000 C 
BRANCH  22  23
ATOM     23  C   UNL     1      -2.063  12.239  19.115  0.00  0.00    +0.000 C 
BRANCH  23  24
ATOM     24  C   UNL     1      -2.923  12.506  20.302  0.00  0.00    +0.000 A 
ATOM     25  N   UNL     1      -2.514  12.703  21.539  0.00  0.00    +0.000 NA
ATOM     26  N   UNL     1      -3.622  12.863  22.337  0.00  0.00    +0.000 NA
ATOM     27  C   UNL     1      -4.682  12.772  21.568  0.00  0.00    +0.000 A 
ATOM     28  N   UNL     1      -4.291  12.575  20.282  0.00  0.00    +0.000 N 
ATOM     29  C   UNL     1      -5.153  12.466  19.135  0.00  0.00    +0.000 C 
ENDBRANCH  23  24
ENDBRANCH  22  23
ENDBRANCH   1  22
BRANCH   3  30
ATOM     30  N   UNL     1       2.604  12.779  17.727  0.00  0.00    +0.000 N 
ATOM     31  H   UNL     1       2.154  13.178  16.906  0.00  0.00    +0.000 HD
BRANCH  30  32
ATOM     32  C   UNL     1       3.043  13.773  18.657  0.00  0.00    +0.000 C 
ATOM     33  C   UNL     1       4.250  14.590  18.141  0.00  0.00    +0.000 C 
ATOM     34  C   UNL     1       3.495  15.876  18.520  0.00  0.00    +0.000 C 
ATOM     35  C   UNL     1       2.191  15.061  18.520  0.00  0.00    +0.000 C 
ENDBRANCH  30  32
ENDBRANCH   3  30
TORSDOF 6
ENDMDL
MODEL 6
REMARK VINA RESULT:      -8.4      0.691      1.028
REMARK  Name = 
REMARK  8 active torsions:
REMARK  status: ('A' for Active; 'I' for Inactive)
REMARK    1  A    between atoms: C_1  and  C_2
REMARK    2  A    between atoms: C_2  and  C_3
REMARK    3  A    between atoms: C_2  and  C_10
REMARK    4  A    between atoms: C_3  and  C_4
REMARK    5  A    between atoms: N_8  and  C_9
REMARK    6  A    between atoms: C_12  and  N_13
REMARK    7  A    between atoms: N_13  and  C_14
REMARK    8  A    between atoms: C_27  and  C_28
REMARK                            x       y       z     vdW  Elec       q    Type
REMARK                         _______ _______ _______ _____ _____    ______ ____
ROOT
ATOM      1  C   UNL     1      -0.262  11.471  18.681  0.00  0.00    +0.000 A 
ATOM      2  C   UNL     1       0.632  12.531  18.494  0.00  0.00    +0.000 A 
ATOM      3  C   UNL     1       1.963  12.286  18.145  0.00  0.00    +0.000 A 
ATOM      4  N   UNL     1       2.458  11.036  18.043  0.00  0.00    +0.000 NA
ATOM      5  C   UNL     1       1.641  10.016  18.397  0.00  0.00    +0.000 A 
ATOM      6  N   UNL     1       2.178   8.726  18.471  0.00  0.00    +0.000 N 
ATOM      7  C   UNL     1       3.219   8.288  17.578  0.00  0.00    +0.000 C 
ATOM      8  C   UNL     1       3.544   6.918  18.097  0.00  0.00    +0.000 A 
ATOM      9  C   UNL     1       2.762   6.646  19.220  0.00  0.00    +0.000 A 
ATOM     10  C   UNL     1       2.856   5.467  19.938  0.00  0.00    +0.000 A 
ATOM     11  C   UNL     1       3.767   4.512  19.484  0.00  0.00    +0.000 A 
ATOM     12  C   UNL     1       4.550   4.761  18.342  0.00  0.00    +0.000 A 
ATOM     13  C   UNL     1       4.454   5.976  17.628  0.00  0.00    +0.000 A 
ATOM     14  C   UNL     1       1.888   7.801  19.470  0.00  0.00    +0.000 C 
ATOM     15  O   UNL     1       1.122   7.871  20.410  0.00  0.00    +0.000 OA
ATOM     16  C   UNL     1       0.286  10.190  18.666  0.00  0.00    +0.000 A 
ENDROOT
BRANCH  13  17
ATOM     17  C   UNL     1       5.320   6.208  16.418  0.00  0.00    +0.000 C 
ATOM     18  F   UNL     1       4.645   6.719  15.353  0.00  0.00    +0.000 F 
ATOM     19  F   UNL     1       6.337   7.077  16.667  0.00  0.00    +0.000 F 
ATOM     20  F   UNL     1       5.902   5.062  15.971  0.00  0.00    +0.000 F 
ENDBRANCH  13  17
BRANCH   1  22
ATOM     21  C   UNL     1      -2.122  12.201  20.298  0.00  0.00    +0.000 C 
ATOM     22  C   UNL     1      -1.754  11.744  18.872  0.00  0.00    +0.000 C 
BRANCH  22  23
ATOM     23  C   UNL     1      -2.575  10.489  18.476  0.00  0.00    +0.000 C 
BRANCH  23  24
ATOM     24  C   UNL     1      -2.906  10.438  17.023  0.00  0.00    +0.000 A 
ATOM     25  N   UNL     1      -2.200   9.851  16.078  0.00  0.00    +0.000 NA
ATOM     26  N   UNL     1      -2.823  10.079  14.874  0.00  0.00    +0.000 NA
ATOM     27  C   UNL     1      -3.902  10.788  15.112  0.00  0.00    +0.000 A 
ATOM     28  N   UNL     1      -4.007  11.014  16.448  0.00  0.00    +0.000 N 
ATOM     29  C   UNL     1      -5.072  11.717  17.112  0.00  0.00    +0.000 C 
ENDBRANCH  23  24
ENDBRANCH  22  23
ENDBRANCH   1  22
BRANCH   3  30
ATOM     30  N   UNL     1       2.751  13.418  17.830  0.00  0.00    +0.000 N 
ATOM     31  H   UNL     1       2.319  13.906  17.048  0.00  0.00    +0.000 HD
BRANCH  30  32
ATOM     32  C   UNL     1       3.324  14.308  18.791  0.00  0.00    +0.000 C 
ATOM     33  C   UNL     1       2.444  15.549  19.063  0.00  0.00    +0.000 C 
ATOM     34  C   UNL     1       2.596  15.282  20.571  0.00  0.00    +0.000 C 
ATOM     35  C   UNL     1       2.997  13.837  20.232  0.00  0.00    +0.000 C 
ENDBRANCH  30  32
ENDBRANCH   3  30
TORSDOF 6
ENDMDL
MODEL 7
REMARK VINA RESULT:      -8.2      2.008      2.961
REMARK  Name = 
REMARK  8 active torsions:
REMARK  status: ('A' for Active; 'I' for Inactive)
REMARK    1  A    between atoms: C_1  and  C_2
REMARK    2  A    between atoms: C_2  and  C_3
REMARK    3  A    between atoms: C_2  and  C_10
REMARK    4  A    between atoms: C_3  and  C_4
REMARK    5  A    between atoms: N_8  and  C_9
REMARK    6  A    between atoms: C_12  and  N_13
REMARK    7  A    between atoms: N_13  and  C_14
REMARK    8  A    between atoms: C_27  and  C_28
REMARK                            x       y       z     vdW  Elec       q    Type
REMARK                         _______ _______ _______ _____ _____    ______ ____
ROOT
ATOM      1  C   UNL     1      -0.076  10.566  18.778  0.00  0.00    +0.000 A 
ATOM      2  C   UNL     1       0.727  11.686  18.533  0.00  0.00    +0.000 A 
ATOM      3  C   UNL     1       2.046  11.533  18.096  0.00  0.00    +0.000 A 
ATOM      4  N   UNL     1       2.620  10.322  17.962  0.00  0.00    +0.000 NA
ATOM      5  C   UNL     1       1.903   9.248  18.369  0.00  0.00    +0.000 A 
ATOM      6  N   UNL     1       2.533   8.000  18.407  0.00  0.00    +0.000 N 
ATOM      7  C   UNL     1       3.541   7.632  17.447  0.00  0.00    +0.000 C 
ATOM      8  C   UNL     1       3.996   6.291  17.944  0.00  0.00    +0.000 A 
ATOM      9  C   UNL     1       3.311   5.970  19.116  0.00  0.00    +0.000 A 
ATOM     10  C   UNL     1       3.535   4.804  19.826  0.00  0.00    +0.000 A 
ATOM     11  C   UNL     1       4.479   3.913  19.313  0.00  0.00    +0.000 A 
ATOM     12  C   UNL     1       5.166   4.211  18.122  0.00  0.00    +0.000 A 
ATOM     13  C   UNL     1       4.938   5.413  17.415  0.00  0.00    +0.000 A 
ATOM     14  C   UNL     1       2.376   7.061  19.423  0.00  0.00    +0.000 C 
ATOM     15  O   UNL     1       1.670   7.081  20.412  0.00  0.00    +0.000 OA
ATOM     16  C   UNL     1       0.560   9.328  18.727  0.00  0.00    +0.000 A 
ENDROOT
BRANCH  13  17
ATOM     17  C   UNL     1       5.703   5.700  16.151  0.00  0.00    +0.000 C 
ATOM     18  F   UNL     1       6.427   4.642  15.697  0.00  0.00    +0.000 F 
ATOM     19  F   UNL     1       4.887   6.064  15.123  0.00  0.00    +0.000 F 
ATOM     20  F   UNL     1       6.592   6.718  16.305  0.00  0.00    +0.000 F 
ENDBRANCH  13  17
BRANCH   1  22
ATOM     21  C   UNL     1      -2.476  10.346  17.885  0.00  0.00    +0.000 C 
ATOM     22  C   UNL     1      -1.567  10.734  19.068  0.00  0.00    +0.000 C 
BRANCH  22  23
ATOM     23  C   UNL     1      -1.856  12.190  19.518  0.00  0.00    +0.000 C 
BRANCH  23  24
ATOM     24  C   UNL     1      -1.448  12.462  20.925  0.00  0.00    +0.000 A 
ATOM     25  N   UNL     1      -1.522  11.624  21.939  0.00  0.00    +0.000 NA
ATOM     26  N   UNL     1      -1.095  12.281  23.070  0.00  0.00    +0.000 NA
ATOM     27  C   UNL     1      -0.759  13.500  22.718  0.00  0.00    +0.000 A 
ATOM     28  N   UNL     1      -0.939  13.650  21.380  0.00  0.00    +0.000 N 
ATOM     29  C   UNL     1      -0.646  14.827  20.607  0.00  0.00    +0.000 C 
ENDBRANCH  23  24
ENDBRANCH  22  23
ENDBRANCH   1  22
BRANCH   3  30
ATOM     30  N   UNL     1       2.729  12.717  17.729  0.00  0.00    +0.000 N 
ATOM     31  H   UNL     1       2.823  12.736  16.716  0.00  0.00    +0.000 HD
BRANCH  30  32
ATOM     32  C   UNL     1       2.481  14.010  18.288  0.00  0.00    +0.000 C 
ATOM     33  C   UNL     1       3.173  14.220  19.654  0.00  0.00    +0.000 C 
ATOM     34  C   UNL     1       3.724  15.557  19.129  0.00  0.00    +0.000 C 
ATOM     35  C   UNL     1       3.464  15.055  17.699  0.00  0.00    +0.000 C 
ENDBRANCH  30  32
ENDBRANCH   3  30
TORSDOF 6
ENDMDL
MODEL 8
REMARK VINA RESULT:      -8.1      0.818      1.189
REMARK  Name = 
REMARK  8 active torsions:
REMARK  status: ('A' for Active; 'I' for Inactive)
REMARK    1  A    between atoms: C_1  and  C_2
REMARK    2  A    between atoms: C_2  and  C_3
REMARK    3  A    between atoms: C_2  and  C_10
REMARK    4  A    between atoms: C_3  and  C_4
REMARK    5  A    between atoms: N_8  and  C_9
REMARK    6  A    between atoms: C_12  and  N_13
REMARK    7  A    between atoms: N_13  and  C_14
REMARK    8  A    between atoms: C_27  and  C_28
REMARK                            x       y       z     vdW  Elec       q    Type
REMARK                         _______ _______ _______ _____ _____    ______ ____
ROOT
ATOM      1  C   UNL     1      -0.045  11.723  18.931  0.00  0.00    +0.000 A 
ATOM      2  C   UNL     1       0.901  12.722  18.680  0.00  0.00    +0.000 A 
ATOM      3  C   UNL     1       2.183  12.391  18.230  0.00  0.00    +0.000 A 
ATOM      4  N   UNL     1       2.583  11.113  18.088  0.00  0.00    +0.000 NA
ATOM      5  C   UNL     1       1.729  10.146  18.502  0.00  0.00    +0.000 A 
ATOM      6  N   UNL     1       2.183   8.823  18.532  0.00  0.00    +0.000 N 
ATOM      7  C   UNL     1       3.121   8.323  17.563  0.00  0.00    +0.000 C 
ATOM      8  C   UNL     1       3.393   6.931  18.053  0.00  0.00    +0.000 A 
ATOM      9  C   UNL     1       2.681   6.704  19.232  0.00  0.00    +0.000 A 
ATOM     10  C   UNL     1       2.750   5.517  19.938  0.00  0.00    +0.000 A 
ATOM     11  C   UNL     1       3.558   4.506  19.415  0.00  0.00    +0.000 A 
ATOM     12  C   UNL     1       4.267   4.709  18.218  0.00  0.00    +0.000 A 
ATOM     13  C   UNL     1       4.200   5.933  17.515  0.00  0.00    +0.000 A 
ATOM     14  C   UNL     1       1.908   7.913  19.549  0.00  0.00    +0.000 C 
ATOM     15  O   UNL     1       1.221   8.027  20.545  0.00  0.00    +0.000 OA
ATOM     16  C   UNL     1       0.414  10.409  18.873  0.00  0.00    +0.000 A 
ENDROOT
BRANCH  13  17
ATOM     17  C   UNL     1       4.985   6.115  16.243  0.00  0.00    +0.000 C 
ATOM     18  F   UNL     1       6.287   6.447  16.448  0.00  0.00    +0.000 F 
ATOM     19  F   UNL     1       5.000   4.990  15.478  0.00  0.00    +0.000 F 
ATOM     20  F   UNL     1       4.471   7.100  15.456  0.00  0.00    +0.000 F 
ENDBRANCH  13  17
BRANCH   1  22
ATOM     21  C   UNL     1      -1.720  12.589  20.678  0.00  0.00    +0.000 C 
ATOM     22  C   UNL     1      -1.497  12.094  19.236  0.00  0.00    +0.000 C 
BRANCH  22  23
ATOM     23  C   UNL     1      -2.425  10.890  18.926  0.00  0.00    +0.000 C 
BRANCH  23  24
ATOM     24  C   UNL     1      -3.482  11.205  17.924  0.00  0.00    +0.000 A 
ATOM     25  N   UNL     1      -3.418  10.997  16.624  0.00  0.00    +0.000 NA
ATOM     26  N   UNL     1      -4.576  11.473  16.057  0.00  0.00    +0.000 NA
ATOM     27  C   UNL     1      -5.326  11.948  17.023  0.00  0.00    +0.000 A 
ATOM     28  N   UNL     1      -4.692  11.779  18.212  0.00  0.00    +0.000 N 
ATOM     29  C   UNL     1      -5.203  12.131  19.509  0.00  0.00    +0.000 C 
ENDBRANCH  23  24
ENDBRANCH  22  23
ENDBRANCH   1  22
BRANCH   3  30
ATOM     30  N   UNL     1       3.019  13.470  17.858  0.00  0.00    +0.000 N 
ATOM     31  H   UNL     1       3.304  13.340  16.889  0.00  0.00    +0.000 HD
BRANCH  30  32
ATOM     32  C   UNL     1       2.777  14.841  18.185  0.00  0.00    +0.000 C 
ATOM     33  C   UNL     1       3.630  15.336  19.375  0.00  0.00    +0.000 C 
ATOM     34  C   UNL     1       4.036  16.557  18.530  0.00  0.00    +0.000 C 
ATOM     35  C   UNL     1       3.617  15.775  17.275  0.00  0.00    +0.000 C 
ENDBRANCH  30  32
ENDBRANCH   3  30
TORSDOF 6
ENDMDL
MODEL 9
REMARK VINA RESULT:      -8.1      2.239      3.300
REMARK  Name = 
REMARK  8 active torsions:
REMARK  status: ('A' for Active; 'I' for Inactive)
REMARK    1  A    between atoms: C_1  and  C_2
REMARK    2  A    between atoms: C_2  and  C_3
REMARK    3  A    between atoms: C_2  and  C_10
REMARK    4  A    between atoms: C_3  and  C_4
REMARK    5  A    between atoms: N_8  and  C_9
REMARK    6  A    between atoms: C_12  and  N_13
REMARK    7  A    between atoms: N_13  and  C_14
REMARK    8  A    between atoms: C_27  and  C_28
REMARK                            x       y       z     vdW  Elec       q    Type
REMARK                         _______ _______ _______ _____ _____    ______ ____
ROOT
ATOM      1  C   UNL     1      -1.020  11.543  19.270  0.00  0.00    +0.000 A 
ATOM      2  C   UNL     1      -0.212  12.665  19.054  0.00  0.00    +0.000 A 
ATOM      3  C   UNL     1       1.118  12.517  18.650  0.00  0.00    +0.000 A 
ATOM      4  N   UNL     1       1.695  11.306  18.520  0.00  0.00    +0.000 NA
ATOM      5  C   UNL     1       0.969  10.229  18.901  0.00  0.00    +0.000 A 
ATOM      6  N   UNL     1       1.598   8.980  18.945  0.00  0.00    +0.000 N 
ATOM      7  C   UNL     1       2.630   8.621  18.008  0.00  0.00    +0.000 C 
ATOM      8  C   UNL     1       3.073   7.276  18.505  0.00  0.00    +0.000 A 
ATOM      9  C   UNL     1       2.359   6.945  19.657  0.00  0.00    +0.000 A 
ATOM     10  C   UNL     1       2.566   5.774  20.364  0.00  0.00    +0.000 A 
ATOM     11  C   UNL     1       3.523   4.887  19.868  0.00  0.00    +0.000 A 
ATOM     12  C   UNL     1       4.239   5.195  18.697  0.00  0.00    +0.000 A 
ATOM     13  C   UNL     1       4.028   6.402  17.994  0.00  0.00    +0.000 A 
ATOM     14  C   UNL     1       1.416   8.034  19.949  0.00  0.00    +0.000 C 
ATOM     15  O   UNL     1       0.686   8.046  20.921  0.00  0.00    +0.000 OA
ATOM     16  C   UNL     1      -0.383  10.306  19.226  0.00  0.00    +0.000 A 
ENDROOT
BRANCH  13  17
ATOM     17  C   UNL     1       4.824   6.699  16.751  0.00  0.00    +0.000 C 
ATOM     18  F   UNL     1       5.959   7.411  16.986  0.00  0.00    +0.000 F 
ATOM     19  F   UNL     1       5.218   5.568  16.105  0.00  0.00    +0.000 F 
ATOM     20  F   UNL     1       4.114   7.425  15.844  0.00  0.00    +0.000 F 
ENDBRANCH  13  17
BRANCH   1  22
ATOM     21  C   UNL     1      -3.370  11.687  18.239  0.00  0.00    +0.000 C 
ATOM     22  C   UNL     1      -2.518  11.709  19.524  0.00  0.00    +0.000 C 
BRANCH  22  23
ATOM     23  C   UNL     1      -2.777  13.013  20.323  0.00  0.00    +0.000 C 
BRANCH  23  24
ATOM     24  C   UNL     1      -3.394  12.773  21.658  0.00  0.00    +0.000 A 
ATOM     25  N   UNL     1      -4.663  12.515  21.900  0.00  0.00    +0.000 NA
ATOM     26  N   UNL     1      -4.826  12.408  23.261  0.00  0.00    +0.000 NA
ATOM     27  C   UNL     1      -3.652  12.591  23.818  0.00  0.00    +0.000 A 
ATOM     28  N   UNL     1      -2.720  12.797  22.850  0.00  0.00    +0.000 N 
ATOM     29  C   UNL     1      -1.310  12.994  23.052  0.00  0.00    +0.000 C 
ENDBRANCH  23  24
ENDBRANCH  22  23
ENDBRANCH   1  22
BRANCH   3  30
ATOM     30  N   UNL     1       1.810  13.703  18.309  0.00  0.00    +0.000 N 
ATOM     31  H   UNL     1       1.325  14.493  18.730  0.00  0.00    +0.000 HD
BRANCH  30  32
ATOM     32  C   UNL     1       3.232  13.852  18.326  0.00  0.00    +0.000 C 
ATOM     33  C   UNL     1       3.710  15.152  17.640  0.00  0.00    +0.000 C 
ATOM     34  C   UNL     1       4.578  15.443  18.877  0.00  0.00    +0.000 C 
ATOM     35  C   UNL     1       3.700  14.465  19.672  0.00  0.00    +0.000 C 
ENDBRANCH  30  32
ENDBRANCH   3  30
TORSDOF 6
ENDMDL
