MODEL 1
REMARK VINA RESULT:      -8.9      0.000      0.000
REMARK  Name = 
REMARK  7 active torsions:
REMARK  status: ('A' for Active; 'I' for Inactive)
REMARK    1  A    between atoms: C_1  and  C_2
REMARK    2  A    between atoms: C_2  and  S_3
REMARK    3  A    between atoms: C_2  and  C_10
REMARK    4  A    between atoms: S_3  and  C_4
REMARK    5  A    between atoms: N_8  and  C_9
REMARK    6  A    between atoms: C_15  and  N_16
REMARK    7  A    between atoms: C_23  and  C_24
REMARK                            x       y       z     vdW  Elec       q    Type
REMARK                         _______ _______ _______ _____ _____    ______ ____
ROOT
ATOM      1  C   UNL     1       5.231   5.718  18.785  0.00  0.00    +0.000 A 
ATOM      2  C   UNL     1       4.839   4.433  19.212  0.00  0.00    +0.000 A 
ATOM      3  C   UNL     1       3.529   4.170  19.598  0.00  0.00    +0.000 A 
ATOM      4  C   UNL     1       2.594   5.193  19.609  0.00  0.00    +0.000 A 
ATOM      5  F   UNL     1       1.355   4.907  20.031  0.00  0.00    +0.000 F 
ATOM      6  C   UNL     1       2.968   6.507  19.300  0.00  0.00    +0.000 A 
ATOM      7  C   UNL     1       4.280   6.750  18.876  0.00  0.00    +0.000 A 
ENDROOT
BRANCH   6   8
ATOM      8  N   UNL     1       2.073   7.586  19.462  0.00  0.00    +0.000 N 
ATOM      9  C   UNL     1       1.438   7.906  20.720  0.00  0.00    +0.000 C 
ATOM     10  C   UNL     1       0.786   9.225  20.440  0.00  0.00    +0.000 A 
ATOM     11  C   UNL     1       1.074   9.620  19.135  0.00  0.00    +0.000 A 
ATOM     12  C   UNL     1       0.671  10.835  18.614  0.00  0.00    +0.000 A 
ATOM     13  C   UNL     1      -0.089  11.662  19.439  0.00  0.00    +0.000 A 
ATOM     14  C   UNL     1      -0.416  11.263  20.749  0.00  0.00    +0.000 A 
ATOM     15  C   UNL     1       0.026  10.034  21.278  0.00  0.00    +0.000 A 
ATOM     16  C   UNL     1       1.881   8.570  18.491  0.00  0.00    +0.000 C 
ATOM     17  O   UNL     1       2.305   8.652  17.353  0.00  0.00    +0.000 OA
BRANCH  15  18
ATOM     18  C   UNL     1      -0.325   9.646  22.690  0.00  0.00    +0.000 C 
ATOM     19  F   UNL     1      -0.998   8.463  22.786  0.00  0.00    +0.000 F 
ATOM     20  F   UNL     1       0.776   9.508  23.480  0.00  0.00    +0.000 F 
ATOM     21  F   UNL     1      -1.114  10.572  23.302  0.00  0.00    +0.000 F 
ENDBRANCH  15  18
ENDBRANCH   6   8
BRANCH   1  23
ATOM     22  C   UNL     1       6.908   7.241  17.492  0.00  0.00    +0.000 C 
ATOM     23  C   UNL     1       6.660   5.973  18.321  0.00  0.00    +0.000 C 
BRANCH  23  24
ATOM     24  S   UNL     1       7.431   4.514  17.506  0.00  0.00    +0.000 S 
BRANCH  24  25
ATOM     25  C   UNL     1       7.022   4.689  15.837  0.00  0.00    +0.000 A 
ATOM     26  N   UNL     1       7.708   5.284  14.890  0.00  0.00    +0.000 NA
ATOM     27  N   UNL     1       7.070   5.043  13.692  0.00  0.00    +0.000 NA
ATOM     28  C   UNL     1       5.998   4.331  13.952  0.00  0.00    +0.000 A 
ATOM     29  N   UNL     1       5.893   4.142  15.297  0.00  0.00    +0.000 N 
ATOM     30  C   UNL     1       4.786   3.528  15.978  0.00  0.00    +0.000 C 
ENDBRANCH  24  25
ENDBRANCH  23  24
ENDBRANCH   1  23
TORSDOF 5
ENDMDL
MODEL 2
REMARK VINA RESULT:      -8.6      0.968      1.286
REMARK  Name = 
REMARK  7 active torsions:
REMARK  status: ('A' for Active; 'I' for Inactive)
REMARK    1  A    between atoms: C_1  and  C_2
REMARK    2  A    between atoms: C_2  and  S_3
REMARK    3  A    between atoms: C_2  and  C_10
REMARK    4  A    between atoms: S_3  and  C_4
REMARK    5  A    between atoms: N_8  and  C_9
REMARK    6  A    between atoms: C_15  and  N_16
REMARK    7  A    between atoms: C_23  and  C_24
REMARK                            x       y       z     vdW  Elec       q    Type
REMARK                         _______ _______ _______ _____ _____    ______ ____
ROOT
ATOM      1  C   UNL     1       5.292   5.134  19.058  0.00  0.00    +0.000 A 
ATOM      2  C   UNL     1       4.732   3.866  19.316  0.00  0.00    +0.000 A 
ATOM      3  C   UNL     1       3.361   3.705  19.491  0.00  0.00    +0.000 A 
ATOM      4  C   UNL     1       2.527   4.811  19.455  0.00  0.00    +0.000 A 
ATOM      5  F   UNL     1       1.219   4.617  19.673  0.00  0.00    +0.000 F 
ATOM      6  C   UNL     1       3.055   6.101  19.314  0.00  0.00    +0.000 A 
ATOM      7  C   UNL     1       4.430   6.244  19.101  0.00  0.00    +0.000 A 
ENDROOT
BRANCH   6   8
ATOM      8  N   UNL     1       2.241   7.247  19.438  0.00  0.00    +0.000 N 
ATOM      9  C   UNL     1       1.610   7.640  20.678  0.00  0.00    +0.000 C 
ATOM     10  C   UNL     1       1.065   8.999  20.360  0.00  0.00    +0.000 A 
ATOM     11  C   UNL     1       1.407   9.344  19.054  0.00  0.00    +0.000 A 
ATOM     12  C   UNL     1       1.107  10.576  18.502  0.00  0.00    +0.000 A 
ATOM     13  C   UNL     1       0.397  11.474  19.298  0.00  0.00    +0.000 A 
ATOM     14  C   UNL     1       0.018  11.128  20.609  0.00  0.00    +0.000 A 
ATOM     15  C   UNL     1       0.355   9.880  21.168  0.00  0.00    +0.000 A 
ATOM     16  C   UNL     1       2.142   8.223  18.446  0.00  0.00    +0.000 C 
ATOM     17  O   UNL     1       2.592   8.250  17.314  0.00  0.00    +0.000 OA
BRANCH  15  18
ATOM     18  C   UNL     1      -0.050   9.548  22.580  0.00  0.00    +0.000 C 
ATOM     19  F   UNL     1       0.999   9.254  23.401  0.00  0.00    +0.000 F 
ATOM     20  F   UNL     1      -0.715  10.572  23.184  0.00  0.00    +0.000 F 
ATOM     21  F   UNL     1      -0.882   8.471  22.643  0.00  0.00    +0.000 F 
ENDBRANCH  15  18
ENDBRANCH   6   8
BRANCH   1  23
ATOM     22  C   UNL     1       7.655   5.632  20.042  0.00  0.00    +0.000 C 
ATOM     23  C   UNL     1       6.791   5.280  18.823  0.00  0.00    +0.000 C 
BRANCH  23  24
ATOM     24  S   UNL     1       7.201   6.381  17.407  0.00  0.00    +0.000 S 
BRANCH  24  25
ATOM     25  C   UNL     1       6.772   5.461  16.009  0.00  0.00    +0.000 A 
ATOM     26  N   UNL     1       7.388   4.421  15.501  0.00  0.00    +0.000 NA
ATOM     27  N   UNL     1       6.605   3.923  14.481  0.00  0.00    +0.000 NA
ATOM     28  C   UNL     1       5.547   4.694  14.384  0.00  0.00    +0.000 A 
ATOM     29  N   UNL     1       5.644   5.714  15.282  0.00  0.00    +0.000 N 
ATOM     30  C   UNL     1       4.749   6.835  15.386  0.00  0.00    +0.000 C 
ENDBRANCH  24  25
ENDBRANCH  23  24
ENDBRANCH   1  23
TORSDOF 5
ENDMDL
MODEL 3
REMARK VINA RESULT:      -8.6      0.961      1.292
REMARK  Name = 
REMARK  7 active torsions:
REMARK  status: ('A' for Active; 'I' for Inactive)
REMARK    1  A    between atoms: C_1  and  C_2
REMARK    2  A    between atoms: C_2  and  S_3
REMARK    3  A    between atoms: C_2  and  C_10
REMARK    4  A    between atoms: S_3  and  C_4
REMARK    5  A    between atoms: N_8  and  C_9
REMARK    6  A    between atoms: C_15  and  N_16
REMARK    7  A    between atoms: C_23  and  C_24
REMARK                            x       y       z     vdW  Elec       q    Type
REMARK                         _______ _______ _______ _____ _____    ______ ____
ROOT
ATOM      1  C   UNL     1       4.582   5.397  18.115  0.00  0.00    +0.000 A 
ATOM      2  C   UNL     1       4.316   4.238  18.872  0.00  0.00    +0.000 A 
ATOM      3  C   UNL     1       3.203   4.160  19.703  0.00  0.00    +0.000 A 
ATOM      4  C   UNL     1       2.358   5.252  19.829  0.00  0.00    +0.000 A 
ATOM      5  F   UNL     1       1.323   5.149  20.674  0.00  0.00    +0.000 F 
ATOM      6  C   UNL     1       2.649   6.460  19.182  0.00  0.00    +0.000 A 
ATOM      7  C   UNL     1       3.750   6.511  18.320  0.00  0.00    +0.000 A 
ENDROOT
BRANCH   6   8
ATOM      8  N   UNL     1       1.893   7.626  19.426  0.00  0.00    +0.000 N 
ATOM      9  C   UNL     1       1.318   7.942  20.714  0.00  0.00    +0.000 C 
ATOM     10  C   UNL     1       0.828   9.345  20.526  0.00  0.00    +0.000 A 
ATOM     11  C   UNL     1       1.146   9.783  19.241  0.00  0.00    +0.000 A 
ATOM     12  C   UNL     1       0.887  11.067  18.802  0.00  0.00    +0.000 A 
ATOM     13  C   UNL     1       0.244  11.927  19.691  0.00  0.00    +0.000 A 
ATOM     14  C   UNL     1      -0.112  11.490  20.981  0.00  0.00    +0.000 A 
ATOM     15  C   UNL     1       0.183  10.186  21.426  0.00  0.00    +0.000 A 
ATOM     16  C   UNL     1       1.811   8.684  18.520  0.00  0.00    +0.000 C 
ATOM     17  O   UNL     1       2.228   8.785  17.381  0.00  0.00    +0.000 OA
BRANCH  15  18
ATOM     18  C   UNL     1      -0.195   9.757  22.819  0.00  0.00    +0.000 C 
ATOM     19  F   UNL     1       0.870   9.419  23.601  0.00  0.00    +0.000 F 
ATOM     20  F   UNL     1      -0.858  10.732  23.501  0.00  0.00    +0.000 F 
ATOM     21  F   UNL     1      -1.017   8.671  22.823  0.00  0.00    +0.000 F 
ENDBRANCH  15  18
ENDBRANCH   6   8
BRANCH   1  23
ATOM     22  C   UNL     1       6.100   6.795  16.519  0.00  0.00    +0.000 C 
ATOM     23  C   UNL     1       5.782   5.443  17.176  0.00  0.00    +0.000 C 
BRANCH  23  24
ATOM     24  S   UNL     1       5.769   4.105  15.913  0.00  0.00    +0.000 S 
BRANCH  24  25
ATOM     25  C   UNL     1       6.753   4.714  14.632  0.00  0.00    +0.000 A 
ATOM     26  N   UNL     1       7.756   5.557  14.708  0.00  0.00    +0.000 NA
ATOM     27  N   UNL     1       8.337   5.635  13.461  0.00  0.00    +0.000 NA
ATOM     28  C   UNL     1       7.652   4.856  12.656  0.00  0.00    +0.000 A 
ATOM     29  N   UNL     1       6.606   4.309  13.336  0.00  0.00    +0.000 N 
ATOM     30  C   UNL     1       5.554   3.510  12.766  0.00  0.00    +0.000 C 
ENDBRANCH  24  25
ENDBRANCH  23  24
ENDBRANCH   1  23
TORSDOF 5
ENDMDL
MODEL 4
REMARK VINA RESULT:      -8.5      3.880      8.028
REMARK  Name = 
REMARK  7 active torsions:
REMARK  status: ('A' for Active; 'I' for Inactive)
REMARK    1  A    between atoms: C_1  and  C_2
REMARK    2  A    between atoms: C_2  and  S_3
REMARK    3  A    between atoms: C_2  and  C_10
REMARK    4  A    between atoms: S_3  and  C_4
REMARK    5  A    between atoms: N_8  and  C_9
REMARK    6  A    between atoms: C_15  and  N_16
REMARK    7  A    between atoms: C_23  and  C_24
REMARK                            x       y       z     vdW  Elec       q    Type
REMARK                         _______ _______ _______ _____ _____    ______ ____
ROOT
ATOM      1  C   UNL     1      -0.154  10.952  19.713  0.00  0.00    +0.000 A 
ATOM      2  C   UNL     1      -0.349  11.189  21.090  0.00  0.00    +0.000 A 
ATOM      3  C   UNL     1       0.265  10.392  22.051  0.00  0.00    +0.000 A 
ATOM      4  C   UNL     1       1.049   9.318  21.661  0.00  0.00    +0.000 A 
ATOM      5  F   UNL     1       1.584   8.551  22.619  0.00  0.00    +0.000 F 
ATOM      6  C   UNL     1       1.177   8.982  20.307  0.00  0.00    +0.000 A 
ATOM      7  C   UNL     1       0.586   9.814  19.349  0.00  0.00    +0.000 A 
ENDROOT
BRANCH   6   8
ATOM      8  N   UNL     1       1.835   7.801  19.901  0.00  0.00    +0.000 N 
ATOM      9  C   UNL     1       1.624   6.519  20.534  0.00  0.00    +0.000 C 
ATOM     10  C   UNL     1       2.347   5.574  19.625  0.00  0.00    +0.000 A 
ATOM     11  C   UNL     1       2.883   6.280  18.548  0.00  0.00    +0.000 A 
ATOM     12  C   UNL     1       3.542   5.663  17.502  0.00  0.00    +0.000 A 
ATOM     13  C   UNL     1       3.697   4.279  17.574  0.00  0.00    +0.000 A 
ATOM     14  C   UNL     1       3.189   3.556  18.670  0.00  0.00    +0.000 A 
ATOM     15  C   UNL     1       2.494   4.194  19.716  0.00  0.00    +0.000 A 
ATOM     16  C   UNL     1       2.579   7.710  18.723  0.00  0.00    +0.000 C 
ATOM     17  O   UNL     1       2.899   8.568  17.921  0.00  0.00    +0.000 OA
BRANCH  15  18
ATOM     18  C   UNL     1       1.948   3.388  20.865  0.00  0.00    +0.000 C 
ATOM     19  F   UNL     1       2.285   2.068  20.823  0.00  0.00    +0.000 F 
ATOM     20  F   UNL     1       2.386   3.842  22.073  0.00  0.00    +0.000 F 
ATOM     21  F   UNL     1       0.587   3.422  20.923  0.00  0.00    +0.000 F 
ENDBRANCH  15  18
ENDBRANCH   6   8
BRANCH   1  23
ATOM     22  C   UNL     1      -0.383  13.344  18.698  0.00  0.00    +0.000 C 
ATOM     23  C   UNL     1      -0.798  11.866  18.677  0.00  0.00    +0.000 C 
BRANCH  23  24
ATOM     24  S   UNL     1      -2.631  11.716  18.614  0.00  0.00    +0.000 S 
BRANCH  24  25
ATOM     25  C   UNL     1      -2.960  11.145  17.018  0.00  0.00    +0.000 A 
ATOM     26  N   UNL     1      -2.159  10.494  16.206  0.00  0.00    +0.000 NA
ATOM     27  N   UNL     1      -2.895  10.112  15.106  0.00  0.00    +0.000 NA
ATOM     28  C   UNL     1      -4.116  10.565  15.269  0.00  0.00    +0.000 A 
ATOM     29  N   UNL     1      -4.184  11.279  16.428  0.00  0.00    +0.000 N 
ATOM     30  C   UNL     1      -5.314  12.042  16.883  0.00  0.00    +0.000 C 
ENDBRANCH  24  25
ENDBRANCH  23  24
ENDBRANCH   1  23
TORSDOF 5
ENDMDL
MODEL 5
REMARK VINA RESULT:      -8.3      1.441      2.448
REMARK  Name = 
REMARK  7 active torsions:
REMARK  status: ('A' for Active; 'I' for Inactive)
REMARK    1  A    between atoms: C_1  and  C_2
REMARK    2  A    between atoms: C_2  and  S_3
REMARK    3  A    between atoms: C_2  and  C_10
REMARK    4  A    between atoms: S_3  and  C_4
REMARK    5  A    between atoms: N_8  and  C_9
REMARK    6  A    between atoms: C_15  and  N_16
REMARK    7  A    between atoms: C_23  and  C_24
REMARK                            x       y       z     vdW  Elec       q    Type
REMARK                         _______ _______ _______ _____ _____    ______ ____
ROOT
ATOM      1  C   UNL     1       4.097   5.021  17.722  0.00  0.00    +0.000 A 
ATOM      2  C   UNL     1       3.859   3.926  18.577  0.00  0.00    +0.000 A 
ATOM      3  C   UNL     1       2.885   3.985  19.569  0.00  0.00    +0.000 A 
ATOM      4  C   UNL     1       2.159   5.151  19.756  0.00  0.00    +0.000 A 
ATOM      5  F   UNL     1       1.263   5.178  20.750  0.00  0.00    +0.000 F 
ATOM      6  C   UNL     1       2.441   6.297  19.002  0.00  0.00    +0.000 A 
ATOM      7  C   UNL     1       3.397   6.212  17.983  0.00  0.00    +0.000 A 
ENDROOT
BRANCH   6   8
ATOM      8  N   UNL     1       1.827   7.535  19.287  0.00  0.00    +0.000 N 
ATOM      9  C   UNL     1       1.273   7.865  20.580  0.00  0.00    +0.000 C 
ATOM     10  C   UNL     1       0.957   9.323  20.447  0.00  0.00    +0.000 A 
ATOM     11  C   UNL     1       1.347   9.772  19.186  0.00  0.00    +0.000 A 
ATOM     12  C   UNL     1       1.252  11.095  18.799  0.00  0.00    +0.000 A 
ATOM     13  C   UNL     1       0.702  11.989  19.716  0.00  0.00    +0.000 A 
ATOM     14  C   UNL     1       0.274  11.546  20.983  0.00  0.00    +0.000 A 
ATOM     15  C   UNL     1       0.404  10.198  21.375  0.00  0.00    +0.000 A 
ATOM     16  C   UNL     1       1.887   8.632  18.426  0.00  0.00    +0.000 C 
ATOM     17  O   UNL     1       2.332   8.728  17.296  0.00  0.00    +0.000 OA
BRANCH  15  18
ATOM     18  C   UNL     1      -0.046   9.761  22.744  0.00  0.00    +0.000 C 
ATOM     19  F   UNL     1       0.970   9.344  23.551  0.00  0.00    +0.000 F 
ATOM     20  F   UNL     1      -0.675  10.757  23.427  0.00  0.00    +0.000 F 
ATOM     21  F   UNL     1      -0.929   8.725  22.694  0.00  0.00    +0.000 F 
ENDBRANCH  15  18
ENDBRANCH   6   8
BRANCH   1  23
ATOM     22  C   UNL     1       4.808   3.991  15.434  0.00  0.00    +0.000 C 
ATOM     23  C   UNL     1       5.136   4.919  16.612  0.00  0.00    +0.000 C 
BRANCH  23  24
ATOM     24  S   UNL     1       6.836   4.588  17.235  0.00  0.00    +0.000 S 
BRANCH  24  25
ATOM     25  C   UNL     1       7.500   6.155  17.525  0.00  0.00    +0.000 A 
ATOM     26  N   UNL     1       7.592   7.166  16.693  0.00  0.00    +0.000 NA
ATOM     27  N   UNL     1       8.048   8.256  17.402  0.00  0.00    +0.000 NA
ATOM     28  C   UNL     1       8.245   7.867  18.640  0.00  0.00    +0.000 A 
ATOM     29  N   UNL     1       7.976   6.536  18.747  0.00  0.00    +0.000 N 
ATOM     30  C   UNL     1       8.203   5.721  19.909  0.00  0.00    +0.000 C 
ENDBRANCH  24  25
ENDBRANCH  23  24
ENDBRANCH   1  23
TORSDOF 5
ENDMDL
MODEL 6
REMARK VINA RESULT:      -8.3      4.320      9.219
REMARK  Name = 
REMARK  7 active torsions:
REMARK  status: ('A' for Active; 'I' for Inactive)
REMARK    1  A    between atoms: C_1  and  C_2
REMARK    2  A    between atoms: C_2  and  S_3
REMARK    3  A    between atoms: C_2  and  C_10
REMARK    4  A    between atoms: S_3  and  C_4
REMARK    5  A    between atoms: N_8  and  C_9
REMARK    6  A    between atoms: C_15  and  N_16
REMARK    7  A    between atoms: C_23  and  C_24
REMARK                            x       y       z     vdW  Elec       q    Type
REMARK                         _______ _______ _______ _____ _____    ______ ____
ROOT
ATOM      1  C   UNL     1      -0.979  10.946  20.357  0.00  0.00    +0.000 A 
ATOM      2  C   UNL     1      -0.951  11.196  21.745  0.00  0.00    +0.000 A 
ATOM      3  C   UNL     1      -0.051  10.538  22.577  0.00  0.00    +0.000 A 
ATOM      4  C   UNL     1       0.809   9.588  22.050  0.00  0.00    +0.000 A 
ATOM      5  F   UNL     1       1.628   8.947  22.894  0.00  0.00    +0.000 F 
ATOM      6  C   UNL     1       0.736   9.229  20.698  0.00  0.00    +0.000 A 
ATOM      7  C   UNL     1      -0.147   9.926  19.865  0.00  0.00    +0.000 A 
ENDROOT
BRANCH   6   8
ATOM      8  N   UNL     1       1.488   8.153  20.180  0.00  0.00    +0.000 N 
ATOM      9  C   UNL     1       1.441   6.817  20.729  0.00  0.00    +0.000 C 
ATOM     10  C   UNL     1       2.208   6.015  19.724  0.00  0.00    +0.000 A 
ATOM     11  C   UNL     1       2.613   6.842  18.678  0.00  0.00    +0.000 A 
ATOM     12  C   UNL     1       3.276   6.368  17.562  0.00  0.00    +0.000 A 
ATOM     13  C   UNL     1       3.573   5.006  17.528  0.00  0.00    +0.000 A 
ATOM     14  C   UNL     1       3.198   4.163  18.591  0.00  0.00    +0.000 A 
ATOM     15  C   UNL     1       2.498   4.655  19.710  0.00  0.00    +0.000 A 
ATOM     16  C   UNL     1       2.176   8.218  18.967  0.00  0.00    +0.000 C 
ATOM     17  O   UNL     1       2.366   9.156  18.215  0.00  0.00    +0.000 OA
BRANCH  15  18
ATOM     18  C   UNL     1       2.095   3.722  20.823  0.00  0.00    +0.000 C 
ATOM     19  F   UNL     1       2.502   4.129  22.059  0.00  0.00    +0.000 F 
ATOM     20  F   UNL     1       0.744   3.572  20.911  0.00  0.00    +0.000 F 
ATOM     21  F   UNL     1       2.602   2.469  20.659  0.00  0.00    +0.000 F 
ENDBRANCH  15  18
ENDBRANCH   6   8
BRANCH   1  23
ATOM     22  C   UNL     1      -1.444  12.066  18.048  0.00  0.00    +0.000 C 
ATOM     23  C   UNL     1      -1.941  11.712  19.457  0.00  0.00    +0.000 C 
BRANCH  23  24
ATOM     24  S   UNL     1      -2.674  13.192  20.268  0.00  0.00    +0.000 S 
BRANCH  24  25
ATOM     25  C   UNL     1      -4.213  12.652  20.837  0.00  0.00    +0.000 A 
ATOM     26  N   UNL     1      -4.589  12.428  22.074  0.00  0.00    +0.000 NA
ATOM     27  N   UNL     1      -5.941  12.160  22.062  0.00  0.00    +0.000 NA
ATOM     28  C   UNL     1      -6.341  12.203  20.812  0.00  0.00    +0.000 A 
ATOM     29  N   UNL     1      -5.273  12.443  20.001  0.00  0.00    +0.000 N 
ATOM     30  C   UNL     1      -5.285  12.428  18.563  0.00  0.00    +0.000 C 
ENDBRANCH  24  25
ENDBRANCH  23  24
ENDBRANCH   1  23
TORSDOF 5
ENDMDL
MODEL 7
REMARK VINA RESULT:      -8.2      2.512      3.548
REMARK  Name = 
REMARK  7 active torsions:
REMARK  status: ('A' for Active; 'I' for Inactive)
REMARK    1  A    between atoms: C_1  and  C_2
REMARK    2  A    between atoms: C_2  and  S_3
REMARK    3  A    between atoms: C_2  and  C_10
REMARK    4  A    between atoms: S_3  and  C_4
REMARK    5  A    between atoms: N_8  and  C_9
REMARK    6  A    between atoms: C_15  and  N_16
REMARK    7  A    between atoms: C_23  and  C_24
REMARK                            x       y       z     vdW  Elec       q    Type
REMARK                         _______ _______ _______ _____ _____    ______ ____
ROOT
ATOM      1  C   UNL     1       4.287   4.683  16.713  0.00  0.00    +0.000 A 
ATOM      2  C   UNL     1       3.611   3.454  16.852  0.00  0.00    +0.000 A 
ATOM      3  C   UNL     1       2.443   3.355  17.601  0.00  0.00    +0.000 A 
ATOM      4  C   UNL     1       1.950   4.469  18.262  0.00  0.00    +0.000 A 
ATOM      5  F   UNL     1       0.848   4.319  19.008  0.00  0.00    +0.000 F 
ATOM      6  C   UNL     1       2.652   5.681  18.241  0.00  0.00    +0.000 A 
ATOM      7  C   UNL     1       3.804   5.777  17.453  0.00  0.00    +0.000 A 
ENDROOT
BRANCH   6   8
ATOM      8  N   UNL     1       2.253   6.776  19.037  0.00  0.00    +0.000 N 
ATOM      9  C   UNL     1       1.831   8.044  18.484  0.00  0.00    +0.000 C 
ATOM     10  C   UNL     1       1.307   8.773  19.683  0.00  0.00    +0.000 A 
ATOM     11  C   UNL     1       1.397   7.952  20.805  0.00  0.00    +0.000 A 
ATOM     12  C   UNL     1       0.918   8.325  22.047  0.00  0.00    +0.000 A 
ATOM     13  C   UNL     1       0.362   9.598  22.159  0.00  0.00    +0.000 A 
ATOM     14  C   UNL     1       0.293  10.452  21.042  0.00  0.00    +0.000 A 
ATOM     15  C   UNL     1       0.760  10.048  19.775  0.00  0.00    +0.000 A 
ATOM     16  C   UNL     1       2.019   6.677  20.409  0.00  0.00    +0.000 C 
ATOM     17  O   UNL     1       2.203   5.751  21.178  0.00  0.00    +0.000 OA
BRANCH  15  18
ATOM     18  C   UNL     1       0.654  10.979  18.596  0.00  0.00    +0.000 C 
ATOM     19  F   UNL     1       0.085  12.182  18.893  0.00  0.00    +0.000 F 
ATOM     20  F   UNL     1       1.868  11.270  18.053  0.00  0.00    +0.000 F 
ATOM     21  F   UNL     1      -0.094  10.455  17.585  0.00  0.00    +0.000 F 
ENDBRANCH  15  18
ENDBRANCH   6   8
BRANCH   1  23
ATOM     22  C   UNL     1       5.562   3.944  14.561  0.00  0.00    +0.000 C 
ATOM     23  C   UNL     1       5.539   4.779  15.849  0.00  0.00    +0.000 C 
BRANCH  23  24
ATOM     24  S   UNL     1       7.097   4.537  16.797  0.00  0.00    +0.000 S 
BRANCH  24  25
ATOM     25  C   UNL     1       7.542   6.126  17.305  0.00  0.00    +0.000 A 
ATOM     26  N   UNL     1       7.567   7.229  16.595  0.00  0.00    +0.000 NA
ATOM     27  N   UNL     1       7.836   8.276  17.450  0.00  0.00    +0.000 NA
ATOM     28  C   UNL     1       7.994   7.773  18.653  0.00  0.00    +0.000 A 
ATOM     29  N   UNL     1       7.883   6.416  18.595  0.00  0.00    +0.000 N 
ATOM     30  C   UNL     1       8.128   5.503  19.679  0.00  0.00    +0.000 C 
ENDBRANCH  24  25
ENDBRANCH  23  24
ENDBRANCH   1  23
TORSDOF 5
ENDMDL
MODEL 8
REMARK VINA RESULT:      -8.2      4.357      9.047
REMARK  Name = 
REMARK  7 active torsions:
REMARK  status: ('A' for Active; 'I' for Inactive)
REMARK    1  A    between atoms: C_1  and  C_2
REMARK    2  A    between atoms: C_2  and  S_3
REMARK    3  A    between atoms: C_2  and  C_10
REMARK    4  A    between atoms: S_3  and  C_4
REMARK    5  A    between atoms: N_8  and  C_9
REMARK    6  A    between atoms: C_15  and  N_16
REMARK    7  A    between atoms: C_23  and  C_24
REMARK                            x       y       z     vdW  Elec       q    Type
REMARK                         _______ _______ _______ _____ _____    ______ ____
ROOT
ATOM      1  C   UNL     1      -0.966  10.829  20.011  0.00  0.00    +0.000 A 
ATOM      2  C   UNL     1      -0.918  11.202  21.369  0.00  0.00    +0.000 A 
ATOM      3  C   UNL     1       0.014  10.643  22.237  0.00  0.00    +0.000 A 
ATOM      4  C   UNL     1       0.888   9.670  21.779  0.00  0.00    +0.000 A 
ATOM      5  F   UNL     1       1.739   9.127  22.659  0.00  0.00    +0.000 F 
ATOM      6  C   UNL     1       0.798   9.190  20.466  0.00  0.00    +0.000 A 
ATOM      7  C   UNL     1      -0.119   9.788  19.593  0.00  0.00    +0.000 A 
ENDROOT
BRANCH   6   8
ATOM      8  N   UNL     1       1.567   8.090  20.030  0.00  0.00    +0.000 N 
ATOM      9  C   UNL     1       1.475   6.775  20.622  0.00  0.00    +0.000 C 
ATOM     10  C   UNL     1       2.289   5.931  19.691  0.00  0.00    +0.000 A 
ATOM     11  C   UNL     1       2.763   6.717  18.642  0.00  0.00    +0.000 A 
ATOM     12  C   UNL     1       3.483   6.198  17.583  0.00  0.00    +0.000 A 
ATOM     13  C   UNL     1       3.768   4.833  17.614  0.00  0.00    +0.000 A 
ATOM     14  C   UNL     1       3.324   4.032  18.683  0.00  0.00    +0.000 A 
ATOM     15  C   UNL     1       2.565   4.569  19.742  0.00  0.00    +0.000 A 
ATOM     16  C   UNL     1       2.324   8.106  18.858  0.00  0.00    +0.000 C 
ATOM     17  O   UNL     1       2.567   9.015  18.085  0.00  0.00    +0.000 OA
BRANCH  15  18
ATOM     18  C   UNL     1       2.090   3.680  20.861  0.00  0.00    +0.000 C 
ATOM     19  F   UNL     1       2.563   2.403  20.790  0.00  0.00    +0.000 F 
ATOM     20  F   UNL     1       2.462   4.143  22.086  0.00  0.00    +0.000 F 
ATOM     21  F   UNL     1       0.733   3.571  20.897  0.00  0.00    +0.000 F 
ENDBRANCH  15  18
ENDBRANCH   6   8
BRANCH   1  23
ATOM     22  C   UNL     1      -1.391  12.215  17.842  0.00  0.00    +0.000 C 
ATOM     23  C   UNL     1      -1.965  11.487  19.066  0.00  0.00    +0.000 C 
BRANCH  23  24
ATOM     24  S   UNL     1      -3.188  12.556  19.931  0.00  0.00    +0.000 S 
BRANCH  24  25
ATOM     25  C   UNL     1      -4.708  12.114  19.241  0.00  0.00    +0.000 A 
ATOM     26  N   UNL     1      -4.965  11.749  18.007  0.00  0.00    +0.000 NA
ATOM     27  N   UNL     1      -6.282  11.344  17.952  0.00  0.00    +0.000 NA
ATOM     28  C   UNL     1      -6.794  11.502  19.151  0.00  0.00    +0.000 A 
ATOM     29  N   UNL     1      -5.857  12.047  19.977  0.00  0.00    +0.000 N 
ATOM     30  C   UNL     1      -6.078  12.490  21.327  0.00  0.00    +0.000 C 
ENDBRANCH  24  25
ENDBRANCH  23  24
ENDBRANCH   1  23
TORSDOF 5
ENDMDL
MODEL 9
REMARK VINA RESULT:      -8.1      2.442      3.210
REMARK  Name = 
REMARK  7 active torsions:
REMARK  status: ('A' for Active; 'I' for Inactive)
REMARK    1  A    between atoms: C_1  and  C_2
REMARK    2  A    between atoms: C_2  and  S_3
REMARK    3  A    between atoms: C_2  and  C_10
REMARK    4  A    between atoms: S_3  and  C_4
REMARK    5  A    between atoms: N_8  and  C_9
REMARK    6  A    between atoms: C_15  and  N_16
REMARK    7  A    between atoms: C_23  and  C_24
REMARK                            x       y       z     vdW  Elec       q    Type
REMARK                         _______ _______ _______ _____ _____    ______ ____
ROOT
ATOM      1  C   UNL     1       4.998   4.475  17.221  0.00  0.00    +0.000 A 
ATOM      2  C   UNL     1       4.197   3.342  16.972  0.00  0.00    +0.000 A 
ATOM      3  C   UNL     1       2.845   3.330  17.299  0.00  0.00    +0.000 A 
ATOM      4  C   UNL     1       2.274   4.430  17.921  0.00  0.00    +0.000 A 
ATOM      5  F   UNL     1       0.980   4.358  18.258  0.00  0.00    +0.000 F 
ATOM      6  C   UNL     1       3.060   5.530  18.288  0.00  0.00    +0.000 A 
ATOM      7  C   UNL     1       4.410   5.545  17.919  0.00  0.00    +0.000 A 
ENDROOT
BRANCH   6   8
ATOM      8  N   UNL     1       2.533   6.584  19.064  0.00  0.00    +0.000 N 
ATOM      9  C   UNL     1       2.196   7.879  18.516  0.00  0.00    +0.000 C 
ATOM     10  C   UNL     1       1.484   8.548  19.651  0.00  0.00    +0.000 A 
ATOM     11  C   UNL     1       1.400   7.670  20.731  0.00  0.00    +0.000 A 
ATOM     12  C   UNL     1       0.728   7.981  21.897  0.00  0.00    +0.000 A 
ATOM     13  C   UNL     1       0.153   9.249  21.984  0.00  0.00    +0.000 A 
ATOM     14  C   UNL     1       0.256  10.158  20.913  0.00  0.00    +0.000 A 
ATOM     15  C   UNL     1       0.920   9.817  19.718  0.00  0.00    +0.000 A 
ATOM     16  C   UNL     1       2.086   6.417  20.375  0.00  0.00    +0.000 C 
ATOM     17  O   UNL     1       2.151   5.453  21.116  0.00  0.00    +0.000 OA
BRANCH  15  18
ATOM     18  C   UNL     1       0.996  10.806  18.585  0.00  0.00    +0.000 C 
ATOM     19  F   UNL     1       0.207  10.487  17.520  0.00  0.00    +0.000 F 
ATOM     20  F   UNL     1       0.617  12.059  18.963  0.00  0.00    +0.000 F 
ATOM     21  F   UNL     1       2.258  10.930  18.087  0.00  0.00    +0.000 F 
ENDBRANCH  15  18
ENDBRANCH   6   8
BRANCH   1  23
ATOM     22  C   UNL     1       7.500   4.655  17.935  0.00  0.00    +0.000 C 
ATOM     23  C   UNL     1       6.466   4.484  16.813  0.00  0.00    +0.000 C 
BRANCH  23  24
ATOM     24  S   UNL     1       6.828   5.639  15.426  0.00  0.00    +0.000 S 
BRANCH  24  25
ATOM     25  C   UNL     1       6.733   4.653  14.011  0.00  0.00    +0.000 A 
ATOM     26  N   UNL     1       5.943   3.630  13.785  0.00  0.00    +0.000 NA
ATOM     27  N   UNL     1       6.109   3.252  12.471  0.00  0.00    +0.000 NA
ATOM     28  C   UNL     1       7.017   4.040  11.944  0.00  0.00    +0.000 A 
ATOM     29  N   UNL     1       7.485   4.894  12.897  0.00  0.00    +0.000 N 
ATOM     30  C   UNL     1       8.578   5.815  12.741  0.00  0.00    +0.000 C 
ENDBRANCH  24  25
ENDBRANCH  23  24
ENDBRANCH   1  23
TORSDOF 5
ENDMDL
