MODEL 1
REMARK VINA RESULT:      -9.3      0.000      0.000
REMARK  Name = 
REMARK  10 active torsions:
REMARK  status: ('A' for Active; 'I' for Inactive)
REMARK    1  A    between atoms: C_1  and  C_2
REMARK    2  A    between atoms: C_2  and  C_3
REMARK    3  A    between atoms: C_2  and  C_10
REMARK    4  A    between atoms: C_3  and  C_4
REMARK    5  A    between atoms: N_8  and  C_9
REMARK    6  A    between atoms: C_14  and  N_15
REMARK    7  A    between atoms: C_16  and  C_18
REMARK    8  A    between atoms: C_20  and  S_21
REMARK    9  A    between atoms: S_21  and  C_22
REMARK   10  A    between atoms: C_26  and  C_27
REMARK                            x       y       z     vdW  Elec       q    Type
REMARK                         _______ _______ _______ _____ _____    ______ ____
ROOT
ATOM      1  N   UNL     1       2.184   7.071  18.743  0.00  0.00    +0.000 N 
ATOM      2  C   UNL     1       2.145   8.344  18.186  0.00  0.00    +0.000 C 
ATOM      3  O   UNL     1       2.556   8.672  17.077  0.00  0.00    +0.000 OA
ATOM      4  H   UNL     1       1.700   6.973  19.633  0.00  0.00    +0.000 HD
ENDROOT
BRANCH   1   9
ATOM      5  C   UNL     1       4.674   4.821  17.102  0.00  0.00    +0.000 A 
ATOM      6  C   UNL     1       3.914   3.649  16.988  0.00  0.00    +0.000 A 
ATOM      7  C   UNL     1       2.598   3.606  17.433  0.00  0.00    +0.000 A 
ATOM      8  C   UNL     1       2.018   4.735  18.003  0.00  0.00    +0.000 A 
ATOM      9  C   UNL     1       2.743   5.920  18.148  0.00  0.00    +0.000 A 
ATOM     10  C   UNL     1       4.067   5.961  17.678  0.00  0.00    +0.000 A 
BRANCH   5  12
ATOM     11  C   UNL     1       7.161   4.604  17.671  0.00  0.00    +0.000 C 
ATOM     12  C   UNL     1       6.112   4.893  16.579  0.00  0.00    +0.000 C 
BRANCH  12  13
ATOM     13  C   UNL     1       6.259   3.933  15.379  0.00  0.00    +0.000 C 
BRANCH  13  14
ATOM     14  C   UNL     1       6.937   4.555  14.203  0.00  0.00    +0.000 A 
ATOM     15  N   UNL     1       7.847   5.508  14.240  0.00  0.00    +0.000 NA
ATOM     16  N   UNL     1       8.222   5.792  12.945  0.00  0.00    +0.000 NA
ATOM     17  C   UNL     1       7.530   5.012  12.150  0.00  0.00    +0.000 A 
ATOM     18  N   UNL     1       6.710   4.221  12.894  0.00  0.00    +0.000 N 
ATOM     19  C   UNL     1       5.795   3.233  12.387  0.00  0.00    +0.000 C 
ENDBRANCH  13  14
ENDBRANCH  12  13
ENDBRANCH   5  12
ENDBRANCH   1   9
BRANCH   2  20
ATOM     20  C   UNL     1       1.493   9.383  19.032  0.00  0.00    +0.000 A 
ATOM     21  C   UNL     1       1.033   9.044  20.292  0.00  0.00    +0.000 A 
ATOM     22  C   UNL     1       0.485  10.058  21.060  0.00  0.00    +0.000 A 
ATOM     23  C   UNL     1       0.373  11.351  20.545  0.00  0.00    +0.000 A 
ATOM     24  C   UNL     1       0.850  11.614  19.261  0.00  0.00    +0.000 A 
ATOM     25  N   UNL     1       1.416  10.635  18.509  0.00  0.00    +0.000 NA
BRANCH  22  26
ATOM     26  S   UNL     1      -0.157   9.678  22.667  0.00  0.00    +0.000 S 
ATOM     27  C   UNL     1      -1.249  11.030  23.024  0.00  0.00    +0.000 C 
ATOM     28  O   UNL     1      -0.957   8.475  22.534  0.00  0.00    +0.000 OA
ATOM     29  O   UNL     1       0.952   9.732  23.596  0.00  0.00    +0.000 OA
ENDBRANCH  22  26
BRANCH  24  30
ATOM     30  C   UNL     1       0.733  12.985  18.645  0.00  0.00    +0.000 C 
ATOM     31  C   UNL     1       0.555  14.221  19.493  0.00  0.00    +0.000 C 
ATOM     32  C   UNL     1       1.875  13.962  18.833  0.00  0.00    +0.000 C 
ENDBRANCH  24  30
ENDBRANCH   2  20
TORSDOF 7
ENDMDL
MODEL 2
REMARK VINA RESULT:      -9.0      3.599      9.712
REMARK  Name = 
REMARK  10 active torsions:
REMARK  status: ('A' for Active; 'I' for Inactive)
REMARK    1  A    between atoms: C_1  and  C_2
REMARK    2  A    between atoms: C_2  and  C_3
REMARK    3  A    between atoms: C_2  and  C_10
REMARK    4  A    between atoms: C_3  and  C_4
REMARK    5  A    between atoms: N_8  and  C_9
REMARK    6  A    between atoms: C_14  and  N_15
REMARK    7  A    between atoms: C_16  and  C_18
REMARK    8  A    between atoms: C_20  and  S_21
REMARK    9  A    between atoms: S_21  and  C_22
REMARK   10  A    between atoms: C_26  and  C_27
REMARK                            x       y       z     vdW  Elec       q    Type
REMARK                         _______ _______ _______ _____ _____    ______ ____
ROOT
ATOM      1  N   UNL     1       2.152   7.570  19.544  0.00  0.00    +0.000 N 
ATOM      2  C   UNL     1       2.734   7.625  18.282  0.00  0.00    +0.000 C 
ATOM      3  O   UNL     1       2.726   8.580  17.512  0.00  0.00    +0.000 OA
ATOM      4  H   UNL     1       2.353   6.727  20.078  0.00  0.00    +0.000 HD
ENDROOT
BRANCH   1   9
ATOM      5  C   UNL     1      -0.028  10.578  19.936  0.00  0.00    +0.000 A 
ATOM      6  C   UNL     1      -0.120  10.638  21.334  0.00  0.00    +0.000 A 
ATOM      7  C   UNL     1       0.537   9.711  22.133  0.00  0.00    +0.000 A 
ATOM      8  C   UNL     1       1.296   8.702  21.549  0.00  0.00    +0.000 A 
ATOM      9  C   UNL     1       1.405   8.597  20.160  0.00  0.00    +0.000 A 
ATOM     10  C   UNL     1       0.754   9.550  19.359  0.00  0.00    +0.000 A 
BRANCH   5  12
ATOM     11  C   UNL     1       0.244  12.728  18.572  0.00  0.00    +0.000 C 
ATOM     12  C   UNL     1      -0.715  11.618  19.046  0.00  0.00    +0.000 C 
BRANCH  12  13
ATOM     13  C   UNL     1      -1.385  10.897  17.856  0.00  0.00    +0.000 C 
BRANCH  13  14
ATOM     14  C   UNL     1      -2.825  11.251  17.686  0.00  0.00    +0.000 A 
ATOM     15  N   UNL     1      -3.628  11.732  18.614  0.00  0.00    +0.000 NA
ATOM     16  N   UNL     1      -4.868  11.930  18.049  0.00  0.00    +0.000 NA
ATOM     17  C   UNL     1      -4.796  11.560  16.793  0.00  0.00    +0.000 A 
ATOM     18  N   UNL     1      -3.536  11.125  16.520  0.00  0.00    +0.000 N 
ATOM     19  C   UNL     1      -3.063  10.637  15.253  0.00  0.00    +0.000 C 
ENDBRANCH  13  14
ENDBRANCH  12  13
ENDBRANCH   5  12
ENDBRANCH   1   9
BRANCH   2  20
ATOM     20  C   UNL     1       3.470   6.396  17.873  0.00  0.00    +0.000 A 
ATOM     21  C   UNL     1       4.779   6.501  17.437  0.00  0.00    +0.000 A 
ATOM     22  C   UNL     1       5.437   5.324  17.120  0.00  0.00    +0.000 A 
ATOM     23  C   UNL     1       4.773   4.099  17.207  0.00  0.00    +0.000 A 
ATOM     24  C   UNL     1       3.450   4.074  17.645  0.00  0.00    +0.000 A 
ATOM     25  N   UNL     1       2.802   5.218  17.986  0.00  0.00    +0.000 NA
BRANCH  22  26
ATOM     26  S   UNL     1       7.103   5.397  16.518  0.00  0.00    +0.000 S 
ATOM     27  C   UNL     1       6.981   4.813  14.847  0.00  0.00    +0.000 C 
ATOM     28  O   UNL     1       7.482   6.797  16.481  0.00  0.00    +0.000 OA
ATOM     29  O   UNL     1       7.877   4.439  17.279  0.00  0.00    +0.000 OA
ENDBRANCH  22  26
BRANCH  24  30
ATOM     30  C   UNL     1       2.675   2.784  17.734  0.00  0.00    +0.000 C 
ATOM     31  C   UNL     1       3.356   1.473  18.047  0.00  0.00    +0.000 C 
ATOM     32  C   UNL     1       2.507   2.133  19.091  0.00  0.00    +0.000 C 
ENDBRANCH  24  30
ENDBRANCH   2  20
TORSDOF 7
ENDMDL
MODEL 3
REMARK VINA RESULT:      -8.9      1.951      3.000
REMARK  Name = 
REMARK  10 active torsions:
REMARK  status: ('A' for Active; 'I' for Inactive)
REMARK    1  A    between atoms: C_1  and  C_2
REMARK    2  A    between atoms: C_2  and  C_3
REMARK    3  A    between atoms: C_2  and  C_10
REMARK    4  A    between atoms: C_3  and  C_4
REMARK    5  A    between atoms: N_8  and  C_9
REMARK    6  A    between atoms: C_14  and  N_15
REMARK    7  A    between atoms: C_16  and  C_18
REMARK    8  A    between atoms: C_20  and  S_21
REMARK    9  A    between atoms: S_21  and  C_22
REMARK   10  A    between atoms: C_26  and  C_27
REMARK                            x       y       z     vdW  Elec       q    Type
REMARK                         _______ _______ _______ _____ _____    ______ ____
ROOT
ATOM      1  N   UNL     1       2.160   7.182  18.790  0.00  0.00    +0.000 N 
ATOM      2  C   UNL     1       2.030   8.431  18.194  0.00  0.00    +0.000 C 
ATOM      3  O   UNL     1       2.337   8.730  17.043  0.00  0.00    +0.000 OA
ATOM      4  H   UNL     1       1.754   7.101  19.720  0.00  0.00    +0.000 HD
ENDROOT
BRANCH   1   9
ATOM      5  C   UNL     1       4.641   4.910  17.164  0.00  0.00    +0.000 A 
ATOM      6  C   UNL     1       3.864   3.751  17.026  0.00  0.00    +0.000 A 
ATOM      7  C   UNL     1       2.540   3.725  17.449  0.00  0.00    +0.000 A 
ATOM      8  C   UNL     1       1.970   4.856  18.023  0.00  0.00    +0.000 A 
ATOM      9  C   UNL     1       2.711   6.028  18.191  0.00  0.00    +0.000 A 
ATOM     10  C   UNL     1       4.042   6.054  17.742  0.00  0.00    +0.000 A 
BRANCH   5  12
ATOM     11  C   UNL     1       7.115   4.660  17.773  0.00  0.00    +0.000 C 
ATOM     12  C   UNL     1       6.088   4.965  16.665  0.00  0.00    +0.000 C 
BRANCH  12  13
ATOM     13  C   UNL     1       6.241   4.005  15.465  0.00  0.00    +0.000 C 
BRANCH  13  14
ATOM     14  C   UNL     1       6.981   4.609  14.317  0.00  0.00    +0.000 A 
ATOM     15  N   UNL     1       7.910   5.541  14.388  0.00  0.00    +0.000 NA
ATOM     16  N   UNL     1       8.343   5.813  13.110  0.00  0.00    +0.000 NA
ATOM     17  C   UNL     1       7.667   5.046  12.288  0.00  0.00    +0.000 A 
ATOM     18  N   UNL     1       6.799   4.277  13.000  0.00  0.00    +0.000 N 
ATOM     19  C   UNL     1       5.884   3.308  12.458  0.00  0.00    +0.000 C 
ENDBRANCH  13  14
ENDBRANCH  12  13
ENDBRANCH   5  12
ENDBRANCH   1   9
BRANCH   2  20
ATOM     20  C   UNL     1       1.411   9.479  19.053  0.00  0.00    +0.000 A 
ATOM     21  C   UNL     1       1.524  10.810  18.691  0.00  0.00    +0.000 A 
ATOM     22  C   UNL     1       0.885  11.741  19.493  0.00  0.00    +0.000 A 
ATOM     23  C   UNL     1       0.197  11.332  20.637  0.00  0.00    +0.000 A 
ATOM     24  C   UNL     1       0.137   9.973  20.944  0.00  0.00    +0.000 A 
ATOM     25  N   UNL     1       0.734   9.048  20.150  0.00  0.00    +0.000 NA
BRANCH  22  26
ATOM     26  S   UNL     1       1.026  13.464  19.102  0.00  0.00    +0.000 S 
ATOM     27  C   UNL     1       2.469  13.555  18.074  0.00  0.00    +0.000 C 
ATOM     28  O   UNL     1      -0.127  13.813  18.294  0.00  0.00    +0.000 OA
ATOM     29  O   UNL     1       1.304  14.163  20.339  0.00  0.00    +0.000 OA
ENDBRANCH  22  26
BRANCH  24  30
ATOM     30  C   UNL     1      -0.569   9.477  22.180  0.00  0.00    +0.000 C 
ATOM     31  C   UNL     1       0.092   9.514  23.537  0.00  0.00    +0.000 C 
ATOM     32  C   UNL     1      -1.002  10.489  23.220  0.00  0.00    +0.000 C 
ENDBRANCH  24  30
ENDBRANCH   2  20
TORSDOF 7
ENDMDL
MODEL 4
REMARK VINA RESULT:      -8.9      3.668      9.330
REMARK  Name = 
REMARK  10 active torsions:
REMARK  status: ('A' for Active; 'I' for Inactive)
REMARK    1  A    between atoms: C_1  and  C_2
REMARK    2  A    between atoms: C_2  and  C_3
REMARK    3  A    between atoms: C_2  and  C_10
REMARK    4  A    between atoms: C_3  and  C_4
REMARK    5  A    between atoms: N_8  and  C_9
REMARK    6  A    between atoms: C_14  and  N_15
REMARK    7  A    between atoms: C_16  and  C_18
REMARK    8  A    between atoms: C_20  and  S_21
REMARK    9  A    between atoms: S_21  and  C_22
REMARK   10  A    between atoms: C_26  and  C_27
REMARK                            x       y       z     vdW  Elec       q    Type
REMARK                         _______ _______ _______ _____ _____    ______ ____
ROOT
ATOM      1  N   UNL     1       2.109   7.471  19.827  0.00  0.00    +0.000 N 
ATOM      2  C   UNL     1       2.654   7.503  18.548  0.00  0.00    +0.000 C 
ATOM      3  O   UNL     1       2.604   8.437  17.754  0.00  0.00    +0.000 OA
ATOM      4  H   UNL     1       2.342   6.647  20.377  0.00  0.00    +0.000 HD
ENDROOT
BRANCH   1   9
ATOM      5  C   UNL     1      -0.138  10.432  20.204  0.00  0.00    +0.000 A 
ATOM      6  C   UNL     1      -0.174  10.540  21.602  0.00  0.00    +0.000 A 
ATOM      7  C   UNL     1       0.542   9.661  22.405  0.00  0.00    +0.000 A 
ATOM      8  C   UNL     1       1.305   8.652  21.825  0.00  0.00    +0.000 A 
ATOM      9  C   UNL     1       1.359   8.499  20.438  0.00  0.00    +0.000 A 
ATOM     10  C   UNL     1       0.649   9.405  19.632  0.00  0.00    +0.000 A 
BRANCH   5  12
ATOM     11  C   UNL     1       0.012  12.552  18.777  0.00  0.00    +0.000 C 
ATOM     12  C   UNL     1      -0.890  11.420  19.308  0.00  0.00    +0.000 C 
BRANCH  12  13
ATOM     13  C   UNL     1      -1.564  10.641  18.158  0.00  0.00    +0.000 C 
BRANCH  13  14
ATOM     14  C   UNL     1      -2.936  11.135  17.835  0.00  0.00    +0.000 A 
ATOM     15  N   UNL     1      -3.810  11.629  18.688  0.00  0.00    +0.000 NA
ATOM     16  N   UNL     1      -4.945  11.974  17.988  0.00  0.00    +0.000 NA
ATOM     17  C   UNL     1      -4.741  11.678  16.727  0.00  0.00    +0.000 A 
ATOM     18  N   UNL     1      -3.496  11.147  16.584  0.00  0.00    +0.000 N 
ATOM     19  C   UNL     1      -2.902  10.698  15.353  0.00  0.00    +0.000 C 
ENDBRANCH  13  14
ENDBRANCH  12  13
ENDBRANCH   5  12
ENDBRANCH   1   9
BRANCH   2  20
ATOM     20  C   UNL     1       3.403   6.278  18.151  0.00  0.00    +0.000 A 
ATOM     21  C   UNL     1       3.225   5.109  18.869  0.00  0.00    +0.000 A 
ATOM     22  C   UNL     1       3.902   3.985  18.426  0.00  0.00    +0.000 A 
ATOM     23  C   UNL     1       4.755   4.063  17.323  0.00  0.00    +0.000 A 
ATOM     24  C   UNL     1       4.891   5.280  16.656  0.00  0.00    +0.000 A 
ATOM     25  N   UNL     1       4.211   6.383  17.063  0.00  0.00    +0.000 NA
BRANCH  22  26
ATOM     26  S   UNL     1       3.745   2.467  19.328  0.00  0.00    +0.000 S 
ATOM     27  C   UNL     1       2.307   2.713  20.337  0.00  0.00    +0.000 C 
ATOM     28  O   UNL     1       3.447   1.426  18.362  0.00  0.00    +0.000 OA
ATOM     29  O   UNL     1       4.898   2.363  20.197  0.00  0.00    +0.000 OA
ENDBRANCH  22  26
BRANCH  24  30
ATOM     30  C   UNL     1       5.817   5.430  15.476  0.00  0.00    +0.000 C 
ATOM     31  C   UNL     1       6.938   4.452  15.221  0.00  0.00    +0.000 C 
ATOM     32  C   UNL     1       5.719   4.423  14.349  0.00  0.00    +0.000 C 
ENDBRANCH  24  30
ENDBRANCH   2  20
TORSDOF 7
ENDMDL
MODEL 5
REMARK VINA RESULT:      -8.8      4.442     10.186
REMARK  Name = 
REMARK  10 active torsions:
REMARK  status: ('A' for Active; 'I' for Inactive)
REMARK    1  A    between atoms: C_1  and  C_2
REMARK    2  A    between atoms: C_2  and  C_3
REMARK    3  A    between atoms: C_2  and  C_10
REMARK    4  A    between atoms: C_3  and  C_4
REMARK    5  A    between atoms: N_8  and  C_9
REMARK    6  A    between atoms: C_14  and  N_15
REMARK    7  A    between atoms: C_16  and  C_18
REMARK    8  A    between atoms: C_20  and  S_21
REMARK    9  A    between atoms: S_21  and  C_22
REMARK   10  A    between atoms: C_26  and  C_27
REMARK                            x       y       z     vdW  Elec       q    Type
REMARK                         _______ _______ _______ _____ _____    ______ ____
ROOT
ATOM      1  N   UNL     1       1.347   8.658  18.881  0.00  0.00    +0.000 N 
ATOM      2  C   UNL     1       2.353   8.345  17.974  0.00  0.00    +0.000 C 
ATOM      3  O   UNL     1       2.703   9.014  17.006  0.00  0.00    +0.000 OA
ATOM      4  H   UNL     1       1.272   8.031  19.679  0.00  0.00    +0.000 HD
ENDROOT
BRANCH   1   9
ATOM      5  C   UNL     1      -1.513  10.877  17.956  0.00  0.00    +0.000 A 
ATOM      6  C   UNL     1      -1.211  12.008  18.728  0.00  0.00    +0.000 A 
ATOM      7  C   UNL     1      -0.075  12.043  19.528  0.00  0.00    +0.000 A 
ATOM      8  C   UNL     1       0.778  10.945  19.575  0.00  0.00    +0.000 A 
ATOM      9  C   UNL     1       0.508   9.793  18.833  0.00  0.00    +0.000 A 
ATOM     10  C   UNL     1      -0.631   9.773  18.011  0.00  0.00    +0.000 A 
BRANCH   5  12
ATOM     11  C   UNL     1      -2.513  10.000  15.768  0.00  0.00    +0.000 C 
ATOM     12  C   UNL     1      -2.740  10.842  17.040  0.00  0.00    +0.000 C 
BRANCH  12  13
ATOM     13  C   UNL     1      -3.956  10.338  17.847  0.00  0.00    +0.000 C 
BRANCH  13  14
ATOM     14  C   UNL     1      -5.163  11.205  17.700  0.00  0.00    +0.000 A 
ATOM     15  N   UNL     1      -5.257  12.296  16.966  0.00  0.00    +0.000 NA
ATOM     16  N   UNL     1      -6.535  12.791  17.098  0.00  0.00    +0.000 NA
ATOM     17  C   UNL     1      -7.189  11.997  17.911  0.00  0.00    +0.000 A 
ATOM     18  N   UNL     1      -6.368  10.990  18.317  0.00  0.00    +0.000 N 
ATOM     19  C   UNL     1      -6.716   9.920  19.212  0.00  0.00    +0.000 C 
ENDBRANCH  13  14
ENDBRANCH  12  13
ENDBRANCH   5  12
ENDBRANCH   1   9
BRANCH   2  20
ATOM     20  C   UNL     1       3.090   7.082  18.261  0.00  0.00    +0.000 A 
ATOM     21  C   UNL     1       4.327   6.870  17.679  0.00  0.00    +0.000 A 
ATOM     22  C   UNL     1       4.996   5.706  18.020  0.00  0.00    +0.000 A 
ATOM     23  C   UNL     1       4.407   4.782  18.886  0.00  0.00    +0.000 A 
ATOM     24  C   UNL     1       3.152   5.061  19.425  0.00  0.00    +0.000 A 
ATOM     25  N   UNL     1       2.499   6.212  19.121  0.00  0.00    +0.000 NA
BRANCH  22  26
ATOM     26  S   UNL     1       6.567   5.358  17.277  0.00  0.00    +0.000 S 
ATOM     27  C   UNL     1       6.178   4.242  15.953  0.00  0.00    +0.000 C 
ATOM     28  O   UNL     1       7.047   6.598  16.696  0.00  0.00    +0.000 OA
ATOM     29  O   UNL     1       7.357   4.643  18.257  0.00  0.00    +0.000 OA
ENDBRANCH  22  26
BRANCH  24  30
ATOM     30  C   UNL     1       2.457   4.089  20.345  0.00  0.00    +0.000 C 
ATOM     31  C   UNL     1       0.973   4.174  20.609  0.00  0.00    +0.000 C 
ATOM     32  C   UNL     1       1.508   3.076  19.740  0.00  0.00    +0.000 C 
ENDBRANCH  24  30
ENDBRANCH   2  20
TORSDOF 7
ENDMDL
MODEL 6
REMARK VINA RESULT:      -8.7      3.688      9.679
REMARK  Name = 
REMARK  10 active torsions:
REMARK  status: ('A' for Active; 'I' for Inactive)
REMARK    1  A    between atoms: C_1  and  C_2
REMARK    2  A    between atoms: C_2  and  C_3
REMARK    3  A    between atoms: C_2  and  C_10
REMARK    4  A    between atoms: C_3  and  C_4
REMARK    5  A    between atoms: N_8  and  C_9
REMARK    6  A    between atoms: C_14  and  N_15
REMARK    7  A    between atoms: C_16  and  C_18
REMARK    8  A    between atoms: C_20  and  S_21
REMARK    9  A    between atoms: S_21  and  C_22
REMARK   10  A    between atoms: C_26  and  C_27
REMARK                            x       y       z     vdW  Elec       q    Type
REMARK                         _______ _______ _______ _____ _____    ______ ____
ROOT
ATOM      1  N   UNL     1       1.875   7.687  20.263  0.00  0.00    +0.000 N 
ATOM      2  C   UNL     1       2.349   7.652  18.957  0.00  0.00    +0.000 C 
ATOM      3  O   UNL     1       2.194   8.515  18.097  0.00  0.00    +0.000 OA
ATOM      4  H   UNL     1       2.193   6.926  20.860  0.00  0.00    +0.000 HD
ENDROOT
BRANCH   1   9
ATOM      5  C   UNL     1      -0.391  10.646  20.526  0.00  0.00    +0.000 A 
ATOM      6  C   UNL     1      -0.517  10.739  21.920  0.00  0.00    +0.000 A 
ATOM      7  C   UNL     1       0.145   9.850  22.757  0.00  0.00    +0.000 A 
ATOM      8  C   UNL     1       0.944   8.848  22.217  0.00  0.00    +0.000 A 
ATOM      9  C   UNL     1       1.088   8.710  20.835  0.00  0.00    +0.000 A 
ATOM     10  C   UNL     1       0.431   9.624  19.995  0.00  0.00    +0.000 A 
BRANCH   5  12
ATOM     11  C   UNL     1      -0.187  12.844  19.229  0.00  0.00    +0.000 C 
ATOM     12  C   UNL     1      -1.083  11.644  19.593  0.00  0.00    +0.000 C 
BRANCH  12  13
ATOM     13  C   UNL     1      -1.576  10.897  18.335  0.00  0.00    +0.000 C 
BRANCH  13  14
ATOM     14  C   UNL     1      -2.964  11.271  17.931  0.00  0.00    +0.000 A 
ATOM     15  N   UNL     1      -3.883  11.816  18.703  0.00  0.00    +0.000 NA
ATOM     16  N   UNL     1      -5.017  12.010  17.947  0.00  0.00    +0.000 NA
ATOM     17  C   UNL     1      -4.768  11.575  16.736  0.00  0.00    +0.000 A 
ATOM     18  N   UNL     1      -3.494  11.101  16.679  0.00  0.00    +0.000 N 
ATOM     19  C   UNL     1      -2.849  10.539  15.523  0.00  0.00    +0.000 C 
ENDBRANCH  13  14
ENDBRANCH  12  13
ENDBRANCH   5  12
ENDBRANCH   1   9
BRANCH   2  20
ATOM     20  C   UNL     1       3.161   6.451  18.611  0.00  0.00    +0.000 A 
ATOM     21  C   UNL     1       4.132   6.546  17.631  0.00  0.00    +0.000 A 
ATOM     22  C   UNL     1       4.896   5.417  17.385  0.00  0.00    +0.000 A 
ATOM     23  C   UNL     1       4.649   4.233  18.083  0.00  0.00    +0.000 A 
ATOM     24  C   UNL     1       3.645   4.212  19.050  0.00  0.00    +0.000 A 
ATOM     25  N   UNL     1       2.908   5.320  19.320  0.00  0.00    +0.000 NA
BRANCH  22  26
ATOM     26  S   UNL     1       6.130   5.464  16.113  0.00  0.00    +0.000 S 
ATOM     27  C   UNL     1       6.094   3.831  15.420  0.00  0.00    +0.000 C 
ATOM     28  O   UNL     1       5.664   6.394  15.102  0.00  0.00    +0.000 OA
ATOM     29  O   UNL     1       7.409   5.654  16.763  0.00  0.00    +0.000 OA
ENDBRANCH  22  26
BRANCH  24  30
ATOM     30  C   UNL     1       3.317   2.955  19.815  0.00  0.00    +0.000 C 
ATOM     31  C   UNL     1       2.058   2.837  20.641  0.00  0.00    +0.000 C 
ATOM     32  C   UNL     1       2.161   2.100  19.340  0.00  0.00    +0.000 C 
ENDBRANCH  24  30
ENDBRANCH   2  20
TORSDOF 7
ENDMDL
MODEL 7
REMARK VINA RESULT:      -8.7      3.715      9.627
REMARK  Name = 
REMARK  10 active torsions:
REMARK  status: ('A' for Active; 'I' for Inactive)
REMARK    1  A    between atoms: C_1  and  C_2
REMARK    2  A    between atoms: C_2  and  C_3
REMARK    3  A    between atoms: C_2  and  C_10
REMARK    4  A    between atoms: C_3  and  C_4
REMARK    5  A    between atoms: N_8  and  C_9
REMARK    6  A    between atoms: C_14  and  N_15
REMARK    7  A    between atoms: C_16  and  C_18
REMARK    8  A    between atoms: C_20  and  S_21
REMARK    9  A    between atoms: S_21  and  C_22
REMARK   10  A    between atoms: C_26  and  C_27
REMARK                            x       y       z     vdW  Elec       q    Type
REMARK                         _______ _______ _______ _____ _____    ______ ____
ROOT
ATOM      1  N   UNL     1       2.088   7.626  19.722  0.00  0.00    +0.000 N 
ATOM      2  C   UNL     1       2.471   7.646  18.386  0.00  0.00    +0.000 C 
ATOM      3  O   UNL     1       2.239   8.534  17.570  0.00  0.00    +0.000 OA
ATOM      4  H   UNL     1       2.462   6.853  20.269  0.00  0.00    +0.000 HD
ENDROOT
BRANCH   1   9
ATOM      5  C   UNL     1       0.044  10.705  20.272  0.00  0.00    +0.000 A 
ATOM      6  C   UNL     1      -0.235  10.578  21.640  0.00  0.00    +0.000 A 
ATOM      7  C   UNL     1       0.255   9.502  22.371  0.00  0.00    +0.000 A 
ATOM      8  C   UNL     1       1.030   8.531  21.747  0.00  0.00    +0.000 A 
ATOM      9  C   UNL     1       1.322   8.611  20.383  0.00  0.00    +0.000 A 
ATOM     10  C   UNL     1       0.840   9.712  19.655  0.00  0.00    +0.000 A 
BRANCH   5  12
ATOM     11  C   UNL     1       0.660  12.923  19.150  0.00  0.00    +0.000 C 
ATOM     12  C   UNL     1      -0.456  11.906  19.464  0.00  0.00    +0.000 C 
BRANCH  12  13
ATOM     13  C   UNL     1      -1.141  11.397  18.178  0.00  0.00    +0.000 C 
BRANCH  13  14
ATOM     14  C   UNL     1      -2.632  11.440  18.246  0.00  0.00    +0.000 A 
ATOM     15  N   UNL     1      -3.356  12.109  19.121  0.00  0.00    +0.000 NA
ATOM     16  N   UNL     1      -4.685  11.891  18.834  0.00  0.00    +0.000 NA
ATOM     17  C   UNL     1      -4.742  11.092  17.796  0.00  0.00    +0.000 A 
ATOM     18  N   UNL     1      -3.480  10.780  17.395  0.00  0.00    +0.000 N 
ATOM     19  C   UNL     1      -3.127   9.929  16.291  0.00  0.00    +0.000 C 
ENDBRANCH  13  14
ENDBRANCH  12  13
ENDBRANCH   5  12
ENDBRANCH   1   9
BRANCH   2  20
ATOM     20  C   UNL     1       3.281   6.476  17.944  0.00  0.00    +0.000 A 
ATOM     21  C   UNL     1       4.619   6.651  17.641  0.00  0.00    +0.000 A 
ATOM     22  C   UNL     1       5.341   5.523  17.288  0.00  0.00    +0.000 A 
ATOM     23  C   UNL     1       4.712   4.279  17.208  0.00  0.00    +0.000 A 
ATOM     24  C   UNL     1       3.356   4.184  17.519  0.00  0.00    +0.000 A 
ATOM     25  N   UNL     1       2.643   5.277  17.894  0.00  0.00    +0.000 NA
BRANCH  22  26
ATOM     26  S   UNL     1       7.051   5.689  16.850  0.00  0.00    +0.000 S 
ATOM     27  C   UNL     1       7.523   7.250  17.548  0.00  0.00    +0.000 C 
ATOM     28  O   UNL     1       7.773   4.644  17.550  0.00  0.00    +0.000 OA
ATOM     29  O   UNL     1       7.116   5.798  15.408  0.00  0.00    +0.000 OA
ENDBRANCH  22  26
BRANCH  24  30
ATOM     30  C   UNL     1       2.618   2.872  17.426  0.00  0.00    +0.000 C 
ATOM     31  C   UNL     1       2.998   1.689  18.283  0.00  0.00    +0.000 C 
ATOM     32  C   UNL     1       1.744   2.451  18.588  0.00  0.00    +0.000 C 
ENDBRANCH  24  30
ENDBRANCH   2  20
TORSDOF 7
ENDMDL
MODEL 8
REMARK VINA RESULT:      -8.5      4.251     10.502
REMARK  Name = 
REMARK  10 active torsions:
REMARK  status: ('A' for Active; 'I' for Inactive)
REMARK    1  A    between atoms: C_1  and  C_2
REMARK    2  A    between atoms: C_2  and  C_3
REMARK    3  A    between atoms: C_2  and  C_10
REMARK    4  A    between atoms: C_3  and  C_4
REMARK    5  A    between atoms: N_8  and  C_9
REMARK    6  A    between atoms: C_14  and  N_15
REMARK    7  A    between atoms: C_16  and  C_18
REMARK    8  A    between atoms: C_20  and  S_21
REMARK    9  A    between atoms: S_21  and  C_22
REMARK   10  A    between atoms: C_26  and  C_27
REMARK                            x       y       z     vdW  Elec       q    Type
REMARK                         _______ _______ _______ _____ _____    ______ ____
ROOT
ATOM      1  N   UNL     1       1.810   8.546  17.806  0.00  0.00    +0.000 N 
ATOM      2  C   UNL     1       2.313   7.645  18.737  0.00  0.00    +0.000 C 
ATOM      3  O   UNL     1       2.159   7.685  19.955  0.00  0.00    +0.000 OA
ATOM      4  H   UNL     1       1.956   8.289  16.832  0.00  0.00    +0.000 HD
ENDROOT
BRANCH   1   9
ATOM      5  C   UNL     1      -1.111  10.858  18.084  0.00  0.00    +0.000 A 
ATOM      6  C   UNL     1      -0.494  11.970  18.675  0.00  0.00    +0.000 A 
ATOM      7  C   UNL     1       0.866  11.961  18.963  0.00  0.00    +0.000 A 
ATOM      8  C   UNL     1       1.633  10.839  18.670  0.00  0.00    +0.000 A 
ATOM      9  C   UNL     1       1.057   9.705  18.093  0.00  0.00    +0.000 A 
ATOM     10  C   UNL     1      -0.314   9.728  17.786  0.00  0.00    +0.000 A 
BRANCH   5  12
ATOM     11  C   UNL     1      -3.210   9.456  17.651  0.00  0.00    +0.000 C 
ATOM     12  C   UNL     1      -2.600  10.870  17.724  0.00  0.00    +0.000 C 
BRANCH  12  13
ATOM     13  C   UNL     1      -3.353  11.764  18.733  0.00  0.00    +0.000 C 
BRANCH  13  14
ATOM     14  C   UNL     1      -4.772  12.025  18.348  0.00  0.00    +0.000 A 
ATOM     15  N   UNL     1      -5.235  12.170  17.122  0.00  0.00    +0.000 NA
ATOM     16  N   UNL     1      -6.593  12.386  17.201  0.00  0.00    +0.000 NA
ATOM     17  C   UNL     1      -6.926  12.373  18.469  0.00  0.00    +0.000 A 
ATOM     18  N   UNL     1      -5.817  12.153  19.225  0.00  0.00    +0.000 N 
ATOM     19  C   UNL     1      -5.772  12.070  20.661  0.00  0.00    +0.000 C 
ENDBRANCH  13  14
ENDBRANCH  12  13
ENDBRANCH   5  12
ENDBRANCH   1   9
BRANCH   2  20
ATOM     20  C   UNL     1       3.077   6.502  18.161  0.00  0.00    +0.000 A 
ATOM     21  C   UNL     1       4.378   6.700  17.736  0.00  0.00    +0.000 A 
ATOM     22  C   UNL     1       5.063   5.595  17.259  0.00  0.00    +0.000 A 
ATOM     23  C   UNL     1       4.431   4.352  17.181  0.00  0.00    +0.000 A 
ATOM     24  C   UNL     1       3.112   4.233  17.620  0.00  0.00    +0.000 A 
ATOM     25  N   UNL     1       2.439   5.303  18.116  0.00  0.00    +0.000 NA
BRANCH  22  26
ATOM     26  S   UNL     1       6.721   5.792  16.662  0.00  0.00    +0.000 S 
ATOM     27  C   UNL     1       7.248   7.335  17.361  0.00  0.00    +0.000 C 
ATOM     28  O   UNL     1       7.515   4.733  17.254  0.00  0.00    +0.000 OA
ATOM     29  O   UNL     1       6.644   5.947  15.225  0.00  0.00    +0.000 OA
ENDBRANCH  22  26
BRANCH  24  30
ATOM     30  C   UNL     1       2.371   2.923  17.536  0.00  0.00    +0.000 C 
ATOM     31  C   UNL     1       2.958   1.646  18.088  0.00  0.00    +0.000 C 
ATOM     32  C   UNL     1       1.831   2.316  18.814  0.00  0.00    +0.000 C 
ENDBRANCH  24  30
ENDBRANCH   2  20
TORSDOF 7
ENDMDL
MODEL 9
REMARK VINA RESULT:      -8.5      3.881     10.748
REMARK  Name = 
REMARK  10 active torsions:
REMARK  status: ('A' for Active; 'I' for Inactive)
REMARK    1  A    between atoms: C_1  and  C_2
REMARK    2  A    between atoms: C_2  and  C_3
REMARK    3  A    between atoms: C_2  and  C_10
REMARK    4  A    between atoms: C_3  and  C_4
REMARK    5  A    between atoms: N_8  and  C_9
REMARK    6  A    between atoms: C_14  and  N_15
REMARK    7  A    between atoms: C_16  and  C_18
REMARK    8  A    between atoms: C_20  and  S_21
REMARK    9  A    between atoms: S_21  and  C_22
REMARK   10  A    between atoms: C_26  and  C_27
REMARK                            x       y       z     vdW  Elec       q    Type
REMARK                         _______ _______ _______ _____ _____    ______ ____
ROOT
ATOM      1  N   UNL     1       1.827   8.164  19.025  0.00  0.00    +0.000 N 
ATOM      2  C   UNL     1       2.636   8.061  17.899  0.00  0.00    +0.000 C 
ATOM      3  O   UNL     1       2.778   8.904  17.019  0.00  0.00    +0.000 OA
ATOM      4  H   UNL     1       1.920   7.403  19.696  0.00  0.00    +0.000 HD
ENDROOT
BRANCH   1   9
ATOM      5  C   UNL     1      -0.356  10.445  21.022  0.00  0.00    +0.000 A 
ATOM      6  C   UNL     1      -0.668  11.405  20.049  0.00  0.00    +0.000 A 
ATOM      7  C   UNL     1      -0.178  11.294  18.754  0.00  0.00    +0.000 A 
ATOM      8  C   UNL     1       0.638  10.222  18.407  0.00  0.00    +0.000 A 
ATOM      9  C   UNL     1       0.984   9.249  19.347  0.00  0.00    +0.000 A 
ATOM     10  C   UNL     1       0.468   9.357  20.650  0.00  0.00    +0.000 A 
BRANCH   5  12
ATOM     11  C   UNL     1      -0.141   9.674  23.454  0.00  0.00    +0.000 C 
ATOM     12  C   UNL     1      -0.923  10.534  22.442  0.00  0.00    +0.000 C 
BRANCH  12  13
ATOM     13  C   UNL     1      -0.971  12.017  22.870  0.00  0.00    +0.000 C 
BRANCH  13  14
ATOM     14  C   UNL     1      -2.317  12.449  23.353  0.00  0.00    +0.000 A 
ATOM     15  N   UNL     1      -3.309  11.659  23.712  0.00  0.00    +0.000 NA
ATOM     16  N   UNL     1      -4.367  12.450  24.100  0.00  0.00    +0.000 NA
ATOM     17  C   UNL     1      -4.000  13.702  23.965  0.00  0.00    +0.000 A 
ATOM     18  N   UNL     1      -2.723  13.750  23.497  0.00  0.00    +0.000 N 
ATOM     19  C   UNL     1      -1.966  14.941  23.219  0.00  0.00    +0.000 C 
ENDBRANCH  13  14
ENDBRANCH  12  13
ENDBRANCH   5  12
ENDBRANCH   1   9
BRANCH   2  20
ATOM     20  C   UNL     1       3.429   6.802  17.805  0.00  0.00    +0.000 A 
ATOM     21  C   UNL     1       4.803   6.874  17.656  0.00  0.00    +0.000 A 
ATOM     22  C   UNL     1       5.499   5.677  17.628  0.00  0.00    +0.000 A 
ATOM     23  C   UNL     1       4.817   4.461  17.707  0.00  0.00    +0.000 A 
ATOM     24  C   UNL     1       3.429   4.470  17.845  0.00  0.00    +0.000 A 
ATOM     25  N   UNL     1       2.737   5.637  17.902  0.00  0.00    +0.000 NA
BRANCH  22  26
ATOM     26  S   UNL     1       7.257   5.702  17.401  0.00  0.00    +0.000 S 
ATOM     27  C   UNL     1       7.892   6.126  19.002  0.00  0.00    +0.000 C 
ATOM     28  O   UNL     1       7.666   4.344  17.097  0.00  0.00    +0.000 OA
ATOM     29  O   UNL     1       7.557   6.788  16.491  0.00  0.00    +0.000 OA
ENDBRANCH  22  26
BRANCH  24  30
ATOM     30  C   UNL     1       2.638   3.188  17.908  0.00  0.00    +0.000 C 
ATOM     31  C   UNL     1       3.317   1.844  18.022  0.00  0.00    +0.000 C 
ATOM     32  C   UNL     1       2.612   2.419  19.213  0.00  0.00    +0.000 C 
ENDBRANCH  24  30
ENDBRANCH   2  20
TORSDOF 7
ENDMDL
