MODEL 1
REMARK VINA RESULT:      -8.8      0.000      0.000
REMARK  Name = 
REMARK  9 active torsions:
REMARK  status: ('A' for Active; 'I' for Inactive)
REMARK    1  A    between atoms: C_1  and  C_2
REMARK    2  A    between atoms: C_2  and  S_3
REMARK    3  A    between atoms: C_2  and  C_10
REMARK    4  A    between atoms: S_3  and  C_4
REMARK    5  A    between atoms: N_8  and  C_9
REMARK    6  A    between atoms: C_14  and  C_15
REMARK    7  A    between atoms: C_17  and  C_18
REMARK    8  A    between atoms: C_21  and  S_22
REMARK    9  A    between atoms: S_22  and  C_23
REMARK                            x       y       z     vdW  Elec       q    Type
REMARK                         _______ _______ _______ _____ _____    ______ ____
ROOT
ATOM      1  C   UNL     1       4.666   4.876  16.831  0.00  0.00    +0.000 A 
ATOM      2  C   UNL     1       5.225   4.254  15.702  0.00  0.00    +0.000 A 
ATOM      3  C   UNL     1       6.502   4.580  15.256  0.00  0.00    +0.000 A 
ATOM      4  C   UNL     1       7.232   5.574  15.908  0.00  0.00    +0.000 A 
ATOM      5  C   UNL     1       6.674   6.288  16.978  0.00  0.00    +0.000 A 
ATOM      6  C   UNL     1       5.392   5.927  17.428  0.00  0.00    +0.000 A 
ENDROOT
BRANCH   5   7
ATOM      7  C   UNL     1       7.444   7.354  17.606  0.00  0.00    +0.000 A 
ATOM      8  C   UNL     1       7.609   8.696  17.362  0.00  0.00    +0.000 A 
ATOM      9  C   UNL     1       8.511   9.153  18.356  0.00  0.00    +0.000 A 
ATOM     10  N   UNL     1       8.858   8.143  19.165  0.00  0.00    +0.000 NA
ATOM     11  O   UNL     1       8.197   7.024  18.692  0.00  0.00    +0.000 OA
BRANCH   9  12
ATOM     12  C   UNL     1       9.034  10.506  18.532  0.00  0.00    +0.000 A 
ATOM     13  C   UNL     1       8.579  11.557  17.720  0.00  0.00    +0.000 A 
ATOM     14  C   UNL     1       9.079  12.851  17.885  0.00  0.00    +0.000 A 
ATOM     15  C   UNL     1      10.028  13.095  18.879  0.00  0.00    +0.000 A 
ATOM     16  C   UNL     1      10.503  12.062  19.688  0.00  0.00    +0.000 A 
ATOM     17  C   UNL     1      10.001  10.768  19.516  0.00  0.00    +0.000 A 
BRANCH  15  18
ATOM     18  S   UNL     1      10.662  14.737  19.109  0.00  0.00    +0.000 S 
ATOM     19  C   UNL     1      10.587  15.423  17.474  0.00  0.00    +0.000 C 
ATOM     20  O   UNL     1       9.719  15.454  19.943  0.00  0.00    +0.000 OA
ATOM     21  O   UNL     1      12.058  14.620  19.489  0.00  0.00    +0.000 OA
ENDBRANCH  15  18
ENDBRANCH   9  12
ENDBRANCH   5   7
BRANCH   1  23
ATOM     22  C   UNL     1       2.726   5.337  18.439  0.00  0.00    +0.000 C 
ATOM     23  C   UNL     1       3.394   4.348  17.479  0.00  0.00    +0.000 C 
BRANCH  23  24
ATOM     24  S   UNL     1       3.469   2.669  18.172  0.00  0.00    +0.000 S 
BRANCH  24  25
ATOM     25  C   UNL     1       2.816   2.788  19.763  0.00  0.00    +0.000 A 
ATOM     26  N   UNL     1       3.462   2.951  20.893  0.00  0.00    +0.000 NA
ATOM     27  N   UNL     1       2.569   2.753  21.924  0.00  0.00    +0.000 NA
ATOM     28  C   UNL     1       1.399   2.490  21.387  0.00  0.00    +0.000 A 
ATOM     29  N   UNL     1       1.487   2.610  20.032  0.00  0.00    +0.000 N 
ATOM     30  C   UNL     1       0.374   2.624  19.121  0.00  0.00    +0.000 C 
ENDBRANCH  24  25
ENDBRANCH  23  24
ENDBRANCH   1  23
TORSDOF 6
ENDMDL
MODEL 2
REMARK VINA RESULT:      -8.7      1.055      1.430
REMARK  Name = 
REMARK  9 active torsions:
REMARK  status: ('A' for Active; 'I' for Inactive)
REMARK    1  A    between atoms: C_1  and  C_2
REMARK    2  A    between atoms: C_2  and  S_3
REMARK    3  A    between atoms: C_2  and  C_10
REMARK    4  A    between atoms: S_3  and  C_4
REMARK    5  A    between atoms: N_8  and  C_9
REMARK    6  A    between atoms: C_14  and  C_15
REMARK    7  A    between atoms: C_17  and  C_18
REMARK    8  A    between atoms: C_21  and  S_22
REMARK    9  A    between atoms: S_22  and  C_23
REMARK                            x       y       z     vdW  Elec       q    Type
REMARK                         _______ _______ _______ _____ _____    ______ ____
ROOT
ATOM      1  C   UNL     1       4.089   5.624  17.452  0.00  0.00    +0.000 A 
ATOM      2  C   UNL     1       4.589   4.573  16.666  0.00  0.00    +0.000 A 
ATOM      3  C   UNL     1       5.941   4.493  16.345  0.00  0.00    +0.000 A 
ATOM      4  C   UNL     1       6.816   5.494  16.768  0.00  0.00    +0.000 A 
ATOM      5  C   UNL     1       6.340   6.611  17.471  0.00  0.00    +0.000 A 
ATOM      6  C   UNL     1       4.976   6.661  17.806  0.00  0.00    +0.000 A 
ENDROOT
BRANCH   5   7
ATOM      7  C   UNL     1       7.273   7.664  17.855  0.00  0.00    +0.000 A 
ATOM      8  C   UNL     1       7.412   8.992  17.534  0.00  0.00    +0.000 A 
ATOM      9  C   UNL     1       8.543   9.441  18.262  0.00  0.00    +0.000 A 
ATOM     10  N   UNL     1       9.048   8.438  18.996  0.00  0.00    +0.000 NA
ATOM     11  O   UNL     1       8.258   7.333  18.735  0.00  0.00    +0.000 OA
BRANCH   9  12
ATOM     12  C   UNL     1       9.133  10.777  18.260  0.00  0.00    +0.000 A 
ATOM     13  C   UNL     1       8.476  11.844  17.629  0.00  0.00    +0.000 A 
ATOM     14  C   UNL     1       9.040  13.123  17.623  0.00  0.00    +0.000 A 
ATOM     15  C   UNL     1      10.259  13.335  18.267  0.00  0.00    +0.000 A 
ATOM     16  C   UNL     1      10.936  12.284  18.889  0.00  0.00    +0.000 A 
ATOM     17  C   UNL     1      10.368  11.006  18.888  0.00  0.00    +0.000 A 
BRANCH  15  18
ATOM     18  S   UNL     1      10.980  14.957  18.280  0.00  0.00    +0.000 S 
ATOM     19  C   UNL     1       9.580  16.011  18.567  0.00  0.00    +0.000 C 
ATOM     20  O   UNL     1      11.849  15.037  19.436  0.00  0.00    +0.000 OA
ATOM     21  O   UNL     1      11.484  15.225  16.945  0.00  0.00    +0.000 OA
ENDBRANCH  15  18
ENDBRANCH   9  12
ENDBRANCH   5   7
BRANCH   1  23
ATOM     22  C   UNL     1       2.536   6.280  19.381  0.00  0.00    +0.000 C 
ATOM     23  C   UNL     1       2.679   5.584  18.025  0.00  0.00    +0.000 C 
BRANCH  23  24
ATOM     24  S   UNL     1       1.833   3.974  17.992  0.00  0.00    +0.000 S 
BRANCH  24  25
ATOM     25  C   UNL     1       1.935   3.357  19.599  0.00  0.00    +0.000 A 
ATOM     26  N   UNL     1       1.050   3.459  20.562  0.00  0.00    +0.000 NA
ATOM     27  N   UNL     1       1.644   3.032  21.730  0.00  0.00    +0.000 NA
ATOM     28  C   UNL     1       2.872   2.668  21.437  0.00  0.00    +0.000 A 
ATOM     29  N   UNL     1       3.059   2.752  20.090  0.00  0.00    +0.000 N 
ATOM     30  C   UNL     1       4.187   2.226  19.368  0.00  0.00    +0.000 C 
ENDBRANCH  24  25
ENDBRANCH  23  24
ENDBRANCH   1  23
TORSDOF 6
ENDMDL
MODEL 3
REMARK VINA RESULT:      -8.5      1.379      1.528
REMARK  Name = 
REMARK  9 active torsions:
REMARK  status: ('A' for Active; 'I' for Inactive)
REMARK    1  A    between atoms: C_1  and  C_2
REMARK    2  A    between atoms: C_2  and  S_3
REMARK    3  A    between atoms: C_2  and  C_10
REMARK    4  A    between atoms: S_3  and  C_4
REMARK    5  A    between atoms: N_8  and  C_9
REMARK    6  A    between atoms: C_14  and  C_15
REMARK    7  A    between atoms: C_17  and  C_18
REMARK    8  A    between atoms: C_21  and  S_22
REMARK    9  A    between atoms: S_22  and  C_23
REMARK                            x       y       z     vdW  Elec       q    Type
REMARK                         _______ _______ _______ _____ _____    ______ ____
ROOT
ATOM      1  C   UNL     1       4.974   4.138  16.836  0.00  0.00    +0.000 A 
ATOM      2  C   UNL     1       5.290   3.900  15.488  0.00  0.00    +0.000 A 
ATOM      3  C   UNL     1       6.316   4.594  14.855  0.00  0.00    +0.000 A 
ATOM      4  C   UNL     1       7.021   5.578  15.549  0.00  0.00    +0.000 A 
ATOM      5  C   UNL     1       6.672   5.916  16.865  0.00  0.00    +0.000 A 
ATOM      6  C   UNL     1       5.648   5.188  17.494  0.00  0.00    +0.000 A 
ENDROOT
BRANCH   5   7
ATOM      7  C   UNL     1       7.395   6.984  17.544  0.00  0.00    +0.000 A 
ATOM      8  C   UNL     1       7.537   8.335  17.338  0.00  0.00    +0.000 A 
ATOM      9  C   UNL     1       8.392   8.788  18.374  0.00  0.00    +0.000 A 
ATOM     10  N   UNL     1       8.732   7.766  19.172  0.00  0.00    +0.000 NA
ATOM     11  O   UNL     1       8.115   6.645  18.649  0.00  0.00    +0.000 OA
BRANCH   9  12
ATOM     12  C   UNL     1       8.877  10.148  18.600  0.00  0.00    +0.000 A 
ATOM     13  C   UNL     1       8.629  11.158  17.659  0.00  0.00    +0.000 A 
ATOM     14  C   UNL     1       9.094  12.458  17.871  0.00  0.00    +0.000 A 
ATOM     15  C   UNL     1       9.796  12.750  19.041  0.00  0.00    +0.000 A 
ATOM     16  C   UNL     1      10.065  11.756  19.984  0.00  0.00    +0.000 A 
ATOM     17  C   UNL     1       9.600  10.456  19.764  0.00  0.00    +0.000 A 
BRANCH  15  18
ATOM     18  S   UNL     1      10.381  14.400  19.331  0.00  0.00    +0.000 S 
ATOM     19  C   UNL     1      11.684  14.575  18.139  0.00  0.00    +0.000 C 
ATOM     20  O   UNL     1       9.312  15.309  18.969  0.00  0.00    +0.000 OA
ATOM     21  O   UNL     1      10.971  14.431  20.657  0.00  0.00    +0.000 OA
ENDBRANCH  15  18
ENDBRANCH   9  12
ENDBRANCH   5   7
BRANCH   1  23
ATOM     22  C   UNL     1       2.609   3.181  17.070  0.00  0.00    +0.000 C 
ATOM     23  C   UNL     1       4.042   3.213  17.607  0.00  0.00    +0.000 C 
BRANCH  23  24
ATOM     24  S   UNL     1       4.089   3.340  19.421  0.00  0.00    +0.000 S 
BRANCH  24  25
ATOM     25  C   UNL     1       2.973   4.587  19.834  0.00  0.00    +0.000 A 
ATOM     26  N   UNL     1       3.048   5.866  19.551  0.00  0.00    +0.000 NA
ATOM     27  N   UNL     1       2.072   6.517  20.274  0.00  0.00    +0.000 NA
ATOM     28  C   UNL     1       1.420   5.609  20.965  0.00  0.00    +0.000 A 
ATOM     29  N   UNL     1       1.883   4.371  20.632  0.00  0.00    +0.000 N 
ATOM     30  C   UNL     1       1.271   3.123  21.002  0.00  0.00    +0.000 C 
ENDBRANCH  24  25
ENDBRANCH  23  24
ENDBRANCH   1  23
TORSDOF 6
ENDMDL
MODEL 4
REMARK VINA RESULT:      -8.5      1.457      1.931
REMARK  Name = 
REMARK  9 active torsions:
REMARK  status: ('A' for Active; 'I' for Inactive)
REMARK    1  A    between atoms: C_1  and  C_2
REMARK    2  A    between atoms: C_2  and  S_3
REMARK    3  A    between atoms: C_2  and  C_10
REMARK    4  A    between atoms: S_3  and  C_4
REMARK    5  A    between atoms: N_8  and  C_9
REMARK    6  A    between atoms: C_14  and  C_15
REMARK    7  A    between atoms: C_17  and  C_18
REMARK    8  A    between atoms: C_21  and  S_22
REMARK    9  A    between atoms: S_22  and  C_23
REMARK                            x       y       z     vdW  Elec       q    Type
REMARK                         _______ _______ _______ _____ _____    ______ ____
ROOT
ATOM      1  C   UNL     1       5.074   4.043  16.927  0.00  0.00    +0.000 A 
ATOM      2  C   UNL     1       5.494   3.694  15.633  0.00  0.00    +0.000 A 
ATOM      3  C   UNL     1       6.572   4.331  15.027  0.00  0.00    +0.000 A 
ATOM      4  C   UNL     1       7.228   5.368  15.691  0.00  0.00    +0.000 A 
ATOM      5  C   UNL     1       6.779   5.814  16.943  0.00  0.00    +0.000 A 
ATOM      6  C   UNL     1       5.703   5.142  17.547  0.00  0.00    +0.000 A 
ENDROOT
BRANCH   5   7
ATOM      7  C   UNL     1       7.455   6.933  17.587  0.00  0.00    +0.000 A 
ATOM      8  C   UNL     1       7.539   8.282  17.337  0.00  0.00    +0.000 A 
ATOM      9  C   UNL     1       8.374   8.804  18.358  0.00  0.00    +0.000 A 
ATOM     10  N   UNL     1       8.758   7.824  19.187  0.00  0.00    +0.000 NA
ATOM     11  O   UNL     1       8.190   6.661  18.701  0.00  0.00    +0.000 OA
BRANCH   9  12
ATOM     12  C   UNL     1       8.800  10.190  18.539  0.00  0.00    +0.000 A 
ATOM     13  C   UNL     1       9.620  10.547  19.621  0.00  0.00    +0.000 A 
ATOM     14  C   UNL     1      10.027  11.872  19.798  0.00  0.00    +0.000 A 
ATOM     15  C   UNL     1       9.623  12.839  18.878  0.00  0.00    +0.000 A 
ATOM     16  C   UNL     1       8.796  12.508  17.803  0.00  0.00    +0.000 A 
ATOM     17  C   UNL     1       8.389  11.181  17.633  0.00  0.00    +0.000 A 
BRANCH  15  18
ATOM     18  S   UNL     1      10.144  14.524  19.083  0.00  0.00    +0.000 S 
ATOM     19  C   UNL     1      11.629  14.365  20.041  0.00  0.00    +0.000 C 
ATOM     20  O   UNL     1      10.502  15.030  17.773  0.00  0.00    +0.000 OA
ATOM     21  O   UNL     1       9.147  15.196  19.897  0.00  0.00    +0.000 OA
ENDBRANCH  15  18
ENDBRANCH   9  12
ENDBRANCH   5   7
BRANCH   1  23
ATOM     22  C   UNL     1       2.657   3.218  17.126  0.00  0.00    +0.000 C 
ATOM     23  C   UNL     1       4.078   3.187  17.696  0.00  0.00    +0.000 C 
BRANCH  23  24
ATOM     24  S   UNL     1       4.090   3.352  19.507  0.00  0.00    +0.000 S 
BRANCH  24  25
ATOM     25  C   UNL     1       3.010   4.646  19.868  0.00  0.00    +0.000 A 
ATOM     26  N   UNL     1       3.184   5.929  19.655  0.00  0.00    +0.000 NA
ATOM     27  N   UNL     1       2.179   6.607  20.310  0.00  0.00    +0.000 NA
ATOM     28  C   UNL     1       1.412   5.712  20.890  0.00  0.00    +0.000 A 
ATOM     29  N   UNL     1       1.836   4.463  20.546  0.00  0.00    +0.000 N 
ATOM     30  C   UNL     1       1.121   3.240  20.794  0.00  0.00    +0.000 C 
ENDBRANCH  24  25
ENDBRANCH  23  24
ENDBRANCH   1  23
TORSDOF 6
ENDMDL
MODEL 5
REMARK VINA RESULT:      -8.3      6.607      8.607
REMARK  Name = 
REMARK  9 active torsions:
REMARK  status: ('A' for Active; 'I' for Inactive)
REMARK    1  A    between atoms: C_1  and  C_2
REMARK    2  A    between atoms: C_2  and  S_3
REMARK    3  A    between atoms: C_2  and  C_10
REMARK    4  A    between atoms: S_3  and  C_4
REMARK    5  A    between atoms: N_8  and  C_9
REMARK    6  A    between atoms: C_14  and  C_15
REMARK    7  A    between atoms: C_17  and  C_18
REMARK    8  A    between atoms: C_21  and  S_22
REMARK    9  A    between atoms: S_22  and  C_23
REMARK                            x       y       z     vdW  Elec       q    Type
REMARK                         _______ _______ _______ _____ _____    ______ ____
ROOT
ATOM      1  C   UNL     1       3.449   5.291  18.467  0.00  0.00    +0.000 A 
ATOM      2  C   UNL     1       3.255   4.332  19.475  0.00  0.00    +0.000 A 
ATOM      3  C   UNL     1       2.481   4.611  20.597  0.00  0.00    +0.000 A 
ATOM      4  C   UNL     1       1.921   5.879  20.756  0.00  0.00    +0.000 A 
ATOM      5  C   UNL     1       2.171   6.895  19.822  0.00  0.00    +0.000 A 
ATOM      6  C   UNL     1       2.936   6.586  18.684  0.00  0.00    +0.000 A 
ENDROOT
BRANCH   5   7
ATOM      7  C   UNL     1       1.612   8.223  20.044  0.00  0.00    +0.000 A 
ATOM      8  C   UNL     1       1.119   8.891  21.138  0.00  0.00    +0.000 A 
ATOM      9  C   UNL     1       0.725  10.166  20.658  0.00  0.00    +0.000 A 
ATOM     10  N   UNL     1       0.984  10.266  19.346  0.00  0.00    +0.000 NA
ATOM     11  O   UNL     1       1.530   9.053  18.967  0.00  0.00    +0.000 OA
BRANCH   9  12
ATOM     12  C   UNL     1       0.117  11.256  21.417  0.00  0.00    +0.000 A 
ATOM     13  C   UNL     1       0.524  12.583  21.206  0.00  0.00    +0.000 A 
ATOM     14  C   UNL     1      -0.055  13.628  21.932  0.00  0.00    +0.000 A 
ATOM     15  C   UNL     1      -1.056  13.342  22.861  0.00  0.00    +0.000 A 
ATOM     16  C   UNL     1      -1.465  12.027  23.095  0.00  0.00    +0.000 A 
ATOM     17  C   UNL     1      -0.880  10.986  22.367  0.00  0.00    +0.000 A 
BRANCH  15  18
ATOM     18  S   UNL     1      -1.810  14.660  23.780  0.00  0.00    +0.000 S 
ATOM     19  C   UNL     1      -3.261  13.893  24.456  0.00  0.00    +0.000 C 
ATOM     20  O   UNL     1      -0.920  14.990  24.875  0.00  0.00    +0.000 OA
ATOM     21  O   UNL     1      -2.233  15.673  22.829  0.00  0.00    +0.000 OA
ENDBRANCH  15  18
ENDBRANCH   9  12
ENDBRANCH   5   7
BRANCH   1  23
ATOM     22  C   UNL     1       4.375   3.426  16.974  0.00  0.00    +0.000 C 
ATOM     23  C   UNL     1       4.065   4.918  17.126  0.00  0.00    +0.000 C 
BRANCH  23  24
ATOM     24  S   UNL     1       5.434   5.962  16.541  0.00  0.00    +0.000 S 
BRANCH  24  25
ATOM     25  C   UNL     1       6.705   5.757  17.688  0.00  0.00    +0.000 A 
ATOM     26  N   UNL     1       7.021   4.675  18.360  0.00  0.00    +0.000 NA
ATOM     27  N   UNL     1       7.938   5.030  19.326  0.00  0.00    +0.000 NA
ATOM     28  C   UNL     1       8.164   6.318  19.201  0.00  0.00    +0.000 A 
ATOM     29  N   UNL     1       7.492   6.791  18.114  0.00  0.00    +0.000 N 
ATOM     30  C   UNL     1       7.670   8.090  17.522  0.00  0.00    +0.000 C 
ENDBRANCH  24  25
ENDBRANCH  23  24
ENDBRANCH   1  23
TORSDOF 6
ENDMDL
MODEL 6
REMARK VINA RESULT:      -8.2      6.979      9.350
REMARK  Name = 
REMARK  9 active torsions:
REMARK  status: ('A' for Active; 'I' for Inactive)
REMARK    1  A    between atoms: C_1  and  C_2
REMARK    2  A    between atoms: C_2  and  S_3
REMARK    3  A    between atoms: C_2  and  C_10
REMARK    4  A    between atoms: S_3  and  C_4
REMARK    5  A    between atoms: N_8  and  C_9
REMARK    6  A    between atoms: C_14  and  C_15
REMARK    7  A    between atoms: C_17  and  C_18
REMARK    8  A    between atoms: C_21  and  S_22
REMARK    9  A    between atoms: S_22  and  C_23
REMARK                            x       y       z     vdW  Elec       q    Type
REMARK                         _______ _______ _______ _____ _____    ______ ____
ROOT
ATOM      1  C   UNL     1       4.375   5.936  17.678  0.00  0.00    +0.000 A 
ATOM      2  C   UNL     1       4.174   4.758  18.417  0.00  0.00    +0.000 A 
ATOM      3  C   UNL     1       3.176   4.674  19.383  0.00  0.00    +0.000 A 
ATOM      4  C   UNL     1       2.383   5.788  19.662  0.00  0.00    +0.000 A 
ATOM      5  C   UNL     1       2.616   7.012  19.017  0.00  0.00    +0.000 A 
ATOM      6  C   UNL     1       3.613   7.070  18.028  0.00  0.00    +0.000 A 
ENDROOT
BRANCH   5   7
ATOM      7  C   UNL     1       1.803   8.170  19.367  0.00  0.00    +0.000 A 
ATOM      8  C   UNL     1       0.991   8.492  20.428  0.00  0.00    +0.000 A 
ATOM      9  C   UNL     1       0.489   9.787  20.140  0.00  0.00    +0.000 A 
ATOM     10  N   UNL     1       0.987  10.227  18.976  0.00  0.00    +0.000 NA
ATOM     11  O   UNL     1       1.799   9.216  18.495  0.00  0.00    +0.000 OA
BRANCH   9  12
ATOM     12  C   UNL     1      -0.438  10.583  20.941  0.00  0.00    +0.000 A 
ATOM     13  C   UNL     1      -0.567  10.353  22.319  0.00  0.00    +0.000 A 
ATOM     14  C   UNL     1      -1.455  11.111  23.087  0.00  0.00    +0.000 A 
ATOM     15  C   UNL     1      -2.204  12.115  22.472  0.00  0.00    +0.000 A 
ATOM     16  C   UNL     1      -2.100  12.351  21.100  0.00  0.00    +0.000 A 
ATOM     17  C   UNL     1      -1.212  11.587  20.337  0.00  0.00    +0.000 A 
BRANCH  15  18
ATOM     18  S   UNL     1      -3.326  13.095  23.437  0.00  0.00    +0.000 S 
ATOM     19  C   UNL     1      -2.243  14.218  24.284  0.00  0.00    +0.000 C 
ATOM     20  O   UNL     1      -4.138  13.861  22.514  0.00  0.00    +0.000 OA
ATOM     21  O   UNL     1      -3.936  12.222  24.424  0.00  0.00    +0.000 OA
ENDBRANCH  15  18
ENDBRANCH   9  12
ENDBRANCH   5   7
BRANCH   1  23
ATOM     22  C   UNL     1       4.890   7.014  15.412  0.00  0.00    +0.000 C 
ATOM     23  C   UNL     1       5.276   5.958  16.451  0.00  0.00    +0.000 C 
BRANCH  23  24
ATOM     24  S   UNL     1       5.649   4.351  15.686  0.00  0.00    +0.000 S 
BRANCH  24  25
ATOM     25  C   UNL     1       6.785   4.680  14.433  0.00  0.00    +0.000 A 
ATOM     26  N   UNL     1       7.867   5.421  14.495  0.00  0.00    +0.000 NA
ATOM     27  N   UNL     1       8.335   5.595  13.210  0.00  0.00    +0.000 NA
ATOM     28  C   UNL     1       7.531   4.939  12.405  0.00  0.00    +0.000 A 
ATOM     29  N   UNL     1       6.608   4.260  13.143  0.00  0.00    +0.000 N 
ATOM     30  C   UNL     1       5.708   3.257  12.639  0.00  0.00    +0.000 C 
ENDBRANCH  24  25
ENDBRANCH  23  24
ENDBRANCH   1  23
TORSDOF 6
ENDMDL
MODEL 7
REMARK VINA RESULT:      -8.2      6.274      8.722
REMARK  Name = 
REMARK  9 active torsions:
REMARK  status: ('A' for Active; 'I' for Inactive)
REMARK    1  A    between atoms: C_1  and  C_2
REMARK    2  A    between atoms: C_2  and  S_3
REMARK    3  A    between atoms: C_2  and  C_10
REMARK    4  A    between atoms: S_3  and  C_4
REMARK    5  A    between atoms: N_8  and  C_9
REMARK    6  A    between atoms: C_14  and  C_15
REMARK    7  A    between atoms: C_17  and  C_18
REMARK    8  A    between atoms: C_21  and  S_22
REMARK    9  A    between atoms: S_22  and  C_23
REMARK                            x       y       z     vdW  Elec       q    Type
REMARK                         _______ _______ _______ _____ _____    ______ ____
ROOT
ATOM      1  C   UNL     1       4.843   4.489  18.144  0.00  0.00    +0.000 A 
ATOM      2  C   UNL     1       4.503   3.396  18.958  0.00  0.00    +0.000 A 
ATOM      3  C   UNL     1       3.453   3.473  19.867  0.00  0.00    +0.000 A 
ATOM      4  C   UNL     1       2.746   4.667  20.013  0.00  0.00    +0.000 A 
ATOM      5  C   UNL     1       3.117   5.811  19.291  0.00  0.00    +0.000 A 
ATOM      6  C   UNL     1       4.165   5.707  18.361  0.00  0.00    +0.000 A 
ENDROOT
BRANCH   5   7
ATOM      7  C   UNL     1       2.390   7.057  19.504  0.00  0.00    +0.000 A 
ATOM      8  C   UNL     1       1.771   7.639  20.583  0.00  0.00    +0.000 A 
ATOM      9  C   UNL     1       1.247   8.866  20.102  0.00  0.00    +0.000 A 
ATOM     10  N   UNL     1       1.548   9.020  18.805  0.00  0.00    +0.000 NA
ATOM     11  O   UNL     1       2.254   7.890  18.435  0.00  0.00    +0.000 OA
BRANCH   9  12
ATOM     12  C   UNL     1       0.477   9.860  20.846  0.00  0.00    +0.000 A 
ATOM     13  C   UNL     1      -0.045   9.555  22.112  0.00  0.00    +0.000 A 
ATOM     14  C   UNL     1      -0.784  10.503  22.825  0.00  0.00    +0.000 A 
ATOM     15  C   UNL     1      -0.984  11.769  22.272  0.00  0.00    +0.000 A 
ATOM     16  C   UNL     1      -0.484  12.088  21.009  0.00  0.00    +0.000 A 
ATOM     17  C   UNL     1       0.251  11.133  20.299  0.00  0.00    +0.000 A 
BRANCH  15  18
ATOM     18  S   UNL     1      -1.908  12.988  23.172  0.00  0.00    +0.000 S 
ATOM     19  C   UNL     1      -2.567  14.016  21.884  0.00  0.00    +0.000 C 
ATOM     20  O   UNL     1      -3.012  12.307  23.817  0.00  0.00    +0.000 OA
ATOM     21  O   UNL     1      -0.962  13.775  23.943  0.00  0.00    +0.000 OA
ENDBRANCH  15  18
ENDBRANCH   9  12
ENDBRANCH   5   7
BRANCH   1  23
ATOM     22  C   UNL     1       7.260   4.674  17.315  0.00  0.00    +0.000 C 
ATOM     23  C   UNL     1       5.806   4.338  16.974  0.00  0.00    +0.000 C 
BRANCH  23  24
ATOM     24  S   UNL     1       5.287   5.073  15.394  0.00  0.00    +0.000 S 
BRANCH  24  25
ATOM     25  C   UNL     1       6.682   5.042  14.381  0.00  0.00    +0.000 A 
ATOM     26  N   UNL     1       7.824   5.664  14.558  0.00  0.00    +0.000 NA
ATOM     27  N   UNL     1       8.555   5.546  13.396  0.00  0.00    +0.000 NA
ATOM     28  C   UNL     1       7.839   4.839  12.550  0.00  0.00    +0.000 A 
ATOM     29  N   UNL     1       6.702   4.410  13.168  0.00  0.00    +0.000 N 
ATOM     30  C   UNL     1       5.786   3.431  12.648  0.00  0.00    +0.000 C 
ENDBRANCH  24  25
ENDBRANCH  23  24
ENDBRANCH   1  23
TORSDOF 6
ENDMDL
MODEL 8
REMARK VINA RESULT:      -8.1      6.690      9.779
REMARK  Name = 
REMARK  9 active torsions:
REMARK  status: ('A' for Active; 'I' for Inactive)
REMARK    1  A    between atoms: C_1  and  C_2
REMARK    2  A    between atoms: C_2  and  S_3
REMARK    3  A    between atoms: C_2  and  C_10
REMARK    4  A    between atoms: S_3  and  C_4
REMARK    5  A    between atoms: N_8  and  C_9
REMARK    6  A    between atoms: C_14  and  C_15
REMARK    7  A    between atoms: C_17  and  C_18
REMARK    8  A    between atoms: C_21  and  S_22
REMARK    9  A    between atoms: S_22  and  C_23
REMARK                            x       y       z     vdW  Elec       q    Type
REMARK                         _______ _______ _______ _____ _____    ______ ____
ROOT
ATOM      1  C   UNL     1      -1.133  11.303  20.920  0.00  0.00    +0.000 A 
ATOM      2  C   UNL     1      -1.410  11.217  22.294  0.00  0.00    +0.000 A 
ATOM      3  C   UNL     1      -0.803  10.254  23.094  0.00  0.00    +0.000 A 
ATOM      4  C   UNL     1       0.065   9.323  22.522  0.00  0.00    +0.000 A 
ATOM      5  C   UNL     1       0.292   9.311  21.138  0.00  0.00    +0.000 A 
ATOM      6  C   UNL     1      -0.312  10.306  20.352  0.00  0.00    +0.000 A 
ENDROOT
BRANCH   5   7
ATOM      7  C   UNL     1       1.165   8.293  20.566  0.00  0.00    +0.000 A 
ATOM      8  C   UNL     1       2.129   8.290  19.588  0.00  0.00    +0.000 A 
ATOM      9  C   UNL     1       2.594   6.952  19.520  0.00  0.00    +0.000 A 
ATOM     10  N   UNL     1       1.955   6.194  20.422  0.00  0.00    +0.000 NA
ATOM     11  O   UNL     1       1.062   7.030  21.067  0.00  0.00    +0.000 OA
BRANCH   9  12
ATOM     12  C   UNL     1       3.610   6.405  18.624  0.00  0.00    +0.000 A 
ATOM     13  C   UNL     1       4.205   5.164  18.896  0.00  0.00    +0.000 A 
ATOM     14  C   UNL     1       5.179   4.639  18.041  0.00  0.00    +0.000 A 
ATOM     15  C   UNL     1       5.545   5.356  16.902  0.00  0.00    +0.000 A 
ATOM     16  C   UNL     1       4.975   6.599  16.620  0.00  0.00    +0.000 A 
ATOM     17  C   UNL     1       4.004   7.119  17.481  0.00  0.00    +0.000 A 
BRANCH  15  18
ATOM     18  S   UNL     1       6.770   4.695  15.800  0.00  0.00    +0.000 S 
ATOM     19  C   UNL     1       5.931   3.323  15.050  0.00  0.00    +0.000 C 
ATOM     20  O   UNL     1       7.015   5.690  14.776  0.00  0.00    +0.000 OA
ATOM     21  O   UNL     1       7.856   4.175  16.612  0.00  0.00    +0.000 OA
ENDBRANCH  15  18
ENDBRANCH   9  12
ENDBRANCH   5   7
BRANCH   1  23
ATOM     22  C   UNL     1      -1.220  13.854  20.711  0.00  0.00    +0.000 C 
ATOM     23  C   UNL     1      -1.580  12.501  20.094  0.00  0.00    +0.000 C 
BRANCH  23  24
ATOM     24  S   UNL     1      -3.288  12.467  19.471  0.00  0.00    +0.000 S 
BRANCH  24  25
ATOM     25  C   UNL     1      -3.221  11.636  17.962  0.00  0.00    +0.000 A 
ATOM     26  N   UNL     1      -2.163  11.172  17.340  0.00  0.00    +0.000 NA
ATOM     27  N   UNL     1      -2.548  10.799  16.070  0.00  0.00    +0.000 NA
ATOM     28  C   UNL     1      -3.837  11.034  15.964  0.00  0.00    +0.000 A 
ATOM     29  N   UNL     1      -4.319  11.457  17.166  0.00  0.00    +0.000 N 
ATOM     30  C   UNL     1      -5.710  11.593  17.507  0.00  0.00    +0.000 C 
ENDBRANCH  24  25
ENDBRANCH  23  24
ENDBRANCH   1  23
TORSDOF 6
ENDMDL
MODEL 9
REMARK VINA RESULT:      -8.1      6.719      8.940
REMARK  Name = 
REMARK  9 active torsions:
REMARK  status: ('A' for Active; 'I' for Inactive)
REMARK    1  A    between atoms: C_1  and  C_2
REMARK    2  A    between atoms: C_2  and  S_3
REMARK    3  A    between atoms: C_2  and  C_10
REMARK    4  A    between atoms: S_3  and  C_4
REMARK    5  A    between atoms: N_8  and  C_9
REMARK    6  A    between atoms: C_14  and  C_15
REMARK    7  A    between atoms: C_17  and  C_18
REMARK    8  A    between atoms: C_21  and  S_22
REMARK    9  A    between atoms: S_22  and  C_23
REMARK                            x       y       z     vdW  Elec       q    Type
REMARK                         _______ _______ _______ _____ _____    ______ ____
ROOT
ATOM      1  C   UNL     1       3.767   5.179  18.163  0.00  0.00    +0.000 A 
ATOM      2  C   UNL     1       3.740   4.221  19.190  0.00  0.00    +0.000 A 
ATOM      3  C   UNL     1       2.997   4.425  20.348  0.00  0.00    +0.000 A 
ATOM      4  C   UNL     1       2.298   5.620  20.522  0.00  0.00    +0.000 A 
ATOM      5  C   UNL     1       2.377   6.643  19.566  0.00  0.00    +0.000 A 
ATOM      6  C   UNL     1       3.114   6.407  18.393  0.00  0.00    +0.000 A 
ENDROOT
BRANCH   5   7
ATOM      7  C   UNL     1       1.674   7.898  19.802  0.00  0.00    +0.000 A 
ATOM      8  C   UNL     1       0.865   8.375  20.804  0.00  0.00    +0.000 A 
ATOM      9  C   UNL     1       0.506   9.689  20.407  0.00  0.00    +0.000 A 
ATOM     10  N   UNL     1       1.084   9.991  19.236  0.00  0.00    +0.000 NA
ATOM     11  O   UNL     1       1.805   8.873  18.859  0.00  0.00    +0.000 OA
BRANCH   9  12
ATOM     12  C   UNL     1      -0.362  10.629  21.112  0.00  0.00    +0.000 A 
ATOM     13  C   UNL     1      -0.498  10.562  22.507  0.00  0.00    +0.000 A 
ATOM     14  C   UNL     1      -1.330  11.459  23.184  0.00  0.00    +0.000 A 
ATOM     15  C   UNL     1      -2.014  12.436  22.460  0.00  0.00    +0.000 A 
ATOM     16  C   UNL     1      -1.902  12.510  21.070  0.00  0.00    +0.000 A 
ATOM     17  C   UNL     1      -1.071  11.608  20.399  0.00  0.00    +0.000 A 
BRANCH  15  18
ATOM     18  S   UNL     1      -3.062  13.590  23.308  0.00  0.00    +0.000 S 
ATOM     19  C   UNL     1      -1.912  14.531  24.278  0.00  0.00    +0.000 C 
ATOM     20  O   UNL     1      -3.637  14.468  22.310  0.00  0.00    +0.000 OA
ATOM     21  O   UNL     1      -3.907  12.833  24.214  0.00  0.00    +0.000 OA
ENDBRANCH  15  18
ENDBRANCH   9  12
ENDBRANCH   5   7
BRANCH   1  23
ATOM     22  C   UNL     1       4.560   3.364  16.538  0.00  0.00    +0.000 C 
ATOM     23  C   UNL     1       4.355   4.859  16.795  0.00  0.00    +0.000 C 
BRANCH  23  24
ATOM     24  S   UNL     1       5.792   5.845  16.277  0.00  0.00    +0.000 S 
BRANCH  24  25
ATOM     25  C   UNL     1       6.939   5.711  17.556  0.00  0.00    +0.000 A 
ATOM     26  N   UNL     1       7.271   4.639  18.236  0.00  0.00    +0.000 NA
ATOM     27  N   UNL     1       8.041   5.038  19.307  0.00  0.00    +0.000 NA
ATOM     28  C   UNL     1       8.167   6.344  19.237  0.00  0.00    +0.000 A 
ATOM     29  N   UNL     1       7.582   6.793  18.091  0.00  0.00    +0.000 N 
ATOM     30  C   UNL     1       7.711   8.121  17.552  0.00  0.00    +0.000 C 
ENDBRANCH  24  25
ENDBRANCH  23  24
ENDBRANCH   1  23
TORSDOF 6
ENDMDL
