MODEL 1
REMARK VINA RESULT:      -9.7      0.000      0.000
REMARK  Name = 
REMARK  8 active torsions:
REMARK  status: ('A' for Active; 'I' for Inactive)
REMARK    1  A    between atoms: C_1  and  N_2
REMARK    2  A    between atoms: C_6  and  C_7
REMARK    3  A    between atoms: C_7  and  C_8
REMARK    4  A    between atoms: C_8  and  C_9
REMARK    5  A    between atoms: C_13  and  N_14
REMARK    6  A    between atoms: C_19  and  C_20
REMARK    7  A    between atoms: C_20  and  N_21
REMARK    8  A    between atoms: C_29  and  C_30
REMARK                            x       y       z     vdW  Elec       q    Type
REMARK                         _______ _______ _______ _____ _____    ______ ____
ROOT
ATOM      1  N   UNL     1       1.217   8.369  20.440  0.00  0.00    +0.000 N 
ATOM      2  C   UNL     1       1.278   7.027  20.975  0.00  0.00    +0.000 C 
ATOM      3  C   UNL     1       2.035   6.251  19.974  0.00  0.00    +0.000 A 
ATOM      4  C   UNL     1       2.503   7.096  18.970  0.00  0.00    +0.000 A 
ATOM      5  C   UNL     1       3.263   6.583  17.926  0.00  0.00    +0.000 A 
ATOM      6  C   UNL     1       3.514   5.191  17.917  0.00  0.00    +0.000 A 
ATOM      7  C   UNL     1       2.982   4.367  18.949  0.00  0.00    +0.000 A 
ATOM      8  C   UNL     1       2.215   4.878  19.998  0.00  0.00    +0.000 A 
ATOM      9  C   UNL     1       1.967   8.471  19.256  0.00  0.00    +0.000 C 
ATOM     10  O   UNL     1       2.161   9.429  18.532  0.00  0.00    +0.000 OA
ENDROOT
BRANCH   1  15
ATOM     11  C   UNL     1      -1.001  11.383  20.813  0.00  0.00    +0.000 A 
ATOM     12  C   UNL     1      -1.157  11.395  22.206  0.00  0.00    +0.000 A 
ATOM     13  C   UNL     1      -0.597  10.391  23.018  0.00  0.00    +0.000 A 
ATOM     14  C   UNL     1       0.177   9.356  22.470  0.00  0.00    +0.000 A 
ATOM     15  C   UNL     1       0.385   9.312  21.101  0.00  0.00    +0.000 A 
ATOM     16  C   UNL     1      -0.240  10.312  20.320  0.00  0.00    +0.000 A 
BRANCH  11  17
ATOM     17  C   UNL     1      -1.620  12.476  19.790  0.00  0.00    +0.000 C 
ATOM     18  C   UNL     1      -0.655  12.966  18.677  0.00  0.00    +0.000 C 
ATOM     19  O   UNL     1      -0.740  14.336  19.105  0.00  0.00    +0.000 OA
ATOM     20  C   UNL     1      -1.585  13.978  20.218  0.00  0.00    +0.000 C 
BRANCH  17  21
ATOM     21  C   UNL     1      -3.009  12.046  19.255  0.00  0.00    +0.000 C 
BRANCH  21  27
ATOM     22  C   UNL     1      -5.322  12.118  17.106  0.00  0.00    +0.000 C 
ATOM     23  N   UNL     1      -4.027  11.508  16.966  0.00  0.00    +0.000 N 
ATOM     24  C   UNL     1      -3.602  10.823  15.866  0.00  0.00    +0.000 A 
ATOM     25  N   UNL     1      -2.396  10.356  16.078  0.00  0.00    +0.000 NA
ATOM     26  N   UNL     1      -2.024  10.734  17.345  0.00  0.00    +0.000 NA
ATOM     27  C   UNL     1      -2.997  11.452  17.876  0.00  0.00    +0.000 A 
ENDBRANCH  21  27
ENDBRANCH  17  21
ENDBRANCH  11  17
ENDBRANCH   1  15
BRANCH   8  28
ATOM     28  C   UNL     1       1.520   4.014  21.017  0.00  0.00    +0.000 C 
ATOM     29  C   UNL     1       1.286   2.544  20.795  0.00  0.00    +0.000 C 
ATOM     30  C   UNL     1       2.302   2.983  21.804  0.00  0.00    +0.000 C 
ENDBRANCH   8  28
BRANCH   6  31
ATOM     31  C   UNL     1       4.366   4.503  16.853  0.00  0.00    +0.000 C 
BRANCH  31  32
ATOM     32  N   UNL     1       5.086   5.477  16.017  0.00  0.00    +0.000 NA
ATOM     33  C   UNL     1       6.460   5.754  16.437  0.00  0.00    +0.000 C 
ATOM     34  C   UNL     1       7.480   4.710  15.982  0.00  0.00    +0.000 C 
ATOM     35  C   UNL     1       7.357   4.382  14.502  0.00  0.00    +0.000 C 
ATOM     36  F   UNL     1       7.874   5.421  13.785  0.00  0.00    +0.000 F 
ATOM     37  C   UNL     1       5.922   4.160  14.053  0.00  0.00    +0.000 C 
ATOM     38  C   UNL     1       4.998   5.254  14.575  0.00  0.00    +0.000 C 
ENDBRANCH  31  32
ENDBRANCH   6  31
TORSDOF 7
ENDMDL
MODEL 2
REMARK VINA RESULT:      -9.6      1.158      1.629
REMARK  Name = 
REMARK  8 active torsions:
REMARK  status: ('A' for Active; 'I' for Inactive)
REMARK    1  A    between atoms: C_1  and  N_2
REMARK    2  A    between atoms: C_6  and  C_7
REMARK    3  A    between atoms: C_7  and  C_8
REMARK    4  A    between atoms: C_8  and  C_9
REMARK    5  A    between atoms: C_13  and  N_14
REMARK    6  A    between atoms: C_19  and  C_20
REMARK    7  A    between atoms: C_20  and  N_21
REMARK    8  A    between atoms: C_29  and  C_30
REMARK                            x       y       z     vdW  Elec       q    Type
REMARK                         _______ _______ _______ _____ _____    ______ ____
ROOT
ATOM      1  N   UNL     1       1.305   8.246  20.268  0.00  0.00    +0.000 N 
ATOM      2  C   UNL     1       1.264   6.869  20.708  0.00  0.00    +0.000 C 
ATOM      3  C   UNL     1       2.029   6.121  19.692  0.00  0.00    +0.000 A 
ATOM      4  C   UNL     1       2.594   7.004  18.774  0.00  0.00    +0.000 A 
ATOM      5  C   UNL     1       3.378   6.520  17.735  0.00  0.00    +0.000 A 
ATOM      6  C   UNL     1       3.554   5.119  17.638  0.00  0.00    +0.000 A 
ATOM      7  C   UNL     1       2.924   4.259  18.582  0.00  0.00    +0.000 A 
ATOM      8  C   UNL     1       2.132   4.741  19.626  0.00  0.00    +0.000 A 
ATOM      9  C   UNL     1       2.119   8.385  19.131  0.00  0.00    +0.000 C 
ATOM     10  O   UNL     1       2.402   9.376  18.487  0.00  0.00    +0.000 OA
ENDROOT
BRANCH   1  15
ATOM     11  C   UNL     1      -0.897  11.263  20.709  0.00  0.00    +0.000 A 
ATOM     12  C   UNL     1      -1.017  11.270  22.105  0.00  0.00    +0.000 A 
ATOM     13  C   UNL     1      -0.439  10.262  22.898  0.00  0.00    +0.000 A 
ATOM     14  C   UNL     1       0.318   9.227  22.327  0.00  0.00    +0.000 A 
ATOM     15  C   UNL     1       0.492   9.188  20.953  0.00  0.00    +0.000 A 
ATOM     16  C   UNL     1      -0.151  10.191  20.192  0.00  0.00    +0.000 A 
BRANCH  11  17
ATOM     17  C   UNL     1      -1.539  12.361  19.705  0.00  0.00    +0.000 C 
ATOM     18  C   UNL     1      -0.599  12.859  18.575  0.00  0.00    +0.000 C 
ATOM     19  O   UNL     1      -0.677  14.227  19.014  0.00  0.00    +0.000 OA
ATOM     20  C   UNL     1      -1.498  13.860  20.142  0.00  0.00    +0.000 C 
BRANCH  17  21
ATOM     21  C   UNL     1      -2.938  11.931  19.197  0.00  0.00    +0.000 C 
BRANCH  21  27
ATOM     22  C   UNL     1      -5.244  12.110  17.046  0.00  0.00    +0.000 C 
ATOM     23  N   UNL     1      -3.978  11.440  16.907  0.00  0.00    +0.000 N 
ATOM     24  C   UNL     1      -3.585  10.736  15.808  0.00  0.00    +0.000 A 
ATOM     25  N   UNL     1      -2.402  10.214  16.021  0.00  0.00    +0.000 NA
ATOM     26  N   UNL     1      -2.014  10.574  17.288  0.00  0.00    +0.000 NA
ATOM     27  C   UNL     1      -2.953  11.337  17.818  0.00  0.00    +0.000 A 
ENDBRANCH  21  27
ENDBRANCH  17  21
ENDBRANCH  11  17
ENDBRANCH   1  15
BRANCH   8  28
ATOM     28  C   UNL     1       1.339   3.850  20.547  0.00  0.00    +0.000 C 
ATOM     29  C   UNL     1       1.542   2.361  20.591  0.00  0.00    +0.000 C 
ATOM     30  C   UNL     1       2.005   3.201  21.742  0.00  0.00    +0.000 C 
ENDBRANCH   8  28
BRANCH   6  31
ATOM     31  C   UNL     1       4.421   4.457  16.570  0.00  0.00    +0.000 C 
BRANCH  31  32
ATOM     32  N   UNL     1       5.743   4.083  17.096  0.00  0.00    +0.000 NA
ATOM     33  C   UNL     1       6.876   4.737  16.441  0.00  0.00    +0.000 C 
ATOM     34  C   UNL     1       7.156   6.156  16.935  0.00  0.00    +0.000 C 
ATOM     35  C   UNL     1       7.204   6.246  18.452  0.00  0.00    +0.000 C 
ATOM     36  F   UNL     1       8.380   5.703  18.880  0.00  0.00    +0.000 F 
ATOM     37  C   UNL     1       6.062   5.510  19.134  0.00  0.00    +0.000 C 
ATOM     38  C   UNL     1       5.871   4.115  18.552  0.00  0.00    +0.000 C 
ENDBRANCH  31  32
ENDBRANCH   6  31
TORSDOF 7
ENDMDL
MODEL 3
REMARK VINA RESULT:      -9.5      2.072      3.184
REMARK  Name = 
REMARK  8 active torsions:
REMARK  status: ('A' for Active; 'I' for Inactive)
REMARK    1  A    between atoms: C_1  and  N_2
REMARK    2  A    between atoms: C_6  and  C_7
REMARK    3  A    between atoms: C_7  and  C_8
REMARK    4  A    between atoms: C_8  and  C_9
REMARK    5  A    between atoms: C_13  and  N_14
REMARK    6  A    between atoms: C_19  and  C_20
REMARK    7  A    between atoms: C_20  and  N_21
REMARK    8  A    between atoms: C_29  and  C_30
REMARK                            x       y       z     vdW  Elec       q    Type
REMARK                         _______ _______ _______ _____ _____    ______ ____
ROOT
ATOM      1  N   UNL     1       1.153   8.427  20.457  0.00  0.00    +0.000 N 
ATOM      2  C   UNL     1       1.179   7.057  20.917  0.00  0.00    +0.000 C 
ATOM      3  C   UNL     1       1.938   6.323  19.887  0.00  0.00    +0.000 A 
ATOM      4  C   UNL     1       2.437   7.212  18.938  0.00  0.00    +0.000 A 
ATOM      5  C   UNL     1       3.204   6.742  17.879  0.00  0.00    +0.000 A 
ATOM      6  C   UNL     1       3.430   5.348  17.796  0.00  0.00    +0.000 A 
ATOM      7  C   UNL     1       2.865   4.479  18.772  0.00  0.00    +0.000 A 
ATOM      8  C   UNL     1       2.091   4.947  19.836  0.00  0.00    +0.000 A 
ATOM      9  C   UNL     1       1.923   8.580  19.292  0.00  0.00    +0.000 C 
ATOM     10  O   UNL     1       2.146   9.572  18.625  0.00  0.00    +0.000 OA
ENDROOT
BRANCH   1  15
ATOM     11  C   UNL     1      -1.169  11.348  20.927  0.00  0.00    +0.000 A 
ATOM     12  C   UNL     1      -1.224  11.388  22.327  0.00  0.00    +0.000 A 
ATOM     13  C   UNL     1      -0.562  10.430  23.116  0.00  0.00    +0.000 A 
ATOM     14  C   UNL     1       0.217   9.417  22.536  0.00  0.00    +0.000 A 
ATOM     15  C   UNL     1       0.328   9.348  21.156  0.00  0.00    +0.000 A 
ATOM     16  C   UNL     1      -0.397  10.300  20.402  0.00  0.00    +0.000 A 
BRANCH  11  17
ATOM     17  C   UNL     1      -1.910  12.387  19.928  0.00  0.00    +0.000 C 
ATOM     18  C   UNL     1      -3.423  12.606  20.201  0.00  0.00    +0.000 C 
ATOM     19  O   UNL     1      -3.798  12.148  18.889  0.00  0.00    +0.000 OA
ATOM     20  C   UNL     1      -2.428  11.841  18.561  0.00  0.00    +0.000 C 
BRANCH  17  21
ATOM     21  C   UNL     1      -1.116  13.709  19.775  0.00  0.00    +0.000 C 
BRANCH  21  27
ATOM     22  C   UNL     1       1.276  14.498  21.682  0.00  0.00    +0.000 C 
ATOM     23  N   UNL     1       1.367  13.891  20.380  0.00  0.00    +0.000 N 
ATOM     24  C   UNL     1       2.533  13.584  19.743  0.00  0.00    +0.000 A 
ATOM     25  N   UNL     1       2.269  13.088  18.560  0.00  0.00    +0.000 NA
ATOM     26  N   UNL     1       0.904  13.075  18.413  0.00  0.00    +0.000 NA
ATOM     27  C   UNL     1       0.354  13.536  19.521  0.00  0.00    +0.000 A 
ENDBRANCH  21  27
ENDBRANCH  17  21
ENDBRANCH  11  17
ENDBRANCH   1  15
BRANCH   8  28
ATOM     28  C   UNL     1       1.364   4.041  20.795  0.00  0.00    +0.000 C 
ATOM     29  C   UNL     1       1.362   2.545  20.640  0.00  0.00    +0.000 C 
ATOM     30  C   UNL     1       2.140   3.167  21.758  0.00  0.00    +0.000 C 
ENDBRANCH   8  28
BRANCH   6  31
ATOM     31  C   UNL     1       4.285   4.704  16.708  0.00  0.00    +0.000 C 
BRANCH  31  32
ATOM     32  N   UNL     1       5.525   4.132  17.256  0.00  0.00    +0.000 NA
ATOM     33  C   UNL     1       6.748   4.522  16.555  0.00  0.00    +0.000 C 
ATOM     34  C   UNL     1       7.287   5.898  16.948  0.00  0.00    +0.000 C 
ATOM     35  C   UNL     1       7.373   6.080  18.456  0.00  0.00    +0.000 C 
ATOM     36  F   UNL     1       8.437   5.363  18.918  0.00  0.00    +0.000 F 
ATOM     37  C   UNL     1       6.126   5.612  19.189  0.00  0.00    +0.000 C 
ATOM     38  C   UNL     1       5.678   4.239  18.706  0.00  0.00    +0.000 C 
ENDBRANCH  31  32
ENDBRANCH   6  31
TORSDOF 7
ENDMDL
MODEL 4
REMARK VINA RESULT:      -9.5      1.729      2.759
REMARK  Name = 
REMARK  8 active torsions:
REMARK  status: ('A' for Active; 'I' for Inactive)
REMARK    1  A    between atoms: C_1  and  N_2
REMARK    2  A    between atoms: C_6  and  C_7
REMARK    3  A    between atoms: C_7  and  C_8
REMARK    4  A    between atoms: C_8  and  C_9
REMARK    5  A    between atoms: C_13  and  N_14
REMARK    6  A    between atoms: C_19  and  C_20
REMARK    7  A    between atoms: C_20  and  N_21
REMARK    8  A    between atoms: C_29  and  C_30
REMARK                            x       y       z     vdW  Elec       q    Type
REMARK                         _______ _______ _______ _____ _____    ______ ____
ROOT
ATOM      1  N   UNL     1       1.167   8.370  20.475  0.00  0.00    +0.000 N 
ATOM      2  C   UNL     1       1.219   7.021  20.995  0.00  0.00    +0.000 C 
ATOM      3  C   UNL     1       1.969   6.251  19.983  0.00  0.00    +0.000 A 
ATOM      4  C   UNL     1       2.439   7.104  18.987  0.00  0.00    +0.000 A 
ATOM      5  C   UNL     1       3.193   6.597  17.936  0.00  0.00    +0.000 A 
ATOM      6  C   UNL     1       3.435   5.204  17.910  0.00  0.00    +0.000 A 
ATOM      7  C   UNL     1       2.900   4.372  18.934  0.00  0.00    +0.000 A 
ATOM      8  C   UNL     1       2.139   4.877  19.991  0.00  0.00    +0.000 A 
ATOM      9  C   UNL     1       1.914   8.480  19.290  0.00  0.00    +0.000 C 
ATOM     10  O   UNL     1       2.112   9.444  18.576  0.00  0.00    +0.000 OA
ENDROOT
BRANCH   1  15
ATOM     11  C   UNL     1      -1.139  11.315  20.865  0.00  0.00    +0.000 A 
ATOM     12  C   UNL     1      -1.205  11.384  22.264  0.00  0.00    +0.000 A 
ATOM     13  C   UNL     1      -0.555  10.439  23.078  0.00  0.00    +0.000 A 
ATOM     14  C   UNL     1       0.222   9.409  22.525  0.00  0.00    +0.000 A 
ATOM     15  C   UNL     1       0.343   9.310  21.148  0.00  0.00    +0.000 A 
ATOM     16  C   UNL     1      -0.371  10.250  20.368  0.00  0.00    +0.000 A 
BRANCH  11  17
ATOM     17  C   UNL     1      -1.866  12.337  19.839  0.00  0.00    +0.000 C 
ATOM     18  C   UNL     1      -3.380  12.569  20.093  0.00  0.00    +0.000 C 
ATOM     19  O   UNL     1      -3.746  12.087  18.788  0.00  0.00    +0.000 OA
ATOM     20  C   UNL     1      -2.374  11.766  18.478  0.00  0.00    +0.000 C 
BRANCH  17  21
ATOM     21  C   UNL     1      -1.063  13.651  19.667  0.00  0.00    +0.000 C 
BRANCH  21  27
ATOM     22  C   UNL     1       1.158  14.493  21.749  0.00  0.00    +0.000 C 
ATOM     23  N   UNL     1       1.360  13.850  20.477  0.00  0.00    +0.000 N 
ATOM     24  C   UNL     1       2.574  13.527  19.951  0.00  0.00    +0.000 A 
ATOM     25  N   UNL     1       2.412  12.998  18.763  0.00  0.00    +0.000 NA
ATOM     26  N   UNL     1       1.064  12.981  18.500  0.00  0.00    +0.000 NA
ATOM     27  C   UNL     1       0.423  13.472  19.544  0.00  0.00    +0.000 A 
ENDBRANCH  21  27
ENDBRANCH  17  21
ENDBRANCH  11  17
ENDBRANCH   1  15
BRANCH   8  28
ATOM     28  C   UNL     1       1.441   4.006  21.002  0.00  0.00    +0.000 C 
ATOM     29  C   UNL     1       1.399   2.507  20.876  0.00  0.00    +0.000 C 
ATOM     30  C   UNL     1       2.246   3.132  21.942  0.00  0.00    +0.000 C 
ENDBRANCH   8  28
BRANCH   6  31
ATOM     31  C   UNL     1       4.279   4.522  16.836  0.00  0.00    +0.000 C 
BRANCH  31  32
ATOM     32  N   UNL     1       5.018   5.500  16.021  0.00  0.00    +0.000 NA
ATOM     33  C   UNL     1       6.366   5.809  16.499  0.00  0.00    +0.000 C 
ATOM     34  C   UNL     1       7.425   4.780  16.105  0.00  0.00    +0.000 C 
ATOM     35  C   UNL     1       7.376   4.431  14.625  0.00  0.00    +0.000 C 
ATOM     36  F   UNL     1       7.905   5.471  13.918  0.00  0.00    +0.000 F 
ATOM     37  C   UNL     1       5.967   4.175  14.115  0.00  0.00    +0.000 C 
ATOM     38  C   UNL     1       5.000   5.257  14.580  0.00  0.00    +0.000 C 
ENDBRANCH  31  32
ENDBRANCH   6  31
TORSDOF 7
ENDMDL
MODEL 5
REMARK VINA RESULT:      -9.4      1.964      2.934
REMARK  Name = 
REMARK  8 active torsions:
REMARK  status: ('A' for Active; 'I' for Inactive)
REMARK    1  A    between atoms: C_1  and  N_2
REMARK    2  A    between atoms: C_6  and  C_7
REMARK    3  A    between atoms: C_7  and  C_8
REMARK    4  A    between atoms: C_8  and  C_9
REMARK    5  A    between atoms: C_13  and  N_14
REMARK    6  A    between atoms: C_19  and  C_20
REMARK    7  A    between atoms: C_20  and  N_21
REMARK    8  A    between atoms: C_29  and  C_30
REMARK                            x       y       z     vdW  Elec       q    Type
REMARK                         _______ _______ _______ _____ _____    ______ ____
ROOT
ATOM      1  N   UNL     1       1.265   8.339  20.478  0.00  0.00    +0.000 N 
ATOM      2  C   UNL     1       1.446   7.036  21.078  0.00  0.00    +0.000 C 
ATOM      3  C   UNL     1       2.167   6.245  20.063  0.00  0.00    +0.000 A 
ATOM      4  C   UNL     1       2.504   7.054  18.980  0.00  0.00    +0.000 A 
ATOM      5  C   UNL     1       3.210   6.522  17.907  0.00  0.00    +0.000 A 
ATOM      6  C   UNL     1       3.542   5.147  17.953  0.00  0.00    +0.000 A 
ATOM      7  C   UNL     1       3.141   4.358  19.068  0.00  0.00    +0.000 A 
ATOM      8  C   UNL     1       2.429   4.887  20.146  0.00  0.00    +0.000 A 
ATOM      9  C   UNL     1       1.912   8.412  19.233  0.00  0.00    +0.000 C 
ATOM     10  O   UNL     1       1.992   9.334  18.444  0.00  0.00    +0.000 OA
ENDROOT
BRANCH   1  15
ATOM     11  C   UNL     1      -0.970  11.336  20.889  0.00  0.00    +0.000 A 
ATOM     12  C   UNL     1      -1.113  11.339  22.283  0.00  0.00    +0.000 A 
ATOM     13  C   UNL     1      -0.540  10.334  23.084  0.00  0.00    +0.000 A 
ATOM     14  C   UNL     1       0.236   9.307  22.523  0.00  0.00    +0.000 A 
ATOM     15  C   UNL     1       0.433   9.273  21.152  0.00  0.00    +0.000 A 
ATOM     16  C   UNL     1      -0.207  10.273  20.382  0.00  0.00    +0.000 A 
BRANCH  11  17
ATOM     17  C   UNL     1      -1.605  12.432  19.878  0.00  0.00    +0.000 C 
ATOM     18  C   UNL     1      -3.156  12.444  19.801  0.00  0.00    +0.000 C 
ATOM     19  O   UNL     1      -3.160  12.156  18.391  0.00  0.00    +0.000 OA
ATOM     20  C   UNL     1      -1.721  12.050  18.369  0.00  0.00    +0.000 C 
BRANCH  17  21
ATOM     21  C   UNL     1      -0.989  13.838  20.087  0.00  0.00    +0.000 C 
BRANCH  21  27
ATOM     22  C   UNL     1       1.573  13.225  18.343  0.00  0.00    +0.000 C 
ATOM     23  N   UNL     1       1.535  13.568  19.741  0.00  0.00    +0.000 N 
ATOM     24  C   UNL     1       2.627  13.653  20.552  0.00  0.00    +0.000 A 
ATOM     25  N   UNL     1       2.247  13.939  21.772  0.00  0.00    +0.000 NA
ATOM     26  N   UNL     1       0.877  14.036  21.765  0.00  0.00    +0.000 NA
ATOM     27  C   UNL     1       0.445  13.838  20.533  0.00  0.00    +0.000 A 
ENDBRANCH  21  27
ENDBRANCH  17  21
ENDBRANCH  11  17
ENDBRANCH   1  15
BRANCH   8  28
ATOM     28  C   UNL     1       1.868   4.048  21.264  0.00  0.00    +0.000 C 
ATOM     29  C   UNL     1       1.152   2.750  21.010  0.00  0.00    +0.000 C 
ATOM     30  C   UNL     1       2.516   2.728  21.628  0.00  0.00    +0.000 C 
ENDBRANCH   8  28
BRANCH   6  31
ATOM     31  C   UNL     1       4.347   4.446  16.862  0.00  0.00    +0.000 C 
BRANCH  31  32
ATOM     32  N   UNL     1       5.024   5.408  15.980  0.00  0.00    +0.000 NA
ATOM     33  C   UNL     1       6.379   5.776  16.391  0.00  0.00    +0.000 C 
ATOM     34  C   UNL     1       7.453   4.762  15.998  0.00  0.00    +0.000 C 
ATOM     35  C   UNL     1       7.358   4.350  14.537  0.00  0.00    +0.000 C 
ATOM     36  F   UNL     1       7.828   5.373  13.767  0.00  0.00    +0.000 F 
ATOM     37  C   UNL     1       5.939   4.032  14.094  0.00  0.00    +0.000 C 
ATOM     38  C   UNL     1       4.958   5.104  14.551  0.00  0.00    +0.000 C 
ENDBRANCH  31  32
ENDBRANCH   6  31
TORSDOF 7
ENDMDL
MODEL 6
REMARK VINA RESULT:      -9.3      2.147      2.797
REMARK  Name = 
REMARK  8 active torsions:
REMARK  status: ('A' for Active; 'I' for Inactive)
REMARK    1  A    between atoms: C_1  and  N_2
REMARK    2  A    between atoms: C_6  and  C_7
REMARK    3  A    between atoms: C_7  and  C_8
REMARK    4  A    between atoms: C_8  and  C_9
REMARK    5  A    between atoms: C_13  and  N_14
REMARK    6  A    between atoms: C_19  and  C_20
REMARK    7  A    between atoms: C_20  and  N_21
REMARK    8  A    between atoms: C_29  and  C_30
REMARK                            x       y       z     vdW  Elec       q    Type
REMARK                         _______ _______ _______ _____ _____    ______ ____
ROOT
ATOM      1  N   UNL     1       1.204   8.369  20.411  0.00  0.00    +0.000 N 
ATOM      2  C   UNL     1       1.230   6.999  20.872  0.00  0.00    +0.000 C 
ATOM      3  C   UNL     1       1.993   6.265  19.844  0.00  0.00    +0.000 A 
ATOM      4  C   UNL     1       2.495   7.154  18.897  0.00  0.00    +0.000 A 
ATOM      5  C   UNL     1       3.266   6.685  17.841  0.00  0.00    +0.000 A 
ATOM      6  C   UNL     1       3.494   5.291  17.760  0.00  0.00    +0.000 A 
ATOM      7  C   UNL     1       2.927   4.422  18.735  0.00  0.00    +0.000 A 
ATOM      8  C   UNL     1       2.149   4.889  19.795  0.00  0.00    +0.000 A 
ATOM      9  C   UNL     1       1.978   8.521  19.248  0.00  0.00    +0.000 C 
ATOM     10  O   UNL     1       2.202   9.513  18.581  0.00  0.00    +0.000 OA
ENDROOT
BRANCH   1  15
ATOM     11  C   UNL     1      -1.222  11.207  20.859  0.00  0.00    +0.000 A 
ATOM     12  C   UNL     1      -1.206  11.319  22.256  0.00  0.00    +0.000 A 
ATOM     13  C   UNL     1      -0.459  10.434  23.055  0.00  0.00    +0.000 A 
ATOM     14  C   UNL     1       0.334   9.426  22.485  0.00  0.00    +0.000 A 
ATOM     15  C   UNL     1       0.376   9.289  21.107  0.00  0.00    +0.000 A 
ATOM     16  C   UNL     1      -0.432  10.166  20.346  0.00  0.00    +0.000 A 
BRANCH  11  17
ATOM     17  C   UNL     1      -2.062  12.159  19.851  0.00  0.00    +0.000 C 
ATOM     18  C   UNL     1      -2.975  11.414  18.840  0.00  0.00    +0.000 C 
ATOM     19  O   UNL     1      -2.297  11.976  17.702  0.00  0.00    +0.000 OA
ATOM     20  C   UNL     1      -1.350  12.655  18.553  0.00  0.00    +0.000 C 
BRANCH  17  21
ATOM     21  C   UNL     1      -2.785  13.303  20.604  0.00  0.00    +0.000 C 
BRANCH  21  27
ATOM     22  C   UNL     1      -5.616  13.805  19.295  0.00  0.00    +0.000 C 
ATOM     23  N   UNL     1      -5.343  13.173  20.560  0.00  0.00    +0.000 N 
ATOM     24  C   UNL     1      -6.293  12.711  21.421  0.00  0.00    +0.000 A 
ATOM     25  N   UNL     1      -5.717  12.237  22.497  0.00  0.00    +0.000 NA
ATOM     26  N   UNL     1      -4.362  12.397  22.345  0.00  0.00    +0.000 NA
ATOM     27  C   UNL     1      -4.130  12.940  21.163  0.00  0.00    +0.000 A 
ENDBRANCH  21  27
ENDBRANCH  17  21
ENDBRANCH  11  17
ENDBRANCH   1  15
BRANCH   8  28
ATOM     28  C   UNL     1       1.419   3.983  20.753  0.00  0.00    +0.000 C 
ATOM     29  C   UNL     1       1.438   2.486  20.611  0.00  0.00    +0.000 C 
ATOM     30  C   UNL     1       2.192   3.127  21.734  0.00  0.00    +0.000 C 
ENDBRANCH   8  28
BRANCH   6  31
ATOM     31  C   UNL     1       4.354   4.647  16.675  0.00  0.00    +0.000 C 
BRANCH  31  32
ATOM     32  N   UNL     1       5.610   4.111  17.222  0.00  0.00    +0.000 NA
ATOM     33  C   UNL     1       6.823   4.564  16.541  0.00  0.00    +0.000 C 
ATOM     34  C   UNL     1       7.306   5.950  16.970  0.00  0.00    +0.000 C 
ATOM     35  C   UNL     1       7.371   6.101  18.483  0.00  0.00    +0.000 C 
ATOM     36  F   UNL     1       8.458   5.415  18.939  0.00  0.00    +0.000 F 
ATOM     37  C   UNL     1       6.137   5.569  19.193  0.00  0.00    +0.000 C 
ATOM     38  C   UNL     1       5.746   4.190  18.675  0.00  0.00    +0.000 C 
ENDBRANCH  31  32
ENDBRANCH   6  31
TORSDOF 7
ENDMDL
MODEL 7
REMARK VINA RESULT:      -9.3      1.399      2.046
REMARK  Name = 
REMARK  8 active torsions:
REMARK  status: ('A' for Active; 'I' for Inactive)
REMARK    1  A    between atoms: C_1  and  N_2
REMARK    2  A    between atoms: C_6  and  C_7
REMARK    3  A    between atoms: C_7  and  C_8
REMARK    4  A    between atoms: C_8  and  C_9
REMARK    5  A    between atoms: C_13  and  N_14
REMARK    6  A    between atoms: C_19  and  C_20
REMARK    7  A    between atoms: C_20  and  N_21
REMARK    8  A    between atoms: C_29  and  C_30
REMARK                            x       y       z     vdW  Elec       q    Type
REMARK                         _______ _______ _______ _____ _____    ______ ____
ROOT
ATOM      1  N   UNL     1       1.134   8.416  20.510  0.00  0.00    +0.000 N 
ATOM      2  C   UNL     1       1.163   7.040  20.954  0.00  0.00    +0.000 C 
ATOM      3  C   UNL     1       1.918   6.319  19.911  0.00  0.00    +0.000 A 
ATOM      4  C   UNL     1       2.413   7.220  18.971  0.00  0.00    +0.000 A 
ATOM      5  C   UNL     1       3.176   6.763  17.904  0.00  0.00    +0.000 A 
ATOM      6  C   UNL     1       3.402   5.370  17.803  0.00  0.00    +0.000 A 
ATOM      7  C   UNL     1       2.841   4.489  18.771  0.00  0.00    +0.000 A 
ATOM      8  C   UNL     1       2.072   4.944  19.844  0.00  0.00    +0.000 A 
ATOM      9  C   UNL     1       1.900   8.583  19.344  0.00  0.00    +0.000 C 
ATOM     10  O   UNL     1       2.120   9.583  18.687  0.00  0.00    +0.000 OA
ENDROOT
BRANCH   1  15
ATOM     11  C   UNL     1      -0.802  11.575  21.154  0.00  0.00    +0.000 A 
ATOM     12  C   UNL     1      -1.161  11.368  22.493  0.00  0.00    +0.000 A 
ATOM     13  C   UNL     1      -0.830  10.178  23.167  0.00  0.00    +0.000 A 
ATOM     14  C   UNL     1      -0.091   9.163  22.539  0.00  0.00    +0.000 A 
ATOM     15  C   UNL     1       0.312   9.328  21.224  0.00  0.00    +0.000 A 
ATOM     16  C   UNL     1      -0.088  10.517  20.570  0.00  0.00    +0.000 A 
BRANCH  11  17
ATOM     17  C   UNL     1      -1.151  12.896  20.283  0.00  0.00    +0.000 C 
ATOM     18  C   UNL     1      -0.191  14.099  20.487  0.00  0.00    +0.000 C 
ATOM     19  O   UNL     1      -1.251  14.960  20.940  0.00  0.00    +0.000 OA
ATOM     20  C   UNL     1      -2.212  13.888  20.855  0.00  0.00    +0.000 C 
BRANCH  17  21
ATOM     21  C   UNL     1      -1.402  12.556  18.792  0.00  0.00    +0.000 C 
BRANCH  21  27
ATOM     22  C   UNL     1      -1.679   9.874  17.147  0.00  0.00    +0.000 C 
ATOM     23  N   UNL     1      -2.732  10.601  17.806  0.00  0.00    +0.000 N 
ATOM     24  C   UNL     1      -4.048  10.249  17.793  0.00  0.00    +0.000 A 
ATOM     25  N   UNL     1      -4.749  11.143  18.445  0.00  0.00    +0.000 NA
ATOM     26  N   UNL     1      -3.877  12.106  18.889  0.00  0.00    +0.000 NA
ATOM     27  C   UNL     1      -2.653  11.769  18.526  0.00  0.00    +0.000 A 
ENDBRANCH  21  27
ENDBRANCH  17  21
ENDBRANCH  11  17
ENDBRANCH   1  15
BRANCH   8  28
ATOM     28  C   UNL     1       1.348   4.026  20.795  0.00  0.00    +0.000 C 
ATOM     29  C   UNL     1       1.445   2.529  20.693  0.00  0.00    +0.000 C 
ATOM     30  C   UNL     1       2.122   3.234  21.828  0.00  0.00    +0.000 C 
ENDBRANCH   8  28
BRANCH   6  31
ATOM     31  C   UNL     1       4.253   4.739  16.704  0.00  0.00    +0.000 C 
BRANCH  31  32
ATOM     32  N   UNL     1       5.484   4.141  17.244  0.00  0.00    +0.000 NA
ATOM     33  C   UNL     1       6.710   4.504  16.533  0.00  0.00    +0.000 C 
ATOM     34  C   UNL     1       7.282   5.868  16.920  0.00  0.00    +0.000 C 
ATOM     35  C   UNL     1       7.383   6.051  18.427  0.00  0.00    +0.000 C 
ATOM     36  F   UNL     1       8.435   5.311  18.882  0.00  0.00    +0.000 F 
ATOM     37  C   UNL     1       6.132   5.610  19.170  0.00  0.00    +0.000 C 
ATOM     38  C   UNL     1       5.650   4.246  18.692  0.00  0.00    +0.000 C 
ENDBRANCH  31  32
ENDBRANCH   6  31
TORSDOF 7
ENDMDL
MODEL 8
REMARK VINA RESULT:      -9.3      1.921      2.813
REMARK  Name = 
REMARK  8 active torsions:
REMARK  status: ('A' for Active; 'I' for Inactive)
REMARK    1  A    between atoms: C_1  and  N_2
REMARK    2  A    between atoms: C_6  and  C_7
REMARK    3  A    between atoms: C_7  and  C_8
REMARK    4  A    between atoms: C_8  and  C_9
REMARK    5  A    between atoms: C_13  and  N_14
REMARK    6  A    between atoms: C_19  and  C_20
REMARK    7  A    between atoms: C_20  and  N_21
REMARK    8  A    between atoms: C_29  and  C_30
REMARK                            x       y       z     vdW  Elec       q    Type
REMARK                         _______ _______ _______ _____ _____    ______ ____
ROOT
ATOM      1  N   UNL     1       1.167   8.438  20.583  0.00  0.00    +0.000 N 
ATOM      2  C   UNL     1       1.399   7.135  21.166  0.00  0.00    +0.000 C 
ATOM      3  C   UNL     1       2.114   6.373  20.124  0.00  0.00    +0.000 A 
ATOM      4  C   UNL     1       2.401   7.201  19.040  0.00  0.00    +0.000 A 
ATOM      5  C   UNL     1       3.091   6.698  17.944  0.00  0.00    +0.000 A 
ATOM      6  C   UNL     1       3.461   5.333  17.968  0.00  0.00    +0.000 A 
ATOM      7  C   UNL     1       3.112   4.522  19.085  0.00  0.00    +0.000 A 
ATOM      8  C   UNL     1       2.415   5.022  20.187  0.00  0.00    +0.000 A 
ATOM      9  C   UNL     1       1.779   8.540  19.323  0.00  0.00    +0.000 C 
ATOM     10  O   UNL     1       1.813   9.471  18.541  0.00  0.00    +0.000 OA
ENDROOT
BRANCH   1  15
ATOM     11  C   UNL     1      -1.055  11.427  21.105  0.00  0.00    +0.000 A 
ATOM     12  C   UNL     1      -1.226  11.359  22.495  0.00  0.00    +0.000 A 
ATOM     13  C   UNL     1      -0.674  10.310  23.253  0.00  0.00    +0.000 A 
ATOM     14  C   UNL     1       0.105   9.307  22.655  0.00  0.00    +0.000 A 
ATOM     15  C   UNL     1       0.328   9.342  21.288  0.00  0.00    +0.000 A 
ATOM     16  C   UNL     1      -0.289  10.384  20.559  0.00  0.00    +0.000 A 
BRANCH  11  17
ATOM     17  C   UNL     1      -1.664  12.577  20.140  0.00  0.00    +0.000 C 
ATOM     18  C   UNL     1      -2.162  13.857  20.863  0.00  0.00    +0.000 C 
ATOM     19  O   UNL     1      -3.505  13.699  20.371  0.00  0.00    +0.000 OA
ATOM     20  C   UNL     1      -3.163  12.459  19.720  0.00  0.00    +0.000 C 
BRANCH  17  21
ATOM     21  C   UNL     1      -0.734  12.873  18.936  0.00  0.00    +0.000 C 
BRANCH  21  27
ATOM     22  C   UNL     1       2.026  13.205  20.435  0.00  0.00    +0.000 C 
ATOM     23  N   UNL     1       1.293  14.224  19.730  0.00  0.00    +0.000 N 
ATOM     24  C   UNL     1       1.675  15.528  19.625  0.00  0.00    +0.000 A 
ATOM     25  N   UNL     1       0.768  16.199  18.960  0.00  0.00    +0.000 NA
ATOM     26  N   UNL     1      -0.234  15.321  18.628  0.00  0.00    +0.000 NA
ATOM     27  C   UNL     1       0.092  14.120  19.069  0.00  0.00    +0.000 A 
ENDBRANCH  21  27
ENDBRANCH  17  21
ENDBRANCH  11  17
ENDBRANCH   1  15
BRANCH   8  28
ATOM     28  C   UNL     1       1.907   4.157  21.311  0.00  0.00    +0.000 C 
ATOM     29  C   UNL     1       1.119   2.901  21.061  0.00  0.00    +0.000 C 
ATOM     30  C   UNL     1       2.524   2.799  21.568  0.00  0.00    +0.000 C 
ENDBRANCH   8  28
BRANCH   6  31
ATOM     31  C   UNL     1       4.256   4.664  16.849  0.00  0.00    +0.000 C 
BRANCH  31  32
ATOM     32  N   UNL     1       5.111   5.626  16.136  0.00  0.00    +0.000 NA
ATOM     33  C   UNL     1       6.487   5.710  16.626  0.00  0.00    +0.000 C 
ATOM     34  C   UNL     1       7.409   4.608  16.105  0.00  0.00    +0.000 C 
ATOM     35  C   UNL     1       7.316   4.434  14.597  0.00  0.00    +0.000 C 
ATOM     36  F   UNL     1       7.970   5.472  14.001  0.00  0.00    +0.000 F 
ATOM     37  C   UNL     1       5.885   4.413  14.082  0.00  0.00    +0.000 C 
ATOM     38  C   UNL     1       5.062   5.549  14.677  0.00  0.00    +0.000 C 
ENDBRANCH  31  32
ENDBRANCH   6  31
TORSDOF 7
ENDMDL
MODEL 9
REMARK VINA RESULT:      -9.3      1.403      1.959
REMARK  Name = 
REMARK  8 active torsions:
REMARK  status: ('A' for Active; 'I' for Inactive)
REMARK    1  A    between atoms: C_1  and  N_2
REMARK    2  A    between atoms: C_6  and  C_7
REMARK    3  A    between atoms: C_7  and  C_8
REMARK    4  A    between atoms: C_8  and  C_9
REMARK    5  A    between atoms: C_13  and  N_14
REMARK    6  A    between atoms: C_19  and  C_20
REMARK    7  A    between atoms: C_20  and  N_21
REMARK    8  A    between atoms: C_29  and  C_30
REMARK                            x       y       z     vdW  Elec       q    Type
REMARK                         _______ _______ _______ _____ _____    ______ ____
ROOT
ATOM      1  N   UNL     1       1.196   8.380  20.506  0.00  0.00    +0.000 N 
ATOM      2  C   UNL     1       1.290   7.043  21.048  0.00  0.00    +0.000 C 
ATOM      3  C   UNL     1       2.046   6.274  20.040  0.00  0.00    +0.000 A 
ATOM      4  C   UNL     1       2.481   7.121  19.023  0.00  0.00    +0.000 A 
ATOM      5  C   UNL     1       3.234   6.615  17.970  0.00  0.00    +0.000 A 
ATOM      6  C   UNL     1       3.512   5.228  17.966  0.00  0.00    +0.000 A 
ATOM      7  C   UNL     1       3.012   4.401  19.011  0.00  0.00    +0.000 A 
ATOM      8  C   UNL     1       2.252   4.905  20.069  0.00  0.00    +0.000 A 
ATOM      9  C   UNL     1       1.924   8.488  19.309  0.00  0.00    +0.000 C 
ATOM     10  O   UNL     1       2.088   9.444  18.576  0.00  0.00    +0.000 OA
ENDROOT
BRANCH   1  15
ATOM     11  C   UNL     1      -0.904  11.468  20.948  0.00  0.00    +0.000 A 
ATOM     12  C   UNL     1      -1.173  11.381  22.321  0.00  0.00    +0.000 A 
ATOM     13  C   UNL     1      -0.728  10.290  23.090  0.00  0.00    +0.000 A 
ATOM     14  C   UNL     1       0.040   9.260  22.522  0.00  0.00    +0.000 A 
ATOM     15  C   UNL     1       0.357   9.311  21.174  0.00  0.00    +0.000 A 
ATOM     16  C   UNL     1      -0.156  10.399  20.430  0.00  0.00    +0.000 A 
BRANCH  11  17
ATOM     17  C   UNL     1      -1.387  12.667  19.972  0.00  0.00    +0.000 C 
ATOM     18  C   UNL     1      -1.638  12.261  18.494  0.00  0.00    +0.000 C 
ATOM     19  O   UNL     1      -0.650  13.182  17.998  0.00  0.00    +0.000 OA
ATOM     20  C   UNL     1      -0.289  13.578  19.337  0.00  0.00    +0.000 C 
BRANCH  17  21
ATOM     21  C   UNL     1      -2.550  13.484  20.590  0.00  0.00    +0.000 C 
BRANCH  21  27
ATOM     22  C   UNL     1      -4.738  13.056  22.828  0.00  0.00    +0.000 C 
ATOM     23  N   UNL     1      -4.836  12.698  21.437  0.00  0.00    +0.000 N 
ATOM     24  C   UNL     1      -5.906  12.075  20.867  0.00  0.00    +0.000 A 
ATOM     25  N   UNL     1      -5.659  11.850  19.600  0.00  0.00    +0.000 NA
ATOM     26  N   UNL     1      -4.399  12.327  19.334  0.00  0.00    +0.000 NA
ATOM     27  C   UNL     1      -3.908  12.864  20.436  0.00  0.00    +0.000 A 
ENDBRANCH  21  27
ENDBRANCH  17  21
ENDBRANCH  11  17
ENDBRANCH   1  15
BRANCH   8  28
ATOM     28  C   UNL     1       1.590   4.034  21.105  0.00  0.00    +0.000 C 
ATOM     29  C   UNL     1       1.253   2.592  20.843  0.00  0.00    +0.000 C 
ATOM     30  C   UNL     1       2.370   2.927  21.783  0.00  0.00    +0.000 C 
ENDBRANCH   8  28
BRANCH   6  31
ATOM     31  C   UNL     1       4.359   4.549  16.892  0.00  0.00    +0.000 C 
BRANCH  31  32
ATOM     32  N   UNL     1       5.116   5.528  16.096  0.00  0.00    +0.000 NA
ATOM     33  C   UNL     1       6.499   5.736  16.525  0.00  0.00    +0.000 C 
ATOM     34  C   UNL     1       7.479   4.673  16.028  0.00  0.00    +0.000 C 
ATOM     35  C   UNL     1       7.345   4.409  14.536  0.00  0.00    +0.000 C 
ATOM     36  F   UNL     1       7.901   5.455  13.861  0.00  0.00    +0.000 F 
ATOM     37  C   UNL     1       5.902   4.259  14.081  0.00  0.00    +0.000 C 
ATOM     38  C   UNL     1       5.021   5.365  14.646  0.00  0.00    +0.000 C 
ENDBRANCH  31  32
ENDBRANCH   6  31
TORSDOF 7
ENDMDL
