MODEL 1
REMARK VINA RESULT:      -8.6      0.000      0.000
REMARK  Name = 
REMARK  6 active torsions:
REMARK  status: ('A' for Active; 'I' for Inactive)
REMARK    1  A    between atoms: C_1  and  C_2
REMARK    2  A    between atoms: C_2  and  C_3
REMARK    3  A    between atoms: C_2  and  C_10
REMARK    4  A    between atoms: C_3  and  C_4
REMARK    5  A    between atoms: N_8  and  C_9
REMARK    6  A    between atoms: C_14  and  N_15
REMARK                            x       y       z     vdW  Elec       q    Type
REMARK                         _______ _______ _______ _____ _____    ______ ____
ROOT
ATOM      1  C   UNL     1       4.188   5.221  17.126  0.00  0.00    +0.000 A 
ATOM      2  C   UNL     1       3.590   3.999  17.467  0.00  0.00    +0.000 A 
ATOM      3  C   UNL     1       2.444   3.956  18.262  0.00  0.00    +0.000 A 
ATOM      4  C   UNL     1       1.881   5.130  18.755  0.00  0.00    +0.000 A 
ATOM      5  C   UNL     1       2.466   6.357  18.464  0.00  0.00    +0.000 A 
ATOM      6  C   UNL     1       3.606   6.395  17.641  0.00  0.00    +0.000 A 
ENDROOT
BRANCH   5   7
ATOM      7  N   UNL     1       1.971   7.584  18.934  0.00  0.00    +0.000 N 
ATOM      8  C   UNL     1       1.921   8.807  18.309  0.00  0.00    +0.000 C 
ATOM      9  O   UNL     1       2.304   9.013  17.157  0.00  0.00    +0.000 OA
ATOM     10  N   UNL     1       1.416   9.852  19.089  0.00  0.00    +0.000 N 
ATOM     11  C   UNL     1       1.338  11.188  18.504  0.00  0.00    +0.000 C 
ATOM     12  C   UNL     1       1.595  12.250  19.560  0.00  0.00    +0.000 C 
ATOM     13  O   UNL     1       0.642  12.171  20.628  0.00  0.00    +0.000 OA
ATOM     14  C   UNL     1       0.451  10.887  21.072  0.00  0.00    +0.000 A 
ATOM     15  C   UNL     1      -0.185  10.754  22.305  0.00  0.00    +0.000 A 
ATOM     16  C   UNL     1      -0.419   9.488  22.826  0.00  0.00    +0.000 A 
ATOM     17  C   UNL     1       0.003   8.396  22.093  0.00  0.00    +0.000 A 
ATOM     18  N   UNL     1       0.624   8.491  20.897  0.00  0.00    +0.000 NA
ATOM     19  C   UNL     1       0.829   9.730  20.380  0.00  0.00    +0.000 A 
ATOM     20  H   UNL     1       1.506   7.568  19.836  0.00  0.00    +0.000 HD
ENDBRANCH   5   7
BRANCH   1  22
ATOM     21  C   UNL     1       5.340   4.351  15.003  0.00  0.00    +0.000 C 
ATOM     22  C   UNL     1       5.401   5.322  16.197  0.00  0.00    +0.000 C 
BRANCH  22  23
ATOM     23  C   UNL     1       6.724   5.152  16.985  0.00  0.00    +0.000 C 
BRANCH  23  24
ATOM     24  C   UNL     1       7.279   6.457  17.461  0.00  0.00    +0.000 A 
ATOM     25  N   UNL     1       7.260   7.600  16.806  0.00  0.00    +0.000 NA
ATOM     26  N   UNL     1       7.952   8.531  17.547  0.00  0.00    +0.000 NA
ATOM     27  C   UNL     1       8.367   7.940  18.641  0.00  0.00    +0.000 A 
ATOM     28  N   UNL     1       7.948   6.646  18.643  0.00  0.00    +0.000 N 
ATOM     29  C   UNL     1       8.186   5.680  19.680  0.00  0.00    +0.000 C 
ENDBRANCH  23  24
ENDBRANCH  22  23
ENDBRANCH   1  22
TORSDOF 4
ENDMDL
MODEL 2
REMARK VINA RESULT:      -8.4      1.551      2.516
REMARK  Name = 
REMARK  6 active torsions:
REMARK  status: ('A' for Active; 'I' for Inactive)
REMARK    1  A    between atoms: C_1  and  C_2
REMARK    2  A    between atoms: C_2  and  C_3
REMARK    3  A    between atoms: C_2  and  C_10
REMARK    4  A    between atoms: C_3  and  C_4
REMARK    5  A    between atoms: N_8  and  C_9
REMARK    6  A    between atoms: C_14  and  N_15
REMARK                            x       y       z     vdW  Elec       q    Type
REMARK                         _______ _______ _______ _____ _____    ______ ____
ROOT
ATOM      1  C   UNL     1       4.615   5.142  19.212  0.00  0.00    +0.000 A 
ATOM      2  C   UNL     1       4.005   3.950  19.631  0.00  0.00    +0.000 A 
ATOM      3  C   UNL     1       2.699   3.944  20.123  0.00  0.00    +0.000 A 
ATOM      4  C   UNL     1       1.979   5.131  20.232  0.00  0.00    +0.000 A 
ATOM      5  C   UNL     1       2.563   6.335  19.857  0.00  0.00    +0.000 A 
ATOM      6  C   UNL     1       3.870   6.331  19.337  0.00  0.00    +0.000 A 
ENDROOT
BRANCH   5   7
ATOM      7  N   UNL     1       1.912   7.576  19.949  0.00  0.00    +0.000 N 
ATOM      8  C   UNL     1       1.728   8.544  18.990  0.00  0.00    +0.000 C 
ATOM      9  O   UNL     1       2.111   8.445  17.824  0.00  0.00    +0.000 OA
ATOM     10  N   UNL     1       1.082   9.702  19.434  0.00  0.00    +0.000 N 
ATOM     11  C   UNL     1       0.857  10.785  18.481  0.00  0.00    +0.000 C 
ATOM     12  C   UNL     1       0.958  12.135  19.171  0.00  0.00    +0.000 C 
ATOM     13  O   UNL     1      -0.002  12.258  20.227  0.00  0.00    +0.000 OA
ATOM     14  C   UNL     1      -0.047  11.150  21.035  0.00  0.00    +0.000 A 
ATOM     15  C   UNL     1      -0.691  11.311  22.260  0.00  0.00    +0.000 A 
ATOM     16  C   UNL     1      -0.782  10.236  23.136  0.00  0.00    +0.000 A 
ATOM     17  C   UNL     1      -0.214   9.036  22.753  0.00  0.00    +0.000 A 
ATOM     18  N   UNL     1       0.420   8.849  21.574  0.00  0.00    +0.000 NA
ATOM     19  C   UNL     1       0.485   9.896  20.710  0.00  0.00    +0.000 A 
ATOM     20  H   UNL     1       1.431   7.770  20.822  0.00  0.00    +0.000 HD
ENDBRANCH   5   7
BRANCH   1  22
ATOM     21  C   UNL     1       7.127   5.468  19.627  0.00  0.00    +0.000 C 
ATOM     22  C   UNL     1       6.016   5.187  18.597  0.00  0.00    +0.000 C 
BRANCH  22  23
ATOM     23  C   UNL     1       6.078   6.196  17.423  0.00  0.00    +0.000 C 
BRANCH  23  24
ATOM     24  C   UNL     1       6.504   5.555  16.140  0.00  0.00    +0.000 A 
ATOM     25  N   UNL     1       7.598   5.825  15.457  0.00  0.00    +0.000 NA
ATOM     26  N   UNL     1       7.572   5.089  14.294  0.00  0.00    +0.000 NA
ATOM     27  C   UNL     1       6.470   4.380  14.299  0.00  0.00    +0.000 A 
ATOM     28  N   UNL     1       5.779   4.620  15.446  0.00  0.00    +0.000 N 
ATOM     29  C   UNL     1       4.533   4.017  15.828  0.00  0.00    +0.000 C 
ENDBRANCH  23  24
ENDBRANCH  22  23
ENDBRANCH   1  22
TORSDOF 4
ENDMDL
MODEL 3
REMARK VINA RESULT:      -8.4      0.952      1.056
REMARK  Name = 
REMARK  6 active torsions:
REMARK  status: ('A' for Active; 'I' for Inactive)
REMARK    1  A    between atoms: C_1  and  C_2
REMARK    2  A    between atoms: C_2  and  C_3
REMARK    3  A    between atoms: C_2  and  C_10
REMARK    4  A    between atoms: C_3  and  C_4
REMARK    5  A    between atoms: N_8  and  C_9
REMARK    6  A    between atoms: C_14  and  N_15
REMARK                            x       y       z     vdW  Elec       q    Type
REMARK                         _______ _______ _______ _____ _____    ______ ____
ROOT
ATOM      1  C   UNL     1       3.787   5.019  18.398  0.00  0.00    +0.000 A 
ATOM      2  C   UNL     1       3.512   3.978  19.296  0.00  0.00    +0.000 A 
ATOM      3  C   UNL     1       2.639   4.166  20.369  0.00  0.00    +0.000 A 
ATOM      4  C   UNL     1       2.040   5.404  20.585  0.00  0.00    +0.000 A 
ATOM      5  C   UNL     1       2.316   6.468  19.734  0.00  0.00    +0.000 A 
ATOM      6  C   UNL     1       3.176   6.265  18.638  0.00  0.00    +0.000 A 
ENDROOT
BRANCH   5   7
ATOM      7  N   UNL     1       1.767   7.751  19.890  0.00  0.00    +0.000 N 
ATOM      8  C   UNL     1       1.720   8.799  19.002  0.00  0.00    +0.000 C 
ATOM      9  O   UNL     1       2.159   8.754  17.853  0.00  0.00    +0.000 OA
ATOM     10  N   UNL     1       1.148   9.974  19.502  0.00  0.00    +0.000 N 
ATOM     11  C   UNL     1       1.070  11.140  18.627  0.00  0.00    +0.000 C 
ATOM     12  C   UNL     1       1.242  12.420  19.426  0.00  0.00    +0.000 C 
ATOM     13  O   UNL     1       0.236  12.549  20.438  0.00  0.00    +0.000 OA
ATOM     14  C   UNL     1       0.052  11.392  21.152  0.00  0.00    +0.000 A 
ATOM     15  C   UNL     1      -0.645  11.517  22.351  0.00  0.00    +0.000 A 
ATOM     16  C   UNL     1      -0.876  10.392  23.134  0.00  0.00    +0.000 A 
ATOM     17  C   UNL     1      -0.389   9.179  22.688  0.00  0.00    +0.000 A 
ATOM     18  N   UNL     1       0.294   9.025  21.531  0.00  0.00    +0.000 NA
ATOM     19  C   UNL     1       0.496  10.124  20.757  0.00  0.00    +0.000 A 
ATOM     20  H   UNL     1       1.254   7.920  20.750  0.00  0.00    +0.000 HD
ENDBRANCH   5   7
BRANCH   1  22
ATOM     21  C   UNL     1       4.249   3.664  16.267  0.00  0.00    +0.000 C 
ATOM     22  C   UNL     1       4.678   4.839  17.165  0.00  0.00    +0.000 C 
BRANCH  22  23
ATOM     23  C   UNL     1       6.169   4.718  17.566  0.00  0.00    +0.000 C 
BRANCH  23  24
ATOM     24  C   UNL     1       6.849   6.047  17.652  0.00  0.00    +0.000 A 
ATOM     25  N   UNL     1       6.765   7.026  16.775  0.00  0.00    +0.000 NA
ATOM     26  N   UNL     1       7.610   8.036  17.175  0.00  0.00    +0.000 NA
ATOM     27  C   UNL     1       8.182   7.656  18.292  0.00  0.00    +0.000 A 
ATOM     28  N   UNL     1       7.718   6.426  18.643  0.00  0.00    +0.000 N 
ATOM     29  C   UNL     1       8.091   5.682  19.814  0.00  0.00    +0.000 C 
ENDBRANCH  23  24
ENDBRANCH  22  23
ENDBRANCH   1  22
TORSDOF 4
ENDMDL
MODEL 4
REMARK VINA RESULT:      -8.4      1.884      2.721
REMARK  Name = 
REMARK  6 active torsions:
REMARK  status: ('A' for Active; 'I' for Inactive)
REMARK    1  A    between atoms: C_1  and  C_2
REMARK    2  A    between atoms: C_2  and  C_3
REMARK    3  A    between atoms: C_2  and  C_10
REMARK    4  A    between atoms: C_3  and  C_4
REMARK    5  A    between atoms: N_8  and  C_9
REMARK    6  A    between atoms: C_14  and  N_15
REMARK                            x       y       z     vdW  Elec       q    Type
REMARK                         _______ _______ _______ _____ _____    ______ ____
ROOT
ATOM      1  C   UNL     1       4.251   5.895  17.491  0.00  0.00    +0.000 A 
ATOM      2  C   UNL     1       3.905   4.648  18.029  0.00  0.00    +0.000 A 
ATOM      3  C   UNL     1       2.875   4.528  18.964  0.00  0.00    +0.000 A 
ATOM      4  C   UNL     1       2.182   5.654  19.401  0.00  0.00    +0.000 A 
ATOM      5  C   UNL     1       2.521   6.911  18.913  0.00  0.00    +0.000 A 
ATOM      6  C   UNL     1       3.542   7.022  17.952  0.00  0.00    +0.000 A 
ENDROOT
BRANCH   5   7
ATOM      7  N   UNL     1       1.884   8.097  19.313  0.00  0.00    +0.000 N 
ATOM      8  C   UNL     1       1.672   9.259  18.611  0.00  0.00    +0.000 C 
ATOM      9  O   UNL     1       2.010   9.432  17.439  0.00  0.00    +0.000 OA
ATOM     10  N   UNL     1       1.052  10.284  19.333  0.00  0.00    +0.000 N 
ATOM     11  C   UNL     1       0.800  11.557  18.664  0.00  0.00    +0.000 C 
ATOM     12  C   UNL     1       0.938  12.711  19.642  0.00  0.00    +0.000 C 
ATOM     13  O   UNL     1       0.018  12.587  20.734  0.00  0.00    +0.000 OA
ATOM     14  C   UNL     1      -0.006  11.323  21.266  0.00  0.00    +0.000 A 
ATOM     15  C   UNL     1      -0.602  11.196  22.519  0.00  0.00    +0.000 A 
ATOM     16  C   UNL     1      -0.668   9.949  23.127  0.00  0.00    +0.000 A 
ATOM     17  C   UNL     1      -0.124   8.870  22.457  0.00  0.00    +0.000 A 
ATOM     18  N   UNL     1       0.463   8.960  21.243  0.00  0.00    +0.000 NA
ATOM     19  C   UNL     1       0.504  10.178  20.641  0.00  0.00    +0.000 A 
ATOM     20  H   UNL     1       1.437   8.084  20.225  0.00  0.00    +0.000 HD
ENDBRANCH   5   7
BRANCH   1  22
ATOM     21  C   UNL     1       4.940   7.093  15.328  0.00  0.00    +0.000 C 
ATOM     22  C   UNL     1       5.322   6.066  16.410  0.00  0.00    +0.000 C 
BRANCH  22  23
ATOM     23  C   UNL     1       5.699   4.704  15.777  0.00  0.00    +0.000 C 
BRANCH  23  24
ATOM     24  C   UNL     1       6.666   4.847  14.645  0.00  0.00    +0.000 A 
ATOM     25  N   UNL     1       7.785   5.544  14.655  0.00  0.00    +0.000 NA
ATOM     26  N   UNL     1       8.334   5.493  13.394  0.00  0.00    +0.000 NA
ATOM     27  C   UNL     1       7.547   4.758  12.647  0.00  0.00    +0.000 A 
ATOM     28  N   UNL     1       6.501   4.311  13.393  0.00  0.00    +0.000 N 
ATOM     29  C   UNL     1       5.436   3.462  12.937  0.00  0.00    +0.000 C 
ENDBRANCH  23  24
ENDBRANCH  22  23
ENDBRANCH   1  22
TORSDOF 4
ENDMDL
MODEL 5
REMARK VINA RESULT:      -8.3      1.187      2.327
REMARK  Name = 
REMARK  6 active torsions:
REMARK  status: ('A' for Active; 'I' for Inactive)
REMARK    1  A    between atoms: C_1  and  C_2
REMARK    2  A    between atoms: C_2  and  C_3
REMARK    3  A    between atoms: C_2  and  C_10
REMARK    4  A    between atoms: C_3  and  C_4
REMARK    5  A    between atoms: N_8  and  C_9
REMARK    6  A    between atoms: C_14  and  N_15
REMARK                            x       y       z     vdW  Elec       q    Type
REMARK                         _______ _______ _______ _____ _____    ______ ____
ROOT
ATOM      1  C   UNL     1       4.346   4.996  16.794  0.00  0.00    +0.000 A 
ATOM      2  C   UNL     1       3.650   3.779  16.808  0.00  0.00    +0.000 A 
ATOM      3  C   UNL     1       2.445   3.646  17.500  0.00  0.00    +0.000 A 
ATOM      4  C   UNL     1       1.918   4.719  18.214  0.00  0.00    +0.000 A 
ATOM      5  C   UNL     1       2.597   5.931  18.249  0.00  0.00    +0.000 A 
ATOM      6  C   UNL     1       3.798   6.066  17.528  0.00  0.00    +0.000 A 
ENDROOT
BRANCH   5   7
ATOM      7  N   UNL     1       2.143   7.056  18.957  0.00  0.00    +0.000 N 
ATOM      8  C   UNL     1       1.759   7.170  20.271  0.00  0.00    +0.000 C 
ATOM      9  O   UNL     1       1.784   6.245  21.083  0.00  0.00    +0.000 OA
ATOM     10  N   UNL     1       1.296   8.435  20.646  0.00  0.00    +0.000 N 
ATOM     11  C   UNL     1       0.857   8.639  22.024  0.00  0.00    +0.000 C 
ATOM     12  C   UNL     1      -0.296   9.627  22.077  0.00  0.00    +0.000 C 
ATOM     13  O   UNL     1       0.075  10.899  21.531  0.00  0.00    +0.000 OA
ATOM     14  C   UNL     1       0.742  10.788  20.337  0.00  0.00    +0.000 A 
ATOM     15  C   UNL     1       0.840  11.953  19.580  0.00  0.00    +0.000 A 
ATOM     16  C   UNL     1       1.503  11.926  18.358  0.00  0.00    +0.000 A 
ATOM     17  C   UNL     1       2.037  10.725  17.935  0.00  0.00    +0.000 A 
ATOM     18  N   UNL     1       1.957   9.577  18.645  0.00  0.00    +0.000 NA
ATOM     19  C   UNL     1       1.329   9.613  19.849  0.00  0.00    +0.000 A 
ATOM     20  H   UNL     1       2.172   7.942  18.461  0.00  0.00    +0.000 HD
ENDBRANCH   5   7
BRANCH   1  22
ATOM     21  C   UNL     1       5.728   4.313  14.742  0.00  0.00    +0.000 C 
ATOM     22  C   UNL     1       5.631   5.210  15.990  0.00  0.00    +0.000 C 
BRANCH  22  23
ATOM     23  C   UNL     1       6.884   5.053  16.887  0.00  0.00    +0.000 C 
BRANCH  23  24
ATOM     24  C   UNL     1       7.363   6.359  17.436  0.00  0.00    +0.000 A 
ATOM     25  N   UNL     1       7.371   7.517  16.805  0.00  0.00    +0.000 NA
ATOM     26  N   UNL     1       7.973   8.447  17.622  0.00  0.00    +0.000 NA
ATOM     27  C   UNL     1       8.308   7.841  18.735  0.00  0.00    +0.000 A 
ATOM     28  N   UNL     1       7.925   6.537  18.675  0.00  0.00    +0.000 N 
ATOM     29  C   UNL     1       8.099   5.553  19.707  0.00  0.00    +0.000 C 
ENDBRANCH  23  24
ENDBRANCH  22  23
ENDBRANCH   1  22
TORSDOF 4
ENDMDL
MODEL 6
REMARK VINA RESULT:      -8.2      3.235      8.691
REMARK  Name = 
REMARK  6 active torsions:
REMARK  status: ('A' for Active; 'I' for Inactive)
REMARK    1  A    between atoms: C_1  and  C_2
REMARK    2  A    between atoms: C_2  and  C_3
REMARK    3  A    between atoms: C_2  and  C_10
REMARK    4  A    between atoms: C_3  and  C_4
REMARK    5  A    between atoms: N_8  and  C_9
REMARK    6  A    between atoms: C_14  and  N_15
REMARK                            x       y       z     vdW  Elec       q    Type
REMARK                         _______ _______ _______ _____ _____    ______ ____
ROOT
ATOM      1  C   UNL     1       0.299  10.426  19.869  0.00  0.00    +0.000 A 
ATOM      2  C   UNL     1       0.103  10.589  21.248  0.00  0.00    +0.000 A 
ATOM      3  C   UNL     1       0.624   9.671  22.162  0.00  0.00    +0.000 A 
ATOM      4  C   UNL     1       1.331   8.556  21.719  0.00  0.00    +0.000 A 
ATOM      5  C   UNL     1       1.516   8.346  20.358  0.00  0.00    +0.000 A 
ATOM      6  C   UNL     1       1.012   9.289  19.444  0.00  0.00    +0.000 A 
ENDROOT
BRANCH   5   7
ATOM      7  N   UNL     1       2.203   7.241  19.829  0.00  0.00    +0.000 N 
ATOM      8  C   UNL     1       2.077   5.905  20.125  0.00  0.00    +0.000 C 
ATOM      9  O   UNL     1       1.269   5.448  20.934  0.00  0.00    +0.000 OA
ATOM     10  N   UNL     1       2.967   5.062  19.452  0.00  0.00    +0.000 N 
ATOM     11  C   UNL     1       2.908   3.628  19.718  0.00  0.00    +0.000 C 
ATOM     12  C   UNL     1       4.295   3.012  19.642  0.00  0.00    +0.000 C 
ATOM     13  O   UNL     1       4.887   3.206  18.352  0.00  0.00    +0.000 OA
ATOM     14  C   UNL     1       4.754   4.494  17.897  0.00  0.00    +0.000 A 
ATOM     15  C   UNL     1       5.576   4.854  16.831  0.00  0.00    +0.000 A 
ATOM     16  C   UNL     1       5.502   6.140  16.309  0.00  0.00    +0.000 A 
ATOM     17  C   UNL     1       4.609   7.024  16.883  0.00  0.00    +0.000 A 
ATOM     18  N   UNL     1       3.801   6.706  17.919  0.00  0.00    +0.000 NA
ATOM     19  C   UNL     1       3.859   5.440  18.410  0.00  0.00    +0.000 A 
ATOM     20  H   UNL     1       2.833   7.431  19.055  0.00  0.00    +0.000 HD
ENDBRANCH   5   7
BRANCH   1  22
ATOM     21  C   UNL     1       0.727  12.678  18.714  0.00  0.00    +0.000 C 
ATOM     22  C   UNL     1      -0.188  11.445  18.835  0.00  0.00    +0.000 C 
BRANCH  22  23
ATOM     23  C   UNL     1      -1.653  11.864  19.110  0.00  0.00    +0.000 C 
BRANCH  23  24
ATOM     24  C   UNL     1      -2.568  11.526  17.976  0.00  0.00    +0.000 A 
ATOM     25  N   UNL     1      -2.208  11.109  16.778  0.00  0.00    +0.000 NA
ATOM     26  N   UNL     1      -3.340  11.000  16.003  0.00  0.00    +0.000 NA
ATOM     27  C   UNL     1      -4.365  11.341  16.746  0.00  0.00    +0.000 A 
ATOM     28  N   UNL     1      -3.933  11.655  17.998  0.00  0.00    +0.000 N 
ATOM     29  C   UNL     1      -4.758  12.057  19.103  0.00  0.00    +0.000 C 
ENDBRANCH  23  24
ENDBRANCH  22  23
ENDBRANCH   1  22
TORSDOF 4
ENDMDL
MODEL 7
REMARK VINA RESULT:      -8.2      3.243      8.389
REMARK  Name = 
REMARK  6 active torsions:
REMARK  status: ('A' for Active; 'I' for Inactive)
REMARK    1  A    between atoms: C_1  and  C_2
REMARK    2  A    between atoms: C_2  and  C_3
REMARK    3  A    between atoms: C_2  and  C_10
REMARK    4  A    between atoms: C_3  and  C_4
REMARK    5  A    between atoms: N_8  and  C_9
REMARK    6  A    between atoms: C_14  and  N_15
REMARK                            x       y       z     vdW  Elec       q    Type
REMARK                         _______ _______ _______ _____ _____    ______ ____
ROOT
ATOM      1  C   UNL     1       0.042  10.505  19.830  0.00  0.00    +0.000 A 
ATOM      2  C   UNL     1      -0.128  10.772  21.196  0.00  0.00    +0.000 A 
ATOM      3  C   UNL     1       0.397   9.918  22.167  0.00  0.00    +0.000 A 
ATOM      4  C   UNL     1       1.083   8.763  21.796  0.00  0.00    +0.000 A 
ATOM      5  C   UNL     1       1.241   8.450  20.452  0.00  0.00    +0.000 A 
ATOM      6  C   UNL     1       0.733   9.330  19.478  0.00  0.00    +0.000 A 
ENDROOT
BRANCH   5   7
ATOM      7  N   UNL     1       1.905   7.300  19.994  0.00  0.00    +0.000 N 
ATOM      8  C   UNL     1       2.744   7.141  18.917  0.00  0.00    +0.000 C 
ATOM      9  O   UNL     1       3.080   8.052  18.159  0.00  0.00    +0.000 OA
ATOM     10  N   UNL     1       3.192   5.833  18.703  0.00  0.00    +0.000 N 
ATOM     11  C   UNL     1       4.078   5.575  17.572  0.00  0.00    +0.000 C 
ATOM     12  C   UNL     1       3.810   4.199  16.987  0.00  0.00    +0.000 C 
ATOM     13  O   UNL     1       4.010   3.165  17.959  0.00  0.00    +0.000 OA
ATOM     14  C   UNL     1       3.420   3.452  19.165  0.00  0.00    +0.000 A 
ATOM     15  C   UNL     1       3.272   2.382  20.044  0.00  0.00    +0.000 A 
ATOM     16  C   UNL     1       2.687   2.588  21.288  0.00  0.00    +0.000 A 
ATOM     17  C   UNL     1       2.261   3.864  21.601  0.00  0.00    +0.000 A 
ATOM     18  N   UNL     1       2.388   4.922  20.770  0.00  0.00    +0.000 NA
ATOM     19  C   UNL     1       2.983   4.721  19.565  0.00  0.00    +0.000 A 
ATOM     20  H   UNL     1       1.830   6.473  20.579  0.00  0.00    +0.000 HD
ENDBRANCH   5   7
BRANCH   1  22
ATOM     21  C   UNL     1       0.233  12.831  18.760  0.00  0.00    +0.000 C 
ATOM     22  C   UNL     1      -0.451  11.451  18.731  0.00  0.00    +0.000 C 
BRANCH  22  23
ATOM     23  C   UNL     1      -1.993  11.593  18.765  0.00  0.00    +0.000 C 
BRANCH  23  24
ATOM     24  C   UNL     1      -2.638  11.150  17.491  0.00  0.00    +0.000 A 
ATOM     25  N   UNL     1      -2.043  10.543  16.483  0.00  0.00    +0.000 NA
ATOM     26  N   UNL     1      -2.962  10.392  15.469  0.00  0.00    +0.000 NA
ATOM     27  C   UNL     1      -4.097  10.899  15.884  0.00  0.00    +0.000 A 
ATOM     28  N   UNL     1      -3.950  11.365  17.154  0.00  0.00    +0.000 N 
ATOM     29  C   UNL     1      -4.973  11.972  17.958  0.00  0.00    +0.000 C 
ENDBRANCH  23  24
ENDBRANCH  22  23
ENDBRANCH   1  22
TORSDOF 4
ENDMDL
MODEL 8
REMARK VINA RESULT:      -8.1      2.927      8.594
REMARK  Name = 
REMARK  6 active torsions:
REMARK  status: ('A' for Active; 'I' for Inactive)
REMARK    1  A    between atoms: C_1  and  C_2
REMARK    2  A    between atoms: C_2  and  C_3
REMARK    3  A    between atoms: C_2  and  C_10
REMARK    4  A    between atoms: C_3  and  C_4
REMARK    5  A    between atoms: N_8  and  C_9
REMARK    6  A    between atoms: C_14  and  N_15
REMARK                            x       y       z     vdW  Elec       q    Type
REMARK                         _______ _______ _______ _____ _____    ______ ____
ROOT
ATOM      1  C   UNL     1       0.734  10.274  20.544  0.00  0.00    +0.000 A 
ATOM      2  C   UNL     1       0.841  11.224  19.518  0.00  0.00    +0.000 A 
ATOM      3  C   UNL     1       1.369  10.882  18.272  0.00  0.00    +0.000 A 
ATOM      4  C   UNL     1       1.825   9.589  18.028  0.00  0.00    +0.000 A 
ATOM      5  C   UNL     1       1.764   8.630  19.032  0.00  0.00    +0.000 A 
ATOM      6  C   UNL     1       1.207   8.974  20.277  0.00  0.00    +0.000 A 
ENDROOT
BRANCH   5   7
ATOM      7  N   UNL     1       2.215   7.310  18.874  0.00  0.00    +0.000 N 
ATOM      8  C   UNL     1       3.295   6.829  18.173  0.00  0.00    +0.000 C 
ATOM      9  O   UNL     1       4.095   7.538  17.561  0.00  0.00    +0.000 OA
ATOM     10  N   UNL     1       3.428   5.437  18.169  0.00  0.00    +0.000 N 
ATOM     11  C   UNL     1       4.544   4.843  17.437  0.00  0.00    +0.000 C 
ATOM     12  C   UNL     1       4.137   3.510  16.833  0.00  0.00    +0.000 C 
ATOM     13  O   UNL     1       3.716   2.582  17.840  0.00  0.00    +0.000 OA
ATOM     14  C   UNL     1       2.851   3.142  18.747  0.00  0.00    +0.000 A 
ATOM     15  C   UNL     1       2.138   2.249  19.544  0.00  0.00    +0.000 A 
ATOM     16  C   UNL     1       1.242   2.735  20.489  0.00  0.00    +0.000 A 
ATOM     17  C   UNL     1       1.088   4.103  20.595  0.00  0.00    +0.000 A 
ATOM     18  N   UNL     1       1.762   4.994  19.835  0.00  0.00    +0.000 NA
ATOM     19  C   UNL     1       2.655   4.516  18.929  0.00  0.00    +0.000 A 
ATOM     20  H   UNL     1       1.731   6.600  19.415  0.00  0.00    +0.000 HD
ENDBRANCH   5   7
BRANCH   1  22
ATOM     21  C   UNL     1      -0.052   9.344  22.804  0.00  0.00    +0.000 C 
ATOM     22  C   UNL     1       0.094  10.584  21.900  0.00  0.00    +0.000 C 
BRANCH  22  23
ATOM     23  C   UNL     1      -1.264  11.308  21.725  0.00  0.00    +0.000 C 
BRANCH  23  24
ATOM     24  C   UNL     1      -1.355  12.558  22.541  0.00  0.00    +0.000 A 
ATOM     25  N   UNL     1      -0.345  13.236  23.049  0.00  0.00    +0.000 NA
ATOM     26  N   UNL     1      -0.856  14.265  23.807  0.00  0.00    +0.000 NA
ATOM     27  C   UNL     1      -2.163  14.200  23.735  0.00  0.00    +0.000 A 
ATOM     28  N   UNL     1      -2.523  13.161  22.934  0.00  0.00    +0.000 N 
ATOM     29  C   UNL     1      -3.864  12.777  22.593  0.00  0.00    +0.000 C 
ENDBRANCH  23  24
ENDBRANCH  22  23
ENDBRANCH   1  22
TORSDOF 4
ENDMDL
MODEL 9
REMARK VINA RESULT:      -8.0      0.741      1.275
REMARK  Name = 
REMARK  6 active torsions:
REMARK  status: ('A' for Active; 'I' for Inactive)
REMARK    1  A    between atoms: C_1  and  C_2
REMARK    2  A    between atoms: C_2  and  C_3
REMARK    3  A    between atoms: C_2  and  C_10
REMARK    4  A    between atoms: C_3  and  C_4
REMARK    5  A    between atoms: N_8  and  C_9
REMARK    6  A    between atoms: C_14  and  N_15
REMARK                            x       y       z     vdW  Elec       q    Type
REMARK                         _______ _______ _______ _____ _____    ______ ____
ROOT
ATOM      1  C   UNL     1       3.967   5.037  17.291  0.00  0.00    +0.000 A 
ATOM      2  C   UNL     1       3.609   3.865  17.973  0.00  0.00    +0.000 A 
ATOM      3  C   UNL     1       2.692   3.897  19.026  0.00  0.00    +0.000 A 
ATOM      4  C   UNL     1       2.130   5.102  19.438  0.00  0.00    +0.000 A 
ATOM      5  C   UNL     1       2.486   6.287  18.806  0.00  0.00    +0.000 A 
ATOM      6  C   UNL     1       3.391   6.246  17.729  0.00  0.00    +0.000 A 
ENDROOT
BRANCH   5   7
ATOM      7  N   UNL     1       1.978   7.545  19.169  0.00  0.00    +0.000 N 
ATOM      8  C   UNL     1       1.929   8.713  18.448  0.00  0.00    +0.000 C 
ATOM      9  O   UNL     1       2.326   8.829  17.288  0.00  0.00    +0.000 OA
ATOM     10  N   UNL     1       1.407   9.814  19.136  0.00  0.00    +0.000 N 
ATOM     11  C   UNL     1       1.329  11.098  18.445  0.00  0.00    +0.000 C 
ATOM     12  C   UNL     1       1.565  12.242  19.415  0.00  0.00    +0.000 C 
ATOM     13  O   UNL     1       0.600  12.243  20.473  0.00  0.00    +0.000 OA
ATOM     14  C   UNL     1       0.410  10.997  21.017  0.00  0.00    +0.000 A 
ATOM     15  C   UNL     1      -0.241  10.959  22.248  0.00  0.00    +0.000 A 
ATOM     16  C   UNL     1      -0.474   9.737  22.867  0.00  0.00    +0.000 A 
ATOM     17  C   UNL     1      -0.036   8.592  22.229  0.00  0.00    +0.000 A 
ATOM     18  N   UNL     1       0.600   8.596  21.036  0.00  0.00    +0.000 NA
ATOM     19  C   UNL     1       0.804   9.791  20.424  0.00  0.00    +0.000 A 
ATOM     20  H   UNL     1       1.501   7.597  20.065  0.00  0.00    +0.000 HD
ENDBRANCH   5   7
BRANCH   1  22
ATOM     21  C   UNL     1       5.525   3.662  15.784  0.00  0.00    +0.000 C 
ATOM     22  C   UNL     1       4.910   5.042  16.085  0.00  0.00    +0.000 C 
BRANCH  22  23
ATOM     23  C   UNL     1       6.011   6.120  16.240  0.00  0.00    +0.000 C 
BRANCH  23  24
ATOM     24  C   UNL     1       6.882   5.882  17.432  0.00  0.00    +0.000 A 
ATOM     25  N   UNL     1       7.039   4.739  18.070  0.00  0.00    +0.000 NA
ATOM     26  N   UNL     1       7.847   4.963  19.161  0.00  0.00    +0.000 NA
ATOM     27  C   UNL     1       8.174   6.232  19.159  0.00  0.00    +0.000 A 
ATOM     28  N   UNL     1       7.612   6.844  18.082  0.00  0.00    +0.000 N 
ATOM     29  C   UNL     1       7.754   8.227  17.723  0.00  0.00    +0.000 C 
ENDBRANCH  23  24
ENDBRANCH  22  23
ENDBRANCH   1  22
TORSDOF 4
ENDMDL
