MODEL 1
REMARK VINA RESULT:      -9.0      0.000      0.000
REMARK  Name = 
REMARK  10 active torsions:
REMARK  status: ('A' for Active; 'I' for Inactive)
REMARK    1  A    between atoms: C_1  and  O_2
REMARK    2  A    between atoms: O_2  and  C_3
REMARK    3  A    between atoms: N_6  and  C_7
REMARK    4  A    between atoms: C_7  and  C_8
REMARK    5  A    between atoms: C_12  and  C_13
REMARK    6  A    between atoms: N_19  and  C_20
REMARK    7  A    between atoms: C_24  and  C_25
REMARK    8  A    between atoms: C_25  and  C_26
REMARK    9  A    between atoms: C_26  and  C_27
REMARK   10  A    between atoms: N_31  and  C_32
REMARK                            x       y       z     vdW  Elec       q    Type
REMARK                         _______ _______ _______ _____ _____    ______ ____
ROOT
ATOM      1  C   UNL     1      -0.315  11.746  19.628  0.00  0.00    +0.000 A 
ATOM      2  C   UNL     1       0.524  11.078  18.734  0.00  0.00    +0.000 A 
ATOM      3  C   UNL     1       1.067   9.875  19.134  0.00  0.00    +0.000 A 
ATOM      4  C   UNL     1       0.845   9.321  20.388  0.00  0.00    +0.000 A 
ATOM      5  C   UNL     1       0.078  10.002  21.334  0.00  0.00    +0.000 A 
ATOM      6  C   UNL     1      -0.517  11.215  20.924  0.00  0.00    +0.000 A 
ATOM      7  C   UNL     1       1.494   7.977  20.447  0.00  0.00    +0.000 C 
ATOM      8  N   UNL     1       2.093   7.831  19.124  0.00  0.00    +0.000 N 
ATOM      9  C   UNL     1       1.871   8.958  18.333  0.00  0.00    +0.000 C 
ATOM     10  O   UNL     1       2.199   9.214  17.191  0.00  0.00    +0.000 OA
ENDROOT
BRANCH   8  11
ATOM     11  C   UNL     1       2.780   6.661  18.725  0.00  0.00    +0.000 A 
ATOM     12  C   UNL     1       2.132   5.428  18.630  0.00  0.00    +0.000 A 
ATOM     13  C   UNL     1       2.820   4.288  18.223  0.00  0.00    +0.000 A 
ATOM     14  C   UNL     1       4.182   4.361  17.950  0.00  0.00    +0.000 A 
ATOM     15  C   UNL     1       4.898   5.566  18.085  0.00  0.00    +0.000 A 
ATOM     16  C   UNL     1       4.151   6.709  18.430  0.00  0.00    +0.000 A 
BRANCH  15  17
ATOM     17  C   UNL     1       6.486   5.628  17.914  0.00  0.00    +0.000 C 
ATOM     18  C   UNL     1       7.160   6.987  17.555  0.00  0.00    +0.000 C 
ATOM     19  O   UNL     1       8.162   6.785  18.593  0.00  0.00    +0.000 OA
ATOM     20  C   UNL     1       7.270   5.847  19.243  0.00  0.00    +0.000 C 
BRANCH  17  21
ATOM     21  C   UNL     1       7.018   4.447  17.083  0.00  0.00    +0.000 C 
BRANCH  21  22
ATOM     22  C   UNL     1       7.109   4.750  15.619  0.00  0.00    +0.000 A 
ATOM     23  N   UNL     1       8.000   5.532  15.043  0.00  0.00    +0.000 NA
ATOM     24  N   UNL     1       7.768   5.530  13.688  0.00  0.00    +0.000 NA
ATOM     25  C   UNL     1       6.739   4.748  13.463  0.00  0.00    +0.000 A 
ATOM     26  N   UNL     1       6.284   4.248  14.644  0.00  0.00    +0.000 N 
ATOM     27  C   UNL     1       5.156   3.368  14.796  0.00  0.00    +0.000 C 
ENDBRANCH  21  22
ENDBRANCH  17  21
ENDBRANCH  15  17
ENDBRANCH   8  11
BRANCH   5  28
ATOM     28  C   UNL     1      -0.123   9.483  22.733  0.00  0.00    +0.000 C 
ATOM     29  F   UNL     1      -0.872  10.307  23.517  0.00  0.00    +0.000 F 
ATOM     30  F   UNL     1      -0.755   8.278  22.754  0.00  0.00    +0.000 F 
ATOM     31  F   UNL     1       1.051   9.307  23.399  0.00  0.00    +0.000 F 
ENDBRANCH   5  28
BRANCH   1  32
ATOM     32  C   UNL     1      -1.042  12.984  19.145  0.00  0.00    +0.000 C 
BRANCH  32  36
ATOM     33  C   UNL     1      -0.482  17.220  19.460  0.00  0.00    +0.000 C 
ATOM     34  C   UNL     1       0.692  16.354  19.016  0.00  0.00    +0.000 C 
ATOM     35  C   UNL     1       0.200  14.982  18.552  0.00  0.00    +0.000 C 
ATOM     36  N   UNL     1      -0.500  14.266  19.635  0.00  0.00    +0.000 NA
ATOM     37  C   UNL     1      -1.634  15.068  20.141  0.00  0.00    +0.000 C 
ATOM     38  C   UNL     1      -1.245  16.485  20.561  0.00  0.00    +0.000 C 
BRANCH  33  40
ATOM     39  C   UNL     1      -0.742  18.460  17.415  0.00  0.00    +0.000 C 
ATOM     40  O   UNL     1      -1.271  17.478  18.290  0.00  0.00    +0.000 OA
ENDBRANCH  33  40
ENDBRANCH  32  36
ENDBRANCH   1  32
TORSDOF 8
ENDMDL
MODEL 2
REMARK VINA RESULT:      -8.8      3.079     10.739
REMARK  Name = 
REMARK  10 active torsions:
REMARK  status: ('A' for Active; 'I' for Inactive)
REMARK    1  A    between atoms: C_1  and  O_2
REMARK    2  A    between atoms: O_2  and  C_3
REMARK    3  A    between atoms: N_6  and  C_7
REMARK    4  A    between atoms: C_7  and  C_8
REMARK    5  A    between atoms: C_12  and  C_13
REMARK    6  A    between atoms: N_19  and  C_20
REMARK    7  A    between atoms: C_24  and  C_25
REMARK    8  A    between atoms: C_25  and  C_26
REMARK    9  A    between atoms: C_26  and  C_27
REMARK   10  A    between atoms: N_31  and  C_32
REMARK                            x       y       z     vdW  Elec       q    Type
REMARK                         _______ _______ _______ _____ _____    ______ ____
ROOT
ATOM      1  C   UNL     1       5.403   4.806  16.654  0.00  0.00    +0.000 A 
ATOM      2  C   UNL     1       4.827   6.070  16.793  0.00  0.00    +0.000 A 
ATOM      3  C   UNL     1       3.839   6.228  17.741  0.00  0.00    +0.000 A 
ATOM      4  C   UNL     1       3.371   5.188  18.534  0.00  0.00    +0.000 A 
ATOM      5  C   UNL     1       3.868   3.895  18.364  0.00  0.00    +0.000 A 
ATOM      6  C   UNL     1       4.909   3.726  17.425  0.00  0.00    +0.000 A 
ATOM      7  C   UNL     1       2.384   5.730  19.514  0.00  0.00    +0.000 C 
ATOM      8  N   UNL     1       2.341   7.155  19.202  0.00  0.00    +0.000 N 
ATOM      9  C   UNL     1       3.182   7.471  18.134  0.00  0.00    +0.000 C 
ATOM     10  O   UNL     1       3.425   8.531  17.590  0.00  0.00    +0.000 OA
ENDROOT
BRANCH   8  11
ATOM     11  C   UNL     1       1.553   8.071  19.935  0.00  0.00    +0.000 A 
ATOM     12  C   UNL     1       1.164   7.814  21.251  0.00  0.00    +0.000 A 
ATOM     13  C   UNL     1       0.400   8.734  21.963  0.00  0.00    +0.000 A 
ATOM     14  C   UNL     1      -0.028   9.905  21.347  0.00  0.00    +0.000 A 
ATOM     15  C   UNL     1       0.285  10.190  20.005  0.00  0.00    +0.000 A 
ATOM     16  C   UNL     1       1.120   9.268  19.342  0.00  0.00    +0.000 A 
BRANCH  15  17
ATOM     17  C   UNL     1      -0.319  11.460  19.247  0.00  0.00    +0.000 C 
ATOM     18  C   UNL     1      -1.341  11.240  18.090  0.00  0.00    +0.000 C 
ATOM     19  O   UNL     1      -2.221  12.258  18.650  0.00  0.00    +0.000 OA
ATOM     20  C   UNL     1      -1.573  12.084  19.934  0.00  0.00    +0.000 C 
BRANCH  17  21
ATOM     21  C   UNL     1       0.767  12.496  18.910  0.00  0.00    +0.000 C 
BRANCH  21  22
ATOM     22  C   UNL     1       1.049  13.443  20.035  0.00  0.00    +0.000 A 
ATOM     23  N   UNL     1       1.722  13.162  21.133  0.00  0.00    +0.000 NA
ATOM     24  N   UNL     1       1.789  14.299  21.903  0.00  0.00    +0.000 NA
ATOM     25  C   UNL     1       1.155  15.250  21.261  0.00  0.00    +0.000 A 
ATOM     26  N   UNL     1       0.662  14.758  20.092  0.00  0.00    +0.000 N 
ATOM     27  C   UNL     1      -0.107  15.504  19.133  0.00  0.00    +0.000 C 
ENDBRANCH  21  22
ENDBRANCH  17  21
ENDBRANCH  15  17
ENDBRANCH   8  11
BRANCH   5  28
ATOM     28  C   UNL     1       3.336   2.719  19.140  0.00  0.00    +0.000 C 
ATOM     29  F   UNL     1       3.649   2.754  20.464  0.00  0.00    +0.000 F 
ATOM     30  F   UNL     1       1.978   2.631  19.084  0.00  0.00    +0.000 F 
ATOM     31  F   UNL     1       3.812   1.531  18.679  0.00  0.00    +0.000 F 
ENDBRANCH   5  28
BRANCH   1  32
ATOM     32  C   UNL     1       6.594   4.654  15.732  0.00  0.00    +0.000 C 
BRANCH  32  36
ATOM     33  C   UNL     1       6.396   3.663  11.568  0.00  0.00    +0.000 C 
ATOM     34  C   UNL     1       7.260   4.842  12.003  0.00  0.00    +0.000 C 
ATOM     35  C   UNL     1       7.547   4.770  13.503  0.00  0.00    +0.000 C 
ATOM     36  N   UNL     1       6.303   4.812  14.294  0.00  0.00    +0.000 NA
ATOM     37  C   UNL     1       5.397   3.713  13.896  0.00  0.00    +0.000 C 
ATOM     38  C   UNL     1       5.111   3.664  12.396  0.00  0.00    +0.000 C 
BRANCH  33  40
ATOM     39  C   UNL     1       6.733   1.342  11.036  0.00  0.00    +0.000 C 
ATOM     40  O   UNL     1       7.189   2.482  11.743  0.00  0.00    +0.000 OA
ENDBRANCH  33  40
ENDBRANCH  32  36
ENDBRANCH   1  32
TORSDOF 8
ENDMDL
MODEL 3
REMARK VINA RESULT:      -8.6      0.984      1.573
REMARK  Name = 
REMARK  10 active torsions:
REMARK  status: ('A' for Active; 'I' for Inactive)
REMARK    1  A    between atoms: C_1  and  O_2
REMARK    2  A    between atoms: O_2  and  C_3
REMARK    3  A    between atoms: N_6  and  C_7
REMARK    4  A    between atoms: C_7  and  C_8
REMARK    5  A    between atoms: C_12  and  C_13
REMARK    6  A    between atoms: N_19  and  C_20
REMARK    7  A    between atoms: C_24  and  C_25
REMARK    8  A    between atoms: C_25  and  C_26
REMARK    9  A    between atoms: C_26  and  C_27
REMARK   10  A    between atoms: N_31  and  C_32
REMARK                            x       y       z     vdW  Elec       q    Type
REMARK                         _______ _______ _______ _____ _____    ______ ____
ROOT
ATOM      1  C   UNL     1      -0.050  11.999  19.710  0.00  0.00    +0.000 A 
ATOM      2  C   UNL     1       0.729  11.291  18.793  0.00  0.00    +0.000 A 
ATOM      3  C   UNL     1       1.156  10.029  19.148  0.00  0.00    +0.000 A 
ATOM      4  C   UNL     1       0.877   9.449  20.378  0.00  0.00    +0.000 A 
ATOM      5  C   UNL     1       0.170  10.161  21.348  0.00  0.00    +0.000 A 
ATOM      6  C   UNL     1      -0.308  11.439  20.984  0.00  0.00    +0.000 A 
ATOM      7  C   UNL     1       1.398   8.050  20.386  0.00  0.00    +0.000 C 
ATOM      8  N   UNL     1       1.989   7.900  19.060  0.00  0.00    +0.000 N 
ATOM      9  C   UNL     1       1.877   9.073  18.313  0.00  0.00    +0.000 C 
ATOM     10  O   UNL     1       2.234   9.342  17.182  0.00  0.00    +0.000 OA
ENDROOT
BRANCH   8  11
ATOM     11  C   UNL     1       2.567   6.688  18.617  0.00  0.00    +0.000 A 
ATOM     12  C   UNL     1       2.004   5.450  18.932  0.00  0.00    +0.000 A 
ATOM     13  C   UNL     1       2.578   4.267  18.477  0.00  0.00    +0.000 A 
ATOM     14  C   UNL     1       3.756   4.307  17.737  0.00  0.00    +0.000 A 
ATOM     15  C   UNL     1       4.398   5.523  17.439  0.00  0.00    +0.000 A 
ATOM     16  C   UNL     1       3.747   6.701  17.857  0.00  0.00    +0.000 A 
BRANCH  15  17
ATOM     17  C   UNL     1       5.822   5.571  16.716  0.00  0.00    +0.000 C 
ATOM     18  C   UNL     1       7.047   6.156  17.484  0.00  0.00    +0.000 C 
ATOM     19  O   UNL     1       7.864   5.019  17.083  0.00  0.00    +0.000 OA
ATOM     20  C   UNL     1       6.655   4.259  16.843  0.00  0.00    +0.000 C 
BRANCH  17  21
ATOM     21  C   UNL     1       5.713   6.082  15.269  0.00  0.00    +0.000 C 
BRANCH  21  22
ATOM     22  C   UNL     1       5.860   4.998  14.247  0.00  0.00    +0.000 A 
ATOM     23  N   UNL     1       4.971   4.062  13.976  0.00  0.00    +0.000 NA
ATOM     24  N   UNL     1       5.464   3.277  12.961  0.00  0.00    +0.000 NA
ATOM     25  C   UNL     1       6.644   3.746  12.634  0.00  0.00    +0.000 A 
ATOM     26  N   UNL     1       6.941   4.815  13.422  0.00  0.00    +0.000 N 
ATOM     27  C   UNL     1       8.160   5.576  13.366  0.00  0.00    +0.000 C 
ENDBRANCH  21  22
ENDBRANCH  17  21
ENDBRANCH  15  17
ENDBRANCH   8  11
BRANCH   5  28
ATOM     28  C   UNL     1      -0.087   9.610  22.725  0.00  0.00    +0.000 C 
ATOM     29  F   UNL     1       1.050   9.316  23.415  0.00  0.00    +0.000 F 
ATOM     30  F   UNL     1      -0.781  10.478  23.512  0.00  0.00    +0.000 F 
ATOM     31  F   UNL     1      -0.812   8.459  22.700  0.00  0.00    +0.000 F 
ENDBRANCH   5  28
BRANCH   1  32
ATOM     32  C   UNL     1      -0.656  13.316  19.274  0.00  0.00    +0.000 C 
BRANCH  32  36
ATOM     33  C   UNL     1       0.683  17.385  19.338  0.00  0.00    +0.000 C 
ATOM     34  C   UNL     1       1.714  16.275  19.168  0.00  0.00    +0.000 C 
ATOM     35  C   UNL     1       1.033  14.974  18.740  0.00  0.00    +0.000 C 
ATOM     36  N   UNL     1       0.052  14.523  19.744  0.00  0.00    +0.000 NA
ATOM     37  C   UNL     1      -0.963  15.571  19.987  0.00  0.00    +0.000 C 
ATOM     38  C   UNL     1      -0.366  16.930  20.352  0.00  0.00    +0.000 C 
BRANCH  33  40
ATOM     39  C   UNL     1       1.015  18.347  17.158  0.00  0.00    +0.000 C 
ATOM     40  O   UNL     1       0.145  17.653  18.037  0.00  0.00    +0.000 OA
ENDBRANCH  33  40
ENDBRANCH  32  36
ENDBRANCH   1  32
TORSDOF 8
ENDMDL
MODEL 4
REMARK VINA RESULT:      -8.6      1.921      2.875
REMARK  Name = 
REMARK  10 active torsions:
REMARK  status: ('A' for Active; 'I' for Inactive)
REMARK    1  A    between atoms: C_1  and  O_2
REMARK    2  A    between atoms: O_2  and  C_3
REMARK    3  A    between atoms: N_6  and  C_7
REMARK    4  A    between atoms: C_7  and  C_8
REMARK    5  A    between atoms: C_12  and  C_13
REMARK    6  A    between atoms: N_19  and  C_20
REMARK    7  A    between atoms: C_24  and  C_25
REMARK    8  A    between atoms: C_25  and  C_26
REMARK    9  A    between atoms: C_26  and  C_27
REMARK   10  A    between atoms: N_31  and  C_32
REMARK                            x       y       z     vdW  Elec       q    Type
REMARK                         _______ _______ _______ _____ _____    ______ ____
ROOT
ATOM      1  C   UNL     1       0.318  11.810  19.569  0.00  0.00    +0.000 A 
ATOM      2  C   UNL     1       1.056  11.035  18.673  0.00  0.00    +0.000 A 
ATOM      3  C   UNL     1       1.383   9.749  19.050  0.00  0.00    +0.000 A 
ATOM      4  C   UNL     1       1.043   9.208  20.283  0.00  0.00    +0.000 A 
ATOM      5  C   UNL     1       0.376   9.983  21.232  0.00  0.00    +0.000 A 
ATOM      6  C   UNL     1       0.000  11.287  20.845  0.00  0.00    +0.000 A 
ATOM      7  C   UNL     1       1.459   7.774  20.315  0.00  0.00    +0.000 C 
ATOM      8  N   UNL     1       2.057   7.563  19.001  0.00  0.00    +0.000 N 
ATOM      9  C   UNL     1       2.044   8.732  18.238  0.00  0.00    +0.000 C 
ATOM     10  O   UNL     1       2.436   8.958  17.110  0.00  0.00    +0.000 OA
ENDROOT
BRANCH   8  11
ATOM     11  C   UNL     1       2.550   6.307  18.582  0.00  0.00    +0.000 A 
ATOM     12  C   UNL     1       2.082   5.114  19.137  0.00  0.00    +0.000 A 
ATOM     13  C   UNL     1       2.569   3.884  18.703  0.00  0.00    +0.000 A 
ATOM     14  C   UNL     1       3.570   3.836  17.738  0.00  0.00    +0.000 A 
ATOM     15  C   UNL     1       4.119   5.007  17.186  0.00  0.00    +0.000 A 
ATOM     16  C   UNL     1       3.550   6.228  17.599  0.00  0.00    +0.000 A 
BRANCH  15  17
ATOM     17  C   UNL     1       5.364   4.966  16.185  0.00  0.00    +0.000 C 
ATOM     18  C   UNL     1       6.101   3.613  15.943  0.00  0.00    +0.000 C 
ATOM     19  O   UNL     1       6.077   3.837  14.504  0.00  0.00    +0.000 OA
ATOM     20  C   UNL     1       4.982   4.768  14.687  0.00  0.00    +0.000 C 
BRANCH  17  21
ATOM     21  C   UNL     1       6.324   6.147  16.416  0.00  0.00    +0.000 C 
BRANCH  21  22
ATOM     22  C   UNL     1       7.082   6.048  17.703  0.00  0.00    +0.000 A 
ATOM     23  N   UNL     1       7.168   4.980  18.472  0.00  0.00    +0.000 NA
ATOM     24  N   UNL     1       7.976   5.282  19.543  0.00  0.00    +0.000 NA
ATOM     25  C   UNL     1       8.365   6.526  19.409  0.00  0.00    +0.000 A 
ATOM     26  N   UNL     1       7.819   7.052  18.279  0.00  0.00    +0.000 N 
ATOM     27  C   UNL     1       8.005   8.401  17.814  0.00  0.00    +0.000 C 
ENDBRANCH  21  22
ENDBRANCH  17  21
ENDBRANCH  15  17
ENDBRANCH   8  11
BRANCH   5  28
ATOM     28  C   UNL     1       0.059   9.470  22.612  0.00  0.00    +0.000 C 
ATOM     29  F   UNL     1      -0.811   8.423  22.616  0.00  0.00    +0.000 F 
ATOM     30  F   UNL     1       1.167   9.032  23.271  0.00  0.00    +0.000 F 
ATOM     31  F   UNL     1      -0.503  10.421  23.406  0.00  0.00    +0.000 F 
ENDBRANCH   5  28
BRANCH   1  32
ATOM     32  C   UNL     1      -0.183  13.163  19.108  0.00  0.00    +0.000 C 
BRANCH  32  36
ATOM     33  C   UNL     1       2.248  16.633  19.749  0.00  0.00    +0.000 C 
ATOM     34  C   UNL     1       1.343  16.585  18.522  0.00  0.00    +0.000 C 
ATOM     35  C   UNL     1       0.268  15.511  18.691  0.00  0.00    +0.000 C 
ATOM     36  N   UNL     1       0.865  14.172  18.859  0.00  0.00    +0.000 NA
ATOM     37  C   UNL     1       1.787  14.155  20.015  0.00  0.00    +0.000 C 
ATOM     38  C   UNL     1       2.855  15.247  19.965  0.00  0.00    +0.000 C 
BRANCH  33  40
ATOM     39  C   UNL     1       0.883  18.376  20.689  0.00  0.00    +0.000 C 
ATOM     40  O   UNL     1       1.437  17.080  20.843  0.00  0.00    +0.000 OA
ENDBRANCH  33  40
ENDBRANCH  32  36
ENDBRANCH   1  32
TORSDOF 8
ENDMDL
MODEL 5
REMARK VINA RESULT:      -8.5      2.434      3.419
REMARK  Name = 
REMARK  10 active torsions:
REMARK  status: ('A' for Active; 'I' for Inactive)
REMARK    1  A    between atoms: C_1  and  O_2
REMARK    2  A    between atoms: O_2  and  C_3
REMARK    3  A    between atoms: N_6  and  C_7
REMARK    4  A    between atoms: C_7  and  C_8
REMARK    5  A    between atoms: C_12  and  C_13
REMARK    6  A    between atoms: N_19  and  C_20
REMARK    7  A    between atoms: C_24  and  C_25
REMARK    8  A    between atoms: C_25  and  C_26
REMARK    9  A    between atoms: C_26  and  C_27
REMARK   10  A    between atoms: N_31  and  C_32
REMARK                            x       y       z     vdW  Elec       q    Type
REMARK                         _______ _______ _______ _____ _____    ______ ____
ROOT
ATOM      1  C   UNL     1      -0.574  11.171  19.295  0.00  0.00    +0.000 A 
ATOM      2  C   UNL     1       0.357  10.436  18.558  0.00  0.00    +0.000 A 
ATOM      3  C   UNL     1       1.004   9.396  19.192  0.00  0.00    +0.000 A 
ATOM      4  C   UNL     1       0.798   9.072  20.527  0.00  0.00    +0.000 A 
ATOM      5  C   UNL     1      -0.065   9.837  21.312  0.00  0.00    +0.000 A 
ATOM      6  C   UNL     1      -0.764  10.879  20.666  0.00  0.00    +0.000 A 
ATOM      7  C   UNL     1       1.576   7.839  20.854  0.00  0.00    +0.000 C 
ATOM      8  N   UNL     1       2.230   7.506  19.592  0.00  0.00    +0.000 N 
ATOM      9  C   UNL     1       1.923   8.432  18.595  0.00  0.00    +0.000 C 
ATOM     10  O   UNL     1       2.261   8.497  17.429  0.00  0.00    +0.000 OA
ENDROOT
BRANCH   8  11
ATOM     11  C   UNL     1       3.044   6.360  19.437  0.00  0.00    +0.000 A 
ATOM     12  C   UNL     1       2.598   5.090  19.808  0.00  0.00    +0.000 A 
ATOM     13  C   UNL     1       3.407   3.970  19.635  0.00  0.00    +0.000 A 
ATOM     14  C   UNL     1       4.696   4.117  19.132  0.00  0.00    +0.000 A 
ATOM     15  C   UNL     1       5.218   5.380  18.796  0.00  0.00    +0.000 A 
ATOM     16  C   UNL     1       4.342   6.477  18.918  0.00  0.00    +0.000 A 
BRANCH  15  17
ATOM     17  C   UNL     1       6.741   5.573  18.354  0.00  0.00    +0.000 C 
ATOM     18  C   UNL     1       7.217   6.973  17.858  0.00  0.00    +0.000 C 
ATOM     19  O   UNL     1       8.394   6.894  18.713  0.00  0.00    +0.000 OA
ATOM     20  C   UNL     1       7.715   5.906  19.525  0.00  0.00    +0.000 C 
BRANCH  17  21
ATOM     21  C   UNL     1       7.231   4.416  17.467  0.00  0.00    +0.000 C 
BRANCH  21  22
ATOM     22  C   UNL     1       6.915   4.609  16.016  0.00  0.00    +0.000 A 
ATOM     23  N   UNL     1       7.669   5.236  15.135  0.00  0.00    +0.000 NA
ATOM     24  N   UNL     1       7.048   5.174  13.910  0.00  0.00    +0.000 NA
ATOM     25  C   UNL     1       5.926   4.514  14.067  0.00  0.00    +0.000 A 
ATOM     26  N   UNL     1       5.792   4.152  15.373  0.00  0.00    +0.000 N 
ATOM     27  C   UNL     1       4.678   3.431  15.926  0.00  0.00    +0.000 C 
ENDBRANCH  21  22
ENDBRANCH  17  21
ENDBRANCH  15  17
ENDBRANCH   8  11
BRANCH   5  28
ATOM     28  C   UNL     1      -0.260   9.578  22.782  0.00  0.00    +0.000 C 
ATOM     29  F   UNL     1       0.907   9.490  23.479  0.00  0.00    +0.000 F 
ATOM     30  F   UNL     1      -0.980  10.559  23.392  0.00  0.00    +0.000 F 
ATOM     31  F   UNL     1      -0.924   8.415  23.024  0.00  0.00    +0.000 F 
ENDBRANCH   5  28
BRANCH   1  32
ATOM     32  C   UNL     1      -1.404  12.210  18.571  0.00  0.00    +0.000 C 
BRANCH  32  36
ATOM     33  C   UNL     1      -5.155  10.399  17.567  0.00  0.00    +0.000 C 
ATOM     34  C   UNL     1      -3.866   9.681  17.182  0.00  0.00    +0.000 C 
ATOM     35  C   UNL     1      -2.686  10.236  17.982  0.00  0.00    +0.000 C 
ATOM     36  N   UNL     1      -2.490  11.675  17.727  0.00  0.00    +0.000 NA
ATOM     37  C   UNL     1      -3.720  12.432  18.045  0.00  0.00    +0.000 C 
ATOM     38  C   UNL     1      -4.968  11.899  17.342  0.00  0.00    +0.000 C 
BRANCH  33  40
ATOM     39  C   UNL     1      -6.774   9.695  19.201  0.00  0.00    +0.000 C 
ATOM     40  O   UNL     1      -5.429  10.054  18.931  0.00  0.00    +0.000 OA
ENDBRANCH  33  40
ENDBRANCH  32  36
ENDBRANCH   1  32
TORSDOF 8
ENDMDL
MODEL 6
REMARK VINA RESULT:      -8.5      3.479     10.552
REMARK  Name = 
REMARK  10 active torsions:
REMARK  status: ('A' for Active; 'I' for Inactive)
REMARK    1  A    between atoms: C_1  and  O_2
REMARK    2  A    between atoms: O_2  and  C_3
REMARK    3  A    between atoms: N_6  and  C_7
REMARK    4  A    between atoms: C_7  and  C_8
REMARK    5  A    between atoms: C_12  and  C_13
REMARK    6  A    between atoms: N_19  and  C_20
REMARK    7  A    between atoms: C_24  and  C_25
REMARK    8  A    between atoms: C_25  and  C_26
REMARK    9  A    between atoms: C_26  and  C_27
REMARK   10  A    between atoms: N_31  and  C_32
REMARK                            x       y       z     vdW  Elec       q    Type
REMARK                         _______ _______ _______ _____ _____    ______ ____
ROOT
ATOM      1  C   UNL     1       5.225   4.848  16.744  0.00  0.00    +0.000 A 
ATOM      2  C   UNL     1       4.725   6.142  16.905  0.00  0.00    +0.000 A 
ATOM      3  C   UNL     1       3.718   6.333  17.828  0.00  0.00    +0.000 A 
ATOM      4  C   UNL     1       3.162   5.301  18.572  0.00  0.00    +0.000 A 
ATOM      5  C   UNL     1       3.583   3.986  18.376  0.00  0.00    +0.000 A 
ATOM      6  C   UNL     1       4.641   3.780  17.465  0.00  0.00    +0.000 A 
ATOM      7  C   UNL     1       2.178   5.875  19.539  0.00  0.00    +0.000 C 
ATOM      8  N   UNL     1       2.234   7.308  19.271  0.00  0.00    +0.000 N 
ATOM      9  C   UNL     1       3.127   7.602  18.240  0.00  0.00    +0.000 C 
ATOM     10  O   UNL     1       3.452   8.661  17.737  0.00  0.00    +0.000 OA
ENDROOT
BRANCH   8  11
ATOM     11  C   UNL     1       1.481   8.250  20.008  0.00  0.00    +0.000 A 
ATOM     12  C   UNL     1       1.549   8.312  21.402  0.00  0.00    +0.000 A 
ATOM     13  C   UNL     1       0.811   9.255  22.112  0.00  0.00    +0.000 A 
ATOM     14  C   UNL     1      -0.045  10.119  21.435  0.00  0.00    +0.000 A 
ATOM     15  C   UNL     1      -0.196  10.062  20.037  0.00  0.00    +0.000 A 
ATOM     16  C   UNL     1       0.621   9.143  19.350  0.00  0.00    +0.000 A 
BRANCH  15  17
ATOM     17  C   UNL     1      -1.280  10.950  19.269  0.00  0.00    +0.000 C 
ATOM     18  C   UNL     1      -1.725  12.311  19.887  0.00  0.00    +0.000 C 
ATOM     19  O   UNL     1      -1.564  12.969  18.596  0.00  0.00    +0.000 OA
ATOM     20  C   UNL     1      -0.686  11.895  18.181  0.00  0.00    +0.000 C 
BRANCH  17  21
ATOM     21  C   UNL     1      -2.458  10.101  18.759  0.00  0.00    +0.000 C 
BRANCH  21  22
ATOM     22  C   UNL     1      -2.740  10.300  17.302  0.00  0.00    +0.000 A 
ATOM     23  N   UNL     1      -2.070   9.763  16.302  0.00  0.00    +0.000 NA
ATOM     24  N   UNL     1      -2.654  10.163  15.123  0.00  0.00    +0.000 NA
ATOM     25  C   UNL     1      -3.668  10.938  15.426  0.00  0.00    +0.000 A 
ATOM     26  N   UNL     1      -3.752  11.065  16.779  0.00  0.00    +0.000 N 
ATOM     27  C   UNL     1      -4.728  11.854  17.481  0.00  0.00    +0.000 C 
ENDBRANCH  21  22
ENDBRANCH  17  21
ENDBRANCH  15  17
ENDBRANCH   8  11
BRANCH   5  28
ATOM     28  C   UNL     1       2.955   2.823  19.098  0.00  0.00    +0.000 C 
ATOM     29  F   UNL     1       3.360   1.609  18.632  0.00  0.00    +0.000 F 
ATOM     30  F   UNL     1       3.242   2.821  20.429  0.00  0.00    +0.000 F 
ATOM     31  F   UNL     1       1.598   2.821  19.004  0.00  0.00    +0.000 F 
ENDBRANCH   5  28
BRANCH   1  32
ATOM     32  C   UNL     1       6.434   4.650  15.853  0.00  0.00    +0.000 C 
BRANCH  32  36
ATOM     33  C   UNL     1       6.340   3.706  11.675  0.00  0.00    +0.000 C 
ATOM     34  C   UNL     1       7.216   4.861  12.148  0.00  0.00    +0.000 C 
ATOM     35  C   UNL     1       7.457   4.768  13.655  0.00  0.00    +0.000 C 
ATOM     36  N   UNL     1       6.190   4.829  14.408  0.00  0.00    +0.000 NA
ATOM     37  C   UNL     1       5.273   3.754  13.972  0.00  0.00    +0.000 C 
ATOM     38  C   UNL     1       5.032   3.727  12.464  0.00  0.00    +0.000 C 
BRANCH  33  40
ATOM     39  C   UNL     1       6.694   1.406  11.066  0.00  0.00    +0.000 C 
ATOM     40  O   UNL     1       7.103   2.506  11.861  0.00  0.00    +0.000 OA
ENDBRANCH  33  40
ENDBRANCH  32  36
ENDBRANCH   1  32
TORSDOF 8
ENDMDL
MODEL 7
REMARK VINA RESULT:      -8.4      2.679      9.576
REMARK  Name = 
REMARK  10 active torsions:
REMARK  status: ('A' for Active; 'I' for Inactive)
REMARK    1  A    between atoms: C_1  and  O_2
REMARK    2  A    between atoms: O_2  and  C_3
REMARK    3  A    between atoms: N_6  and  C_7
REMARK    4  A    between atoms: C_7  and  C_8
REMARK    5  A    between atoms: C_12  and  C_13
REMARK    6  A    between atoms: N_19  and  C_20
REMARK    7  A    between atoms: C_24  and  C_25
REMARK    8  A    between atoms: C_25  and  C_26
REMARK    9  A    between atoms: C_26  and  C_27
REMARK   10  A    between atoms: N_31  and  C_32
REMARK                            x       y       z     vdW  Elec       q    Type
REMARK                         _______ _______ _______ _____ _____    ______ ____
ROOT
ATOM      1  C   UNL     1       3.409   4.236  17.804  0.00  0.00    +0.000 A 
ATOM      2  C   UNL     1       2.985   5.562  17.695  0.00  0.00    +0.000 A 
ATOM      3  C   UNL     1       2.335   6.123  18.774  0.00  0.00    +0.000 A 
ATOM      4  C   UNL     1       2.055   5.424  19.941  0.00  0.00    +0.000 A 
ATOM      5  C   UNL     1       2.392   4.075  20.051  0.00  0.00    +0.000 A 
ATOM      6  C   UNL     1       3.095   3.499  18.971  0.00  0.00    +0.000 A 
ATOM      7  C   UNL     1       1.441   6.358  20.931  0.00  0.00    +0.000 C 
ATOM      8  N   UNL     1       1.402   7.631  20.219  0.00  0.00    +0.000 N 
ATOM      9  C   UNL     1       1.908   7.510  18.924  0.00  0.00    +0.000 C 
ATOM     10  O   UNL     1       2.048   8.330  18.038  0.00  0.00    +0.000 OA
ENDROOT
BRANCH   8  11
ATOM     11  C   UNL     1       0.929   8.822  20.815  0.00  0.00    +0.000 A 
ATOM     12  C   UNL     1       0.280   8.815  22.052  0.00  0.00    +0.000 A 
ATOM     13  C   UNL     1      -0.167   9.999  22.631  0.00  0.00    +0.000 A 
ATOM     14  C   UNL     1      -0.012  11.204  21.954  0.00  0.00    +0.000 A 
ATOM     15  C   UNL     1       0.583  11.264  20.681  0.00  0.00    +0.000 A 
ATOM     16  C   UNL     1       1.086  10.054  20.161  0.00  0.00    +0.000 A 
BRANCH  15  17
ATOM     17  C   UNL     1       0.636  12.619  19.836  0.00  0.00    +0.000 C 
ATOM     18  C   UNL     1       0.447  13.981  20.571  0.00  0.00    +0.000 C 
ATOM     19  O   UNL     1       1.601  14.537  19.876  0.00  0.00    +0.000 OA
ATOM     20  C   UNL     1       2.071  13.190  19.622  0.00  0.00    +0.000 C 
BRANCH  17  21
ATOM     21  C   UNL     1      -0.176  12.514  18.533  0.00  0.00    +0.000 C 
BRANCH  21  22
ATOM     22  C   UNL     1      -1.623  12.204  18.764  0.00  0.00    +0.000 A 
ATOM     23  N   UNL     1      -2.413  12.799  19.635  0.00  0.00    +0.000 NA
ATOM     24  N   UNL     1      -3.670  12.254  19.523  0.00  0.00    +0.000 NA
ATOM     25  C   UNL     1      -3.623  11.337  18.587  0.00  0.00    +0.000 A 
ATOM     26  N   UNL     1      -2.357  11.260  18.092  0.00  0.00    +0.000 N 
ATOM     27  C   UNL     1      -1.919  10.352  17.066  0.00  0.00    +0.000 C 
ENDBRANCH  21  22
ENDBRANCH  17  21
ENDBRANCH  15  17
ENDBRANCH   8  11
BRANCH   5  28
ATOM     28  C   UNL     1       2.038   3.252  21.262  0.00  0.00    +0.000 C 
ATOM     29  F   UNL     1       2.334   3.864  22.441  0.00  0.00    +0.000 F 
ATOM     30  F   UNL     1       0.709   2.961  21.320  0.00  0.00    +0.000 F 
ATOM     31  F   UNL     1       2.688   2.057  21.291  0.00  0.00    +0.000 F 
ENDBRANCH   5  28
BRANCH   1  32
ATOM     32  C   UNL     1       4.260   3.658  16.693  0.00  0.00    +0.000 C 
BRANCH  32  36
ATOM     33  C   UNL     1       7.704   6.179  17.070  0.00  0.00    +0.000 C 
ATOM     34  C   UNL     1       7.431   5.503  15.730  0.00  0.00    +0.000 C 
ATOM     35  C   UNL     1       5.981   5.023  15.660  0.00  0.00    +0.000 C 
ATOM     36  N   UNL     1       5.684   4.044  16.723  0.00  0.00    +0.000 NA
ATOM     37  C   UNL     1       5.964   4.623  18.055  0.00  0.00    +0.000 C 
ATOM     38  C   UNL     1       7.374   5.196  18.192  0.00  0.00    +0.000 C 
BRANCH  33  40
ATOM     39  C   UNL     1       7.585   8.531  17.560  0.00  0.00    +0.000 C 
ATOM     40  O   UNL     1       6.910   7.372  17.101  0.00  0.00    +0.000 OA
ENDBRANCH  33  40
ENDBRANCH  32  36
ENDBRANCH   1  32
TORSDOF 8
ENDMDL
MODEL 8
REMARK VINA RESULT:      -8.4      3.076     10.769
REMARK  Name = 
REMARK  10 active torsions:
REMARK  status: ('A' for Active; 'I' for Inactive)
REMARK    1  A    between atoms: C_1  and  O_2
REMARK    2  A    between atoms: O_2  and  C_3
REMARK    3  A    between atoms: N_6  and  C_7
REMARK    4  A    between atoms: C_7  and  C_8
REMARK    5  A    between atoms: C_12  and  C_13
REMARK    6  A    between atoms: N_19  and  C_20
REMARK    7  A    between atoms: C_24  and  C_25
REMARK    8  A    between atoms: C_25  and  C_26
REMARK    9  A    between atoms: C_26  and  C_27
REMARK   10  A    between atoms: N_31  and  C_32
REMARK                            x       y       z     vdW  Elec       q    Type
REMARK                         _______ _______ _______ _____ _____    ______ ____
ROOT
ATOM      1  C   UNL     1       5.319   4.727  16.493  0.00  0.00    +0.000 A 
ATOM      2  C   UNL     1       4.853   6.029  16.688  0.00  0.00    +0.000 A 
ATOM      3  C   UNL     1       3.844   6.221  17.609  0.00  0.00    +0.000 A 
ATOM      4  C   UNL     1       3.255   5.184  18.320  0.00  0.00    +0.000 A 
ATOM      5  C   UNL     1       3.642   3.864  18.090  0.00  0.00    +0.000 A 
ATOM      6  C   UNL     1       4.701   3.655  17.180  0.00  0.00    +0.000 A 
ATOM      7  C   UNL     1       2.281   5.756  19.296  0.00  0.00    +0.000 C 
ATOM      8  N   UNL     1       2.377   7.195  19.069  0.00  0.00    +0.000 N 
ATOM      9  C   UNL     1       3.285   7.494  18.053  0.00  0.00    +0.000 C 
ATOM     10  O   UNL     1       3.642   8.557  17.583  0.00  0.00    +0.000 OA
ENDROOT
BRANCH   8  11
ATOM     11  C   UNL     1       1.644   8.136  19.828  0.00  0.00    +0.000 A 
ATOM     12  C   UNL     1       1.476   7.993  21.207  0.00  0.00    +0.000 A 
ATOM     13  C   UNL     1       0.763   8.936  21.942  0.00  0.00    +0.000 A 
ATOM     14  C   UNL     1       0.165  10.012  21.294  0.00  0.00    +0.000 A 
ATOM     15  C   UNL     1       0.253  10.175  19.899  0.00  0.00    +0.000 A 
ATOM     16  C   UNL     1       1.043   9.239  19.202  0.00  0.00    +0.000 A 
BRANCH  15  17
ATOM     17  C   UNL     1      -0.547  11.325  19.131  0.00  0.00    +0.000 C 
ATOM     18  C   UNL     1      -1.797  10.944  18.279  0.00  0.00    +0.000 C 
ATOM     19  O   UNL     1      -2.559  12.032  18.879  0.00  0.00    +0.000 OA
ATOM     20  C   UNL     1      -1.632  12.041  19.992  0.00  0.00    +0.000 C 
BRANCH  17  21
ATOM     21  C   UNL     1       0.401  12.302  18.414  0.00  0.00    +0.000 C 
BRANCH  21  22
ATOM     22  C   UNL     1       0.434  13.661  19.042  0.00  0.00    +0.000 A 
ATOM     23  N   UNL     1      -0.329  14.684  18.715  0.00  0.00    +0.000 NA
ATOM     24  N   UNL     1      -0.017  15.740  19.539  0.00  0.00    +0.000 NA
ATOM     25  C   UNL     1       0.932  15.341  20.351  0.00  0.00    +0.000 A 
ATOM     26  N   UNL     1       1.258  14.050  20.068  0.00  0.00    +0.000 N 
ATOM     27  C   UNL     1       2.271  13.281  20.739  0.00  0.00    +0.000 C 
ENDBRANCH  21  22
ENDBRANCH  17  21
ENDBRANCH  15  17
ENDBRANCH   8  11
BRANCH   5  28
ATOM     28  C   UNL     1       2.978   2.698  18.774  0.00  0.00    +0.000 C 
ATOM     29  F   UNL     1       1.627   2.669  18.610  0.00  0.00    +0.000 F 
ATOM     30  F   UNL     1       3.432   1.499  18.316  0.00  0.00    +0.000 F 
ATOM     31  F   UNL     1       3.188   2.693  20.119  0.00  0.00    +0.000 F 
ENDBRANCH   5  28
BRANCH   1  32
ATOM     32  C   UNL     1       6.529   4.522  15.605  0.00  0.00    +0.000 C 
BRANCH  32  36
ATOM     33  C   UNL     1       6.493   3.614  11.419  0.00  0.00    +0.000 C 
ATOM     34  C   UNL     1       7.332   4.789  11.909  0.00  0.00    +0.000 C 
ATOM     35  C   UNL     1       7.564   4.689  13.417  0.00  0.00    +0.000 C 
ATOM     36  N   UNL     1       6.290   4.707  14.161  0.00  0.00    +0.000 NA
ATOM     37  C   UNL     1       5.407   3.610  13.708  0.00  0.00    +0.000 C 
ATOM     38  C   UNL     1       5.178   3.590  12.197  0.00  0.00    +0.000 C 
BRANCH  33  40
ATOM     39  C   UNL     1       6.713   1.240  11.099  0.00  0.00    +0.000 C 
ATOM     40  O   UNL     1       7.288   2.434  11.600  0.00  0.00    +0.000 OA
ENDBRANCH  33  40
ENDBRANCH  32  36
ENDBRANCH   1  32
TORSDOF 8
ENDMDL
MODEL 9
REMARK VINA RESULT:      -8.4      1.600      2.537
REMARK  Name = 
REMARK  10 active torsions:
REMARK  status: ('A' for Active; 'I' for Inactive)
REMARK    1  A    between atoms: C_1  and  O_2
REMARK    2  A    between atoms: O_2  and  C_3
REMARK    3  A    between atoms: N_6  and  C_7
REMARK    4  A    between atoms: C_7  and  C_8
REMARK    5  A    between atoms: C_12  and  C_13
REMARK    6  A    between atoms: N_19  and  C_20
REMARK    7  A    between atoms: C_24  and  C_25
REMARK    8  A    between atoms: C_25  and  C_26
REMARK    9  A    between atoms: C_26  and  C_27
REMARK   10  A    between atoms: N_31  and  C_32
REMARK                            x       y       z     vdW  Elec       q    Type
REMARK                         _______ _______ _______ _____ _____    ______ ____
ROOT
ATOM      1  C   UNL     1       0.631  11.776  19.544  0.00  0.00    +0.000 A 
ATOM      2  C   UNL     1       1.310  10.960  18.637  0.00  0.00    +0.000 A 
ATOM      3  C   UNL     1       1.579   9.661  19.014  0.00  0.00    +0.000 A 
ATOM      4  C   UNL     1       1.237   9.143  20.256  0.00  0.00    +0.000 A 
ATOM      5  C   UNL     1       0.631   9.955  21.215  0.00  0.00    +0.000 A 
ATOM      6  C   UNL     1       0.313  11.275  20.829  0.00  0.00    +0.000 A 
ATOM      7  C   UNL     1       1.580   7.689  20.288  0.00  0.00    +0.000 C 
ATOM      8  N   UNL     1       2.140   7.443  18.962  0.00  0.00    +0.000 N 
ATOM      9  C   UNL     1       2.171   8.607  18.195  0.00  0.00    +0.000 C 
ATOM     10  O   UNL     1       2.551   8.809  17.058  0.00  0.00    +0.000 OA
ENDROOT
BRANCH   8  11
ATOM     11  C   UNL     1       2.560   6.161  18.540  0.00  0.00    +0.000 A 
ATOM     12  C   UNL     1       1.948   4.998  19.011  0.00  0.00    +0.000 A 
ATOM     13  C   UNL     1       2.365   3.744  18.575  0.00  0.00    +0.000 A 
ATOM     14  C   UNL     1       3.437   3.637  17.694  0.00  0.00    +0.000 A 
ATOM     15  C   UNL     1       4.128   4.772  17.232  0.00  0.00    +0.000 A 
ATOM     16  C   UNL     1       3.629   6.025  17.641  0.00  0.00    +0.000 A 
BRANCH  15  17
ATOM     17  C   UNL     1       5.446   4.652  16.337  0.00  0.00    +0.000 C 
ATOM     18  C   UNL     1       5.474   3.634  15.156  0.00  0.00    +0.000 C 
ATOM     19  O   UNL     1       6.028   4.650  14.271  0.00  0.00    +0.000 OA
ATOM     20  C   UNL     1       5.523   5.674  15.162  0.00  0.00    +0.000 C 
BRANCH  17  21
ATOM     21  C   UNL     1       6.721   4.619  17.198  0.00  0.00    +0.000 C 
BRANCH  21  22
ATOM     22  C   UNL     1       7.273   5.980  17.487  0.00  0.00    +0.000 A 
ATOM     23  N   UNL     1       7.279   7.006  16.659  0.00  0.00    +0.000 NA
ATOM     24  N   UNL     1       7.845   8.081  17.304  0.00  0.00    +0.000 NA
ATOM     25  C   UNL     1       8.176   7.690  18.511  0.00  0.00    +0.000 A 
ATOM     26  N   UNL     1       7.850   6.377  18.667  0.00  0.00    +0.000 N 
ATOM     27  C   UNL     1       8.081   5.598  19.853  0.00  0.00    +0.000 C 
ENDBRANCH  21  22
ENDBRANCH  17  21
ENDBRANCH  15  17
ENDBRANCH   8  11
BRANCH   5  28
ATOM     28  C   UNL     1       0.316   9.464  22.603  0.00  0.00    +0.000 C 
ATOM     29  F   UNL     1       1.414   9.067  23.303  0.00  0.00    +0.000 F 
ATOM     30  F   UNL     1      -0.283  10.419  23.368  0.00  0.00    +0.000 F 
ATOM     31  F   UNL     1      -0.529   8.397  22.601  0.00  0.00    +0.000 F 
ENDBRANCH   5  28
BRANCH   1  32
ATOM     32  C   UNL     1       0.191  13.150  19.086  0.00  0.00    +0.000 C 
BRANCH  32  36
ATOM     33  C   UNL     1      -1.757  16.480  20.950  0.00  0.00    +0.000 C 
ATOM     34  C   UNL     1      -0.234  16.414  20.970  0.00  0.00    +0.000 C 
ATOM     35  C   UNL     1       0.273  15.429  19.915  0.00  0.00    +0.000 C 
ATOM     36  N   UNL     1      -0.237  14.067  20.160  0.00  0.00    +0.000 NA
ATOM     37  C   UNL     1      -1.716  14.062  20.190  0.00  0.00    +0.000 C 
ATOM     38  C   UNL     1      -2.312  15.073  21.169  0.00  0.00    +0.000 C 
BRANCH  33  40
ATOM     39  C   UNL     1      -2.993  18.174  19.771  0.00  0.00    +0.000 C 
ATOM     40  O   UNL     1      -2.129  17.053  19.689  0.00  0.00    +0.000 OA
ENDBRANCH  33  40
ENDBRANCH  32  36
ENDBRANCH   1  32
TORSDOF 8
ENDMDL
