MODEL 1
REMARK VINA RESULT:      -8.5      0.000      0.000
REMARK  Name = 
REMARK  8 active torsions:
REMARK  status: ('A' for Active; 'I' for Inactive)
REMARK    1  A    between atoms: C_1  and  C_2
REMARK    2  A    between atoms: C_2  and  S_3
REMARK    3  A    between atoms: C_2  and  C_10
REMARK    4  A    between atoms: S_3  and  C_4
REMARK    5  A    between atoms: N_8  and  C_9
REMARK    6  A    between atoms: C_14  and  N_15
REMARK    7  A    between atoms: C_17  and  C_18
REMARK    8  A    between atoms: C_22  and  C_23
REMARK                            x       y       z     vdW  Elec       q    Type
REMARK                         _______ _______ _______ _____ _____    ______ ____
ROOT
ATOM      1  C   UNL     1       2.296   7.460  19.432  0.00  0.00    +0.000 A 
ATOM      2  C   UNL     1       2.181   8.030  18.149  0.00  0.00    +0.000 A 
ATOM      3  C   UNL     1       1.486   9.217  17.931  0.00  0.00    +0.000 A 
ATOM      4  C   UNL     1       0.868   9.861  18.992  0.00  0.00    +0.000 A 
ATOM      5  C   UNL     1       0.988   9.335  20.280  0.00  0.00    +0.000 A 
ATOM      6  C   UNL     1       1.706   8.150  20.505  0.00  0.00    +0.000 A 
ENDROOT
BRANCH   5   7
ATOM      7  N   UNL     1       0.382  10.002  21.362  0.00  0.00    +0.000 N 
ATOM      8  C   UNL     1      -0.432  11.108  21.309  0.00  0.00    +0.000 A 
ATOM      9  C   UNL     1      -0.765  11.345  22.622  0.00  0.00    +0.000 A 
ATOM     10  N   UNL     1      -0.137  10.437  23.420  0.00  0.00    +0.000 NA
ATOM     11  N   UNL     1       0.530   9.597  22.642  0.00  0.00    +0.000 NA
BRANCH   9  12
ATOM     12  C   UNL     1      -1.666  12.361  23.104  0.00  0.00    +0.000 A 
ATOM     13  C   UNL     1      -1.208  13.647  23.406  0.00  0.00    +0.000 A 
ATOM     14  C   UNL     1      -2.086  14.600  23.928  0.00  0.00    +0.000 A 
ATOM     15  C   UNL     1      -3.425  14.270  24.141  0.00  0.00    +0.000 A 
ATOM     16  C   UNL     1      -3.900  12.995  23.813  0.00  0.00    +0.000 A 
ATOM     17  C   UNL     1      -3.017  12.043  23.293  0.00  0.00    +0.000 A 
BRANCH  16  18
ATOM     18  C   UNL     1      -5.271  12.656  24.033  0.00  0.00    +0.000 C 
ATOM     19  N   UNL     1      -6.394  12.377  24.206  0.00  0.00    +0.000 NA
ENDBRANCH  16  18
ENDBRANCH   9  12
ENDBRANCH   5   7
BRANCH   1  21
ATOM     20  C   UNL     1       3.966   5.748  18.539  0.00  0.00    +0.000 C 
ATOM     21  C   UNL     1       3.022   6.130  19.688  0.00  0.00    +0.000 C 
BRANCH  21  22
ATOM     22  S   UNL     1       1.757   4.811  19.977  0.00  0.00    +0.000 S 
BRANCH  22  23
ATOM     23  C   UNL     1       2.204   3.554  18.886  0.00  0.00    +0.000 A 
ATOM     24  N   UNL     1       1.745   3.333  17.677  0.00  0.00    +0.000 NA
ATOM     25  N   UNL     1       2.305   2.153  17.229  0.00  0.00    +0.000 NA
ATOM     26  C   UNL     1       3.111   1.711  18.169  0.00  0.00    +0.000 A 
ATOM     27  N   UNL     1       3.114   2.587  19.211  0.00  0.00    +0.000 N 
ATOM     28  C   UNL     1       3.927   2.490  20.393  0.00  0.00    +0.000 C 
ENDBRANCH  22  23
ENDBRANCH  21  22
ENDBRANCH   1  21
TORSDOF 6
ENDMDL
MODEL 2
REMARK VINA RESULT:      -8.3      0.705      1.159
REMARK  Name = 
REMARK  8 active torsions:
REMARK  status: ('A' for Active; 'I' for Inactive)
REMARK    1  A    between atoms: C_1  and  C_2
REMARK    2  A    between atoms: C_2  and  S_3
REMARK    3  A    between atoms: C_2  and  C_10
REMARK    4  A    between atoms: S_3  and  C_4
REMARK    5  A    between atoms: N_8  and  C_9
REMARK    6  A    between atoms: C_14  and  N_15
REMARK    7  A    between atoms: C_17  and  C_18
REMARK    8  A    between atoms: C_22  and  C_23
REMARK                            x       y       z     vdW  Elec       q    Type
REMARK                         _______ _______ _______ _____ _____    ______ ____
ROOT
ATOM      1  C   UNL     1       2.282   7.688  19.136  0.00  0.00    +0.000 A 
ATOM      2  C   UNL     1       2.020   8.240  17.867  0.00  0.00    +0.000 A 
ATOM      3  C   UNL     1       1.220   9.369  17.706  0.00  0.00    +0.000 A 
ATOM      4  C   UNL     1       0.643   9.970  18.814  0.00  0.00    +0.000 A 
ATOM      5  C   UNL     1       0.907   9.463  20.088  0.00  0.00    +0.000 A 
ATOM      6  C   UNL     1       1.730   8.339  20.254  0.00  0.00    +0.000 A 
ENDROOT
BRANCH   5   7
ATOM      7  N   UNL     1       0.342  10.090  21.215  0.00  0.00    +0.000 N 
ATOM      8  C   UNL     1      -0.476  11.193  21.233  0.00  0.00    +0.000 A 
ATOM      9  C   UNL     1      -0.760  11.382  22.566  0.00  0.00    +0.000 A 
ATOM     10  N   UNL     1      -0.099  10.448  23.307  0.00  0.00    +0.000 NA
ATOM     11  N   UNL     1       0.539   9.640  22.474  0.00  0.00    +0.000 NA
BRANCH   9  12
ATOM     12  C   UNL     1      -1.644  12.377  23.118  0.00  0.00    +0.000 A 
ATOM     13  C   UNL     1      -1.167  13.634  23.500  0.00  0.00    +0.000 A 
ATOM     14  C   UNL     1      -2.028  14.563  24.088  0.00  0.00    +0.000 A 
ATOM     15  C   UNL     1      -3.371  14.238  24.287  0.00  0.00    +0.000 A 
ATOM     16  C   UNL     1      -3.865  12.993  23.880  0.00  0.00    +0.000 A 
ATOM     17  C   UNL     1      -2.998  12.065  23.295  0.00  0.00    +0.000 A 
BRANCH  16  18
ATOM     18  C   UNL     1      -5.239  12.660  24.086  0.00  0.00    +0.000 C 
ATOM     19  N   UNL     1      -6.363  12.387  24.261  0.00  0.00    +0.000 NA
ENDBRANCH  16  18
ENDBRANCH   9  12
ENDBRANCH   5   7
BRANCH   1  21
ATOM     20  C   UNL     1       3.626   5.837  18.003  0.00  0.00    +0.000 C 
ATOM     21  C   UNL     1       3.127   6.419  19.333  0.00  0.00    +0.000 C 
BRANCH  21  22
ATOM     22  S   UNL     1       2.121   5.179  20.268  0.00  0.00    +0.000 S 
BRANCH  22  23
ATOM     23  C   UNL     1       2.832   3.665  19.854  0.00  0.00    +0.000 A 
ATOM     24  N   UNL     1       4.035   3.230  20.150  0.00  0.00    +0.000 NA
ATOM     25  N   UNL     1       4.206   2.017  19.514  0.00  0.00    +0.000 NA
ATOM     26  C   UNL     1       3.090   1.739  18.875  0.00  0.00    +0.000 A 
ATOM     27  N   UNL     1       2.182   2.728  19.101  0.00  0.00    +0.000 N 
ATOM     28  C   UNL     1       0.821   2.746  18.636  0.00  0.00    +0.000 C 
ENDBRANCH  22  23
ENDBRANCH  21  22
ENDBRANCH   1  21
TORSDOF 6
ENDMDL
MODEL 3
REMARK VINA RESULT:      -8.2      2.681     10.409
REMARK  Name = 
REMARK  8 active torsions:
REMARK  status: ('A' for Active; 'I' for Inactive)
REMARK    1  A    between atoms: C_1  and  C_2
REMARK    2  A    between atoms: C_2  and  S_3
REMARK    3  A    between atoms: C_2  and  C_10
REMARK    4  A    between atoms: S_3  and  C_4
REMARK    5  A    between atoms: N_8  and  C_9
REMARK    6  A    between atoms: C_14  and  N_15
REMARK    7  A    between atoms: C_17  and  C_18
REMARK    8  A    between atoms: C_22  and  C_23
REMARK                            x       y       z     vdW  Elec       q    Type
REMARK                         _______ _______ _______ _____ _____    ______ ____
ROOT
ATOM      1  C   UNL     1      -0.585  11.268  21.505  0.00  0.00    +0.000 A 
ATOM      2  C   UNL     1      -0.700  10.507  22.684  0.00  0.00    +0.000 A 
ATOM      3  C   UNL     1      -0.125   9.244  22.804  0.00  0.00    +0.000 A 
ATOM      4  C   UNL     1       0.569   8.696  21.737  0.00  0.00    +0.000 A 
ATOM      5  C   UNL     1       0.725   9.439  20.564  0.00  0.00    +0.000 A 
ATOM      6  C   UNL     1       0.165  10.720  20.448  0.00  0.00    +0.000 A 
ENDROOT
BRANCH   5   7
ATOM      7  N   UNL     1       1.453   8.893  19.489  0.00  0.00    +0.000 N 
ATOM      8  C   UNL     1       2.185   7.730  19.483  0.00  0.00    +0.000 A 
ATOM      9  C   UNL     1       2.674   7.647  18.200  0.00  0.00    +0.000 A 
ATOM     10  N   UNL     1       2.277   8.740  17.491  0.00  0.00    +0.000 NA
ATOM     11  N   UNL     1       1.500   9.477  18.272  0.00  0.00    +0.000 NA
BRANCH   9  12
ATOM     12  C   UNL     1       3.453   6.565  17.651  0.00  0.00    +0.000 A 
ATOM     13  C   UNL     1       4.511   6.811  16.771  0.00  0.00    +0.000 A 
ATOM     14  C   UNL     1       5.216   5.746  16.205  0.00  0.00    +0.000 A 
ATOM     15  C   UNL     1       4.868   4.433  16.526  0.00  0.00    +0.000 A 
ATOM     16  C   UNL     1       3.830   4.177  17.430  0.00  0.00    +0.000 A 
ATOM     17  C   UNL     1       3.126   5.246  17.992  0.00  0.00    +0.000 A 
BRANCH  16  18
ATOM     18  C   UNL     1       3.473   2.833  17.757  0.00  0.00    +0.000 C 
ATOM     19  N   UNL     1       3.174   1.733  18.023  0.00  0.00    +0.000 NA
ENDBRANCH  16  18
ENDBRANCH   9  12
ENDBRANCH   5   7
BRANCH   1  21
ATOM     20  C   UNL     1      -0.412  13.589  20.456  0.00  0.00    +0.000 C 
ATOM     21  C   UNL     1      -1.246  12.645  21.335  0.00  0.00    +0.000 C 
BRANCH  21  22
ATOM     22  S   UNL     1      -1.531  13.374  23.011  0.00  0.00    +0.000 S 
BRANCH  22  23
ATOM     23  C   UNL     1      -3.232  13.232  23.247  0.00  0.00    +0.000 A 
ATOM     24  N   UNL     1      -4.037  12.306  22.780  0.00  0.00    +0.000 NA
ATOM     25  N   UNL     1      -5.325  12.662  23.126  0.00  0.00    +0.000 NA
ATOM     26  C   UNL     1      -5.259  13.778  23.818  0.00  0.00    +0.000 A 
ATOM     27  N   UNL     1      -3.956  14.147  23.958  0.00  0.00    +0.000 N 
ATOM     28  C   UNL     1      -3.474  15.271  24.716  0.00  0.00    +0.000 C 
ENDBRANCH  22  23
ENDBRANCH  21  22
ENDBRANCH   1  21
TORSDOF 6
ENDMDL
MODEL 4
REMARK VINA RESULT:      -8.2      1.697      2.193
REMARK  Name = 
REMARK  8 active torsions:
REMARK  status: ('A' for Active; 'I' for Inactive)
REMARK    1  A    between atoms: C_1  and  C_2
REMARK    2  A    between atoms: C_2  and  S_3
REMARK    3  A    between atoms: C_2  and  C_10
REMARK    4  A    between atoms: S_3  and  C_4
REMARK    5  A    between atoms: N_8  and  C_9
REMARK    6  A    between atoms: C_14  and  N_15
REMARK    7  A    between atoms: C_17  and  C_18
REMARK    8  A    between atoms: C_22  and  C_23
REMARK                            x       y       z     vdW  Elec       q    Type
REMARK                         _______ _______ _______ _____ _____    ______ ____
ROOT
ATOM      1  C   UNL     1       2.151   7.346  19.137  0.00  0.00    +0.000 A 
ATOM      2  C   UNL     1       2.331   8.093  17.958  0.00  0.00    +0.000 A 
ATOM      3  C   UNL     1       1.922   9.421  17.857  0.00  0.00    +0.000 A 
ATOM      4  C   UNL     1       1.301  10.035  18.933  0.00  0.00    +0.000 A 
ATOM      5  C   UNL     1       1.134   9.329  20.127  0.00  0.00    +0.000 A 
ATOM      6  C   UNL     1       1.565   7.999  20.237  0.00  0.00    +0.000 A 
ENDROOT
BRANCH   5   7
ATOM      7  N   UNL     1       0.526   9.962  21.229  0.00  0.00    +0.000 N 
ATOM      8  C   UNL     1      -0.267  11.083  21.213  0.00  0.00    +0.000 A 
ATOM      9  C   UNL     1      -0.612  11.271  22.531  0.00  0.00    +0.000 A 
ATOM     10  N   UNL     1      -0.011  10.318  23.298  0.00  0.00    +0.000 NA
ATOM     11  N   UNL     1       0.651   9.500  22.492  0.00  0.00    +0.000 NA
BRANCH   9  12
ATOM     12  C   UNL     1      -1.500  12.282  23.046  0.00  0.00    +0.000 A 
ATOM     13  C   UNL     1      -1.043  13.576  23.313  0.00  0.00    +0.000 A 
ATOM     14  C   UNL     1      -1.906  14.525  23.867  0.00  0.00    +0.000 A 
ATOM     15  C   UNL     1      -3.230  14.183  24.146  0.00  0.00    +0.000 A 
ATOM     16  C   UNL     1      -3.705  12.899  23.853  0.00  0.00    +0.000 A 
ATOM     17  C   UNL     1      -2.838  11.952  23.301  0.00  0.00    +0.000 A 
BRANCH  16  18
ATOM     18  C   UNL     1      -5.061  12.549  24.140  0.00  0.00    +0.000 C 
ATOM     19  N   UNL     1      -6.171  12.260  24.368  0.00  0.00    +0.000 NA
ENDBRANCH  16  18
ENDBRANCH   9  12
ENDBRANCH   5   7
BRANCH   1  21
ATOM     20  C   UNL     1       1.954   5.195  20.497  0.00  0.00    +0.000 C 
ATOM     21  C   UNL     1       2.557   5.869  19.256  0.00  0.00    +0.000 C 
BRANCH  21  22
ATOM     22  S   UNL     1       4.404   5.763  19.272  0.00  0.00    +0.000 S 
BRANCH  22  23
ATOM     23  C   UNL     1       4.810   5.269  17.672  0.00  0.00    +0.000 A 
ATOM     24  N   UNL     1       4.219   4.360  16.933  0.00  0.00    +0.000 NA
ATOM     25  N   UNL     1       4.957   4.222  15.774  0.00  0.00    +0.000 NA
ATOM     26  C   UNL     1       5.957   5.074  15.833  0.00  0.00    +0.000 A 
ATOM     27  N   UNL     1       5.876   5.787  16.990  0.00  0.00    +0.000 N 
ATOM     28  C   UNL     1       6.744   6.865  17.380  0.00  0.00    +0.000 C 
ENDBRANCH  22  23
ENDBRANCH  21  22
ENDBRANCH   1  21
TORSDOF 6
ENDMDL
MODEL 5
REMARK VINA RESULT:      -8.1      1.302      1.888
REMARK  Name = 
REMARK  8 active torsions:
REMARK  status: ('A' for Active; 'I' for Inactive)
REMARK    1  A    between atoms: C_1  and  C_2
REMARK    2  A    between atoms: C_2  and  S_3
REMARK    3  A    between atoms: C_2  and  C_10
REMARK    4  A    between atoms: S_3  and  C_4
REMARK    5  A    between atoms: N_8  and  C_9
REMARK    6  A    between atoms: C_14  and  N_15
REMARK    7  A    between atoms: C_17  and  C_18
REMARK    8  A    between atoms: C_22  and  C_23
REMARK                            x       y       z     vdW  Elec       q    Type
REMARK                         _______ _______ _______ _____ _____    ______ ____
ROOT
ATOM      1  C   UNL     1       2.292   7.501  19.329  0.00  0.00    +0.000 A 
ATOM      2  C   UNL     1       2.137   8.085  18.057  0.00  0.00    +0.000 A 
ATOM      3  C   UNL     1       1.394   9.248  17.867  0.00  0.00    +0.000 A 
ATOM      4  C   UNL     1       0.767   9.851  18.946  0.00  0.00    +0.000 A 
ATOM      5  C   UNL     1       0.926   9.311  20.224  0.00  0.00    +0.000 A 
ATOM      6  C   UNL     1       1.692   8.152  20.421  0.00  0.00    +0.000 A 
ENDROOT
BRANCH   5   7
ATOM      7  N   UNL     1       0.310   9.939  21.324  0.00  0.00    +0.000 N 
ATOM      8  C   UNL     1      -0.427  11.098  21.317  0.00  0.00    +0.000 A 
ATOM      9  C   UNL     1      -0.810  11.262  22.628  0.00  0.00    +0.000 A 
ATOM     10  N   UNL     1      -0.285  10.258  23.384  0.00  0.00    +0.000 NA
ATOM     11  N   UNL     1       0.365   9.433  22.576  0.00  0.00    +0.000 NA
BRANCH   9  12
ATOM     12  C   UNL     1      -1.666  12.300  23.144  0.00  0.00    +0.000 A 
ATOM     13  C   UNL     1      -3.002  12.041  23.466  0.00  0.00    +0.000 A 
ATOM     14  C   UNL     1      -3.831  13.074  23.909  0.00  0.00    +0.000 A 
ATOM     15  C   UNL     1      -3.322  14.367  24.039  0.00  0.00    +0.000 A 
ATOM     16  C   UNL     1      -1.978  14.631  23.749  0.00  0.00    +0.000 A 
ATOM     17  C   UNL     1      -1.153  13.594  23.303  0.00  0.00    +0.000 A 
BRANCH  16  18
ATOM     18  C   UNL     1      -1.458  15.955  23.880  0.00  0.00    +0.000 C 
ATOM     19  N   UNL     1      -1.038  17.042  23.984  0.00  0.00    +0.000 NA
ENDBRANCH  16  18
ENDBRANCH   9  12
ENDBRANCH   5   7
BRANCH   1  21
ATOM     20  C   UNL     1       3.933   5.812  18.343  0.00  0.00    +0.000 C 
ATOM     21  C   UNL     1       3.073   6.196  19.555  0.00  0.00    +0.000 C 
BRANCH  21  22
ATOM     22  S   UNL     1       1.871   4.853  19.972  0.00  0.00    +0.000 S 
BRANCH  22  23
ATOM     23  C   UNL     1       2.254   3.590  18.865  0.00  0.00    +0.000 A 
ATOM     24  N   UNL     1       1.717   3.355  17.690  0.00  0.00    +0.000 NA
ATOM     25  N   UNL     1       2.254   2.175  17.215  0.00  0.00    +0.000 NA
ATOM     26  C   UNL     1       3.122   1.745  18.104  0.00  0.00    +0.000 A 
ATOM     27  N   UNL     1       3.188   2.630  19.137  0.00  0.00    +0.000 N 
ATOM     28  C   UNL     1       4.077   2.546  20.264  0.00  0.00    +0.000 C 
ENDBRANCH  22  23
ENDBRANCH  21  22
ENDBRANCH   1  21
TORSDOF 6
ENDMDL
MODEL 6
REMARK VINA RESULT:      -8.1      1.893      2.322
REMARK  Name = 
REMARK  8 active torsions:
REMARK  status: ('A' for Active; 'I' for Inactive)
REMARK    1  A    between atoms: C_1  and  C_2
REMARK    2  A    between atoms: C_2  and  S_3
REMARK    3  A    between atoms: C_2  and  C_10
REMARK    4  A    between atoms: S_3  and  C_4
REMARK    5  A    between atoms: N_8  and  C_9
REMARK    6  A    between atoms: C_14  and  N_15
REMARK    7  A    between atoms: C_17  and  C_18
REMARK    8  A    between atoms: C_22  and  C_23
REMARK                            x       y       z     vdW  Elec       q    Type
REMARK                         _______ _______ _______ _____ _____    ______ ____
ROOT
ATOM      1  C   UNL     1       2.518   6.289  19.176  0.00  0.00    +0.000 A 
ATOM      2  C   UNL     1       2.711   6.874  17.909  0.00  0.00    +0.000 A 
ATOM      3  C   UNL     1       2.373   8.200  17.652  0.00  0.00    +0.000 A 
ATOM      4  C   UNL     1       1.813   8.978  18.653  0.00  0.00    +0.000 A 
ATOM      5  C   UNL     1       1.636   8.435  19.928  0.00  0.00    +0.000 A 
ATOM      6  C   UNL     1       1.996   7.105  20.195  0.00  0.00    +0.000 A 
ENDROOT
BRANCH   5   7
ATOM      7  N   UNL     1       1.092   9.233  20.953  0.00  0.00    +0.000 N 
ATOM      8  C   UNL     1       0.310  10.353  20.811  0.00  0.00    +0.000 A 
ATOM      9  C   UNL     1       0.034  10.738  22.102  0.00  0.00    +0.000 A 
ATOM     10  N   UNL     1       0.664   9.898  22.970  0.00  0.00    +0.000 NA
ATOM     11  N   UNL     1       1.275   8.960  22.263  0.00  0.00    +0.000 NA
BRANCH   9  12
ATOM     12  C   UNL     1      -0.817  11.829  22.504  0.00  0.00    +0.000 A 
ATOM     13  C   UNL     1      -0.418  13.158  22.331  0.00  0.00    +0.000 A 
ATOM     14  C   UNL     1      -1.232  14.200  22.782  0.00  0.00    +0.000 A 
ATOM     15  C   UNL     1      -2.451  13.914  23.398  0.00  0.00    +0.000 A 
ATOM     16  C   UNL     1      -2.873  12.588  23.549  0.00  0.00    +0.000 A 
ATOM     17  C   UNL     1      -2.055  11.548  23.098  0.00  0.00    +0.000 A 
BRANCH  16  18
ATOM     18  C   UNL     1      -4.121  12.296  24.181  0.00  0.00    +0.000 C 
ATOM     19  N   UNL     1      -5.141  12.061  24.705  0.00  0.00    +0.000 NA
ENDBRANCH  16  18
ENDBRANCH   9  12
ENDBRANCH   5   7
BRANCH   1  21
ATOM     20  C   UNL     1       2.133   4.301  20.730  0.00  0.00    +0.000 C 
ATOM     21  C   UNL     1       2.844   4.817  19.471  0.00  0.00    +0.000 C 
BRANCH  21  22
ATOM     22  S   UNL     1       4.680   4.636  19.622  0.00  0.00    +0.000 S 
BRANCH  22  23
ATOM     23  C   UNL     1       5.210   4.376  18.004  0.00  0.00    +0.000 A 
ATOM     24  N   UNL     1       4.627   3.664  17.067  0.00  0.00    +0.000 NA
ATOM     25  N   UNL     1       5.469   3.646  15.974  0.00  0.00    +0.000 NA
ATOM     26  C   UNL     1       6.525   4.372  16.270  0.00  0.00    +0.000 A 
ATOM     27  N   UNL     1       6.381   4.889  17.521  0.00  0.00    +0.000 N 
ATOM     28  C   UNL     1       7.291   5.796  18.169  0.00  0.00    +0.000 C 
ENDBRANCH  22  23
ENDBRANCH  21  22
ENDBRANCH   1  21
TORSDOF 6
ENDMDL
MODEL 7
REMARK VINA RESULT:      -8.1      6.626      8.860
REMARK  Name = 
REMARK  8 active torsions:
REMARK  status: ('A' for Active; 'I' for Inactive)
REMARK    1  A    between atoms: C_1  and  C_2
REMARK    2  A    between atoms: C_2  and  S_3
REMARK    3  A    between atoms: C_2  and  C_10
REMARK    4  A    between atoms: S_3  and  C_4
REMARK    5  A    between atoms: N_8  and  C_9
REMARK    6  A    between atoms: C_14  and  N_15
REMARK    7  A    between atoms: C_17  and  C_18
REMARK    8  A    between atoms: C_22  and  C_23
REMARK                            x       y       z     vdW  Elec       q    Type
REMARK                         _______ _______ _______ _____ _____    ______ ____
ROOT
ATOM      1  C   UNL     1       4.174   5.350  17.348  0.00  0.00    +0.000 A 
ATOM      2  C   UNL     1       4.643   4.399  16.423  0.00  0.00    +0.000 A 
ATOM      3  C   UNL     1       5.954   4.414  15.951  0.00  0.00    +0.000 A 
ATOM      4  C   UNL     1       6.831   5.397  16.381  0.00  0.00    +0.000 A 
ATOM      5  C   UNL     1       6.404   6.338  17.320  0.00  0.00    +0.000 A 
ATOM      6  C   UNL     1       5.090   6.311  17.813  0.00  0.00    +0.000 A 
ENDROOT
BRANCH   5   7
ATOM      7  N   UNL     1       7.303   7.322  17.776  0.00  0.00    +0.000 N 
ATOM      8  C   UNL     1       7.438   8.607  17.312  0.00  0.00    +0.000 A 
ATOM      9  C   UNL     1       8.430   9.147  18.097  0.00  0.00    +0.000 A 
ATOM     10  N   UNL     1       8.888   8.201  18.963  0.00  0.00    +0.000 NA
ATOM     11  N   UNL     1       8.170   7.102  18.789  0.00  0.00    +0.000 NA
BRANCH   9  12
ATOM     12  C   UNL     1       8.902  10.508  18.060  0.00  0.00    +0.000 A 
ATOM     13  C   UNL     1      10.255  10.808  18.251  0.00  0.00    +0.000 A 
ATOM     14  C   UNL     1      10.683  12.137  18.269  0.00  0.00    +0.000 A 
ATOM     15  C   UNL     1       9.761  13.168  18.088  0.00  0.00    +0.000 A 
ATOM     16  C   UNL     1       8.410  12.877  17.865  0.00  0.00    +0.000 A 
ATOM     17  C   UNL     1       7.985  11.546  17.849  0.00  0.00    +0.000 A 
BRANCH  16  18
ATOM     18  C   UNL     1       7.465  13.934  17.680  0.00  0.00    +0.000 C 
ATOM     19  N   UNL     1       6.686  14.793  17.529  0.00  0.00    +0.000 NA
ENDBRANCH  16  18
ENDBRANCH   9  12
ENDBRANCH   5   7
BRANCH   1  21
ATOM     20  C   UNL     1       2.599   5.989  19.253  0.00  0.00    +0.000 C 
ATOM     21  C   UNL     1       2.722   5.378  17.850  0.00  0.00    +0.000 C 
BRANCH  21  22
ATOM     22  S   UNL     1       2.051   3.654  17.814  0.00  0.00    +0.000 S 
BRANCH  22  23
ATOM     23  C   UNL     1       1.941   3.212  19.475  0.00  0.00    +0.000 A 
ATOM     24  N   UNL     1       0.880   3.231  20.248  0.00  0.00    +0.000 NA
ATOM     25  N   UNL     1       1.290   2.907  21.526  0.00  0.00    +0.000 NA
ATOM     26  C   UNL     1       2.583   2.671  21.483  0.00  0.00    +0.000 A 
ATOM     27  N   UNL     1       3.026   2.806  20.202  0.00  0.00    +0.000 N 
ATOM     28  C   UNL     1       4.364   2.554  19.741  0.00  0.00    +0.000 C 
ENDBRANCH  22  23
ENDBRANCH  21  22
ENDBRANCH   1  21
TORSDOF 6
ENDMDL
MODEL 8
REMARK VINA RESULT:      -8.1      3.272      9.827
REMARK  Name = 
REMARK  8 active torsions:
REMARK  status: ('A' for Active; 'I' for Inactive)
REMARK    1  A    between atoms: C_1  and  C_2
REMARK    2  A    between atoms: C_2  and  S_3
REMARK    3  A    between atoms: C_2  and  C_10
REMARK    4  A    between atoms: S_3  and  C_4
REMARK    5  A    between atoms: N_8  and  C_9
REMARK    6  A    between atoms: C_14  and  N_15
REMARK    7  A    between atoms: C_17  and  C_18
REMARK    8  A    between atoms: C_22  and  C_23
REMARK                            x       y       z     vdW  Elec       q    Type
REMARK                         _______ _______ _______ _____ _____    ______ ____
ROOT
ATOM      1  C   UNL     1      -0.661  11.418  21.324  0.00  0.00    +0.000 A 
ATOM      2  C   UNL     1      -0.751  10.709  22.537  0.00  0.00    +0.000 A 
ATOM      3  C   UNL     1      -0.136   9.472  22.713  0.00  0.00    +0.000 A 
ATOM      4  C   UNL     1       0.574   8.898  21.670  0.00  0.00    +0.000 A 
ATOM      5  C   UNL     1       0.705   9.591  20.464  0.00  0.00    +0.000 A 
ATOM      6  C   UNL     1       0.104  10.847  20.292  0.00  0.00    +0.000 A 
ENDROOT
BRANCH   5   7
ATOM      7  N   UNL     1       1.448   9.020  19.413  0.00  0.00    +0.000 N 
ATOM      8  C   UNL     1       2.129   7.827  19.426  0.00  0.00    +0.000 A 
ATOM      9  C   UNL     1       2.663   7.729  18.162  0.00  0.00    +0.000 A 
ATOM     10  N   UNL     1       2.340   8.843  17.446  0.00  0.00    +0.000 NA
ATOM     11  N   UNL     1       1.567   9.608  18.203  0.00  0.00    +0.000 NA
BRANCH   9  12
ATOM     12  C   UNL     1       3.414   6.618  17.635  0.00  0.00    +0.000 A 
ATOM     13  C   UNL     1       4.540   6.823  16.832  0.00  0.00    +0.000 A 
ATOM     14  C   UNL     1       5.220   5.733  16.284  0.00  0.00    +0.000 A 
ATOM     15  C   UNL     1       4.779   4.435  16.545  0.00  0.00    +0.000 A 
ATOM     16  C   UNL     1       3.671   4.218  17.373  0.00  0.00    +0.000 A 
ATOM     17  C   UNL     1       2.992   5.312  17.918  0.00  0.00    +0.000 A 
BRANCH  16  18
ATOM     18  C   UNL     1       3.219   2.889  17.639  0.00  0.00    +0.000 C 
ATOM     19  N   UNL     1       2.850   1.798  17.850  0.00  0.00    +0.000 NA
ENDBRANCH  16  18
ENDBRANCH   9  12
ENDBRANCH   5   7
BRANCH   1  21
ATOM     20  C   UNL     1      -2.781  12.593  20.520  0.00  0.00    +0.000 C 
ATOM     21  C   UNL     1      -1.367  12.764  21.093  0.00  0.00    +0.000 C 
BRANCH  21  22
ATOM     22  S   UNL     1      -0.316  13.799  19.976  0.00  0.00    +0.000 S 
BRANCH  22  23
ATOM     23  C   UNL     1       1.130  14.055  20.877  0.00  0.00    +0.000 A 
ATOM     24  N   UNL     1       1.247  14.499  22.107  0.00  0.00    +0.000 NA
ATOM     25  N   UNL     1       2.594  14.651  22.368  0.00  0.00    +0.000 NA
ATOM     26  C   UNL     1       3.254  14.266  21.298  0.00  0.00    +0.000 A 
ATOM     27  N   UNL     1       2.373  13.838  20.352  0.00  0.00    +0.000 N 
ATOM     28  C   UNL     1       2.715  13.270  19.076  0.00  0.00    +0.000 C 
ENDBRANCH  22  23
ENDBRANCH  21  22
ENDBRANCH   1  21
TORSDOF 6
ENDMDL
MODEL 9
REMARK VINA RESULT:      -8.0      2.152      2.793
REMARK  Name = 
REMARK  8 active torsions:
REMARK  status: ('A' for Active; 'I' for Inactive)
REMARK    1  A    between atoms: C_1  and  C_2
REMARK    2  A    between atoms: C_2  and  S_3
REMARK    3  A    between atoms: C_2  and  C_10
REMARK    4  A    between atoms: S_3  and  C_4
REMARK    5  A    between atoms: N_8  and  C_9
REMARK    6  A    between atoms: C_14  and  N_15
REMARK    7  A    between atoms: C_17  and  C_18
REMARK    8  A    between atoms: C_22  and  C_23
REMARK                            x       y       z     vdW  Elec       q    Type
REMARK                         _______ _______ _______ _____ _____    ______ ____
ROOT
ATOM      1  C   UNL     1       2.332   6.962  19.229  0.00  0.00    +0.000 A 
ATOM      2  C   UNL     1       2.468   7.645  18.005  0.00  0.00    +0.000 A 
ATOM      3  C   UNL     1       2.021   8.953  17.838  0.00  0.00    +0.000 A 
ATOM      4  C   UNL     1       1.406   9.613  18.891  0.00  0.00    +0.000 A 
ATOM      5  C   UNL     1       1.283   8.972  20.126  0.00  0.00    +0.000 A 
ATOM      6  C   UNL     1       1.752   7.662  20.302  0.00  0.00    +0.000 A 
ENDROOT
BRANCH   5   7
ATOM      7  N   UNL     1       0.682   9.652  21.204  0.00  0.00    +0.000 N 
ATOM      8  C   UNL     1      -0.094  10.783  21.147  0.00  0.00    +0.000 A 
ATOM      9  C   UNL     1      -0.440  11.022  22.456  0.00  0.00    +0.000 A 
ATOM     10  N   UNL     1       0.145  10.088  23.257  0.00  0.00    +0.000 NA
ATOM     11  N   UNL     1       0.796   9.233  22.483  0.00  0.00    +0.000 NA
BRANCH   9  12
ATOM     12  C   UNL     1      -1.315  12.063  22.933  0.00  0.00    +0.000 A 
ATOM     13  C   UNL     1      -2.621  11.778  23.341  0.00  0.00    +0.000 A 
ATOM     14  C   UNL     1      -3.472  12.810  23.744  0.00  0.00    +0.000 A 
ATOM     15  C   UNL     1      -3.013  14.129  23.748  0.00  0.00    +0.000 A 
ATOM     16  C   UNL     1      -1.697  14.421  23.370  0.00  0.00    +0.000 A 
ATOM     17  C   UNL     1      -0.850  13.385  22.965  0.00  0.00    +0.000 A 
BRANCH  16  18
ATOM     18  C   UNL     1      -1.229  15.771  23.372  0.00  0.00    +0.000 C 
ATOM     19  N   UNL     1      -0.845  16.876  23.381  0.00  0.00    +0.000 NA
ENDBRANCH  16  18
ENDBRANCH   9  12
ENDBRANCH   5   7
BRANCH   1  21
ATOM     20  C   UNL     1       2.222   4.889  20.714  0.00  0.00    +0.000 C 
ATOM     21  C   UNL     1       2.780   5.505  19.423  0.00  0.00    +0.000 C 
BRANCH  21  22
ATOM     22  S   UNL     1       4.629   5.447  19.403  0.00  0.00    +0.000 S 
BRANCH  22  23
ATOM     23  C   UNL     1       5.015   4.894  17.818  0.00  0.00    +0.000 A 
ATOM     24  N   UNL     1       4.187   4.534  16.864  0.00  0.00    +0.000 NA
ATOM     25  N   UNL     1       4.945   4.055  15.814  0.00  0.00    +0.000 NA
ATOM     26  C   UNL     1       6.211   4.167  16.152  0.00  0.00    +0.000 A 
ATOM     27  N   UNL     1       6.302   4.734  17.386  0.00  0.00    +0.000 N 
ATOM     28  C   UNL     1       7.520   5.088  18.064  0.00  0.00    +0.000 C 
ENDBRANCH  22  23
ENDBRANCH  21  22
ENDBRANCH   1  21
TORSDOF 6
ENDMDL
