MODEL 1
REMARK VINA RESULT:      -8.1      0.000      0.000
REMARK  Name = 
REMARK  7 active torsions:
REMARK  status: ('A' for Active; 'I' for Inactive)
REMARK    1  A    between atoms: C_1  and  C_2
REMARK    2  A    between atoms: C_2  and  S_3
REMARK    3  A    between atoms: C_2  and  C_10
REMARK    4  A    between atoms: S_3  and  C_4
REMARK    5  A    between atoms: N_8  and  C_9
REMARK    6  A    between atoms: C_16  and  C_18
REMARK    7  A    between atoms: C_23  and  C_24
REMARK                            x       y       z     vdW  Elec       q    Type
REMARK                         _______ _______ _______ _____ _____    ______ ____
ROOT
ATOM      1  C   UNL     1       0.293  11.187  20.843  0.00  0.00    +0.000 A 
ATOM      2  C   UNL     1       0.783  12.144  19.949  0.00  0.00    +0.000 A 
ATOM      3  C   UNL     1       1.521  11.727  18.859  0.00  0.00    +0.000 A 
ATOM      4  N   UNL     1       1.812  10.441  18.608  0.00  0.00    +0.000 NA
ATOM      5  C   UNL     1       1.361   9.503  19.456  0.00  0.00    +0.000 A 
ATOM      6  N   UNL     1       1.679   8.159  19.225  0.00  0.00    +0.000 N 
ATOM      7  C   UNL     1       2.399   7.710  18.134  0.00  0.00    +0.000 C 
ATOM      8  O   UNL     1       2.822   8.365  17.189  0.00  0.00    +0.000 OA
ATOM      9  C   UNL     1       0.596   9.835  20.574  0.00  0.00    +0.000 A 
ATOM     10  H   UNL     1       1.389   7.461  19.900  0.00  0.00    +0.000 HD
ENDROOT
BRANCH   7  11
ATOM     11  C   UNL     1       2.681   6.240  18.138  0.00  0.00    +0.000 A 
ATOM     12  C   UNL     1       3.793   5.762  17.462  0.00  0.00    +0.000 A 
ATOM     13  C   UNL     1       4.067   4.401  17.518  0.00  0.00    +0.000 A 
ATOM     14  C   UNL     1       3.235   3.549  18.251  0.00  0.00    +0.000 A 
ATOM     15 CL   UNL     1       3.680   1.886  18.278  0.00  0.00    +0.000 Cl
ATOM     16  C   UNL     1       2.126   4.091  18.909  0.00  0.00    +0.000 A 
ATOM     17  N   UNL     1       1.837   5.440  18.846  0.00  0.00    +0.000 NA
BRANCH  16  18
ATOM     18  C   UNL     1       1.179   3.250  19.751  0.00  0.00    +0.000 C 
ATOM     19  F   UNL     1       1.742   2.485  20.725  0.00  0.00    +0.000 F 
ATOM     20  F   UNL     1       0.257   4.024  20.398  0.00  0.00    +0.000 F 
ATOM     21  F   UNL     1       0.452   2.380  18.989  0.00  0.00    +0.000 F 
ENDBRANCH  16  18
ENDBRANCH   7  11
BRANCH   1  23
ATOM     22  C   UNL     1      -0.782  10.378  23.030  0.00  0.00    +0.000 C 
ATOM     23  C   UNL     1      -0.520  11.563  22.085  0.00  0.00    +0.000 C 
BRANCH  23  24
ATOM     24  S   UNL     1      -2.115  12.299  21.534  0.00  0.00    +0.000 S 
BRANCH  24  25
ATOM     25  C   UNL     1      -2.892  12.720  23.015  0.00  0.00    +0.000 A 
ATOM     26  N   UNL     1      -3.765  12.021  23.697  0.00  0.00    +0.000 NA
ATOM     27  N   UNL     1      -4.156  12.781  24.781  0.00  0.00    +0.000 NA
ATOM     28  C   UNL     1      -3.493  13.915  24.729  0.00  0.00    +0.000 A 
ATOM     29  N   UNL     1      -2.665  13.909  23.648  0.00  0.00    +0.000 N 
ATOM     30  C   UNL     1      -1.756  14.955  23.265  0.00  0.00    +0.000 C 
ENDBRANCH  24  25
ENDBRANCH  23  24
ENDBRANCH   1  23
TORSDOF 5
ENDMDL
MODEL 2
REMARK VINA RESULT:      -8.0      4.062      4.689
REMARK  Name = 
REMARK  7 active torsions:
REMARK  status: ('A' for Active; 'I' for Inactive)
REMARK    1  A    between atoms: C_1  and  C_2
REMARK    2  A    between atoms: C_2  and  S_3
REMARK    3  A    between atoms: C_2  and  C_10
REMARK    4  A    between atoms: S_3  and  C_4
REMARK    5  A    between atoms: N_8  and  C_9
REMARK    6  A    between atoms: C_16  and  C_18
REMARK    7  A    between atoms: C_23  and  C_24
REMARK                            x       y       z     vdW  Elec       q    Type
REMARK                         _______ _______ _______ _____ _____    ______ ____
ROOT
ATOM      1  C   UNL     1       0.338  10.521  20.200  0.00  0.00    +0.000 A 
ATOM      2  C   UNL     1      -0.254  10.004  21.357  0.00  0.00    +0.000 A 
ATOM      3  C   UNL     1       0.057   8.718  21.752  0.00  0.00    +0.000 A 
ATOM      4  N   UNL     1       0.895   7.916  21.076  0.00  0.00    +0.000 NA
ATOM      5  C   UNL     1       1.470   8.386  19.958  0.00  0.00    +0.000 A 
ATOM      6  N   UNL     1       2.325   7.553  19.224  0.00  0.00    +0.000 N 
ATOM      7  C   UNL     1       2.670   6.270  19.604  0.00  0.00    +0.000 C 
ATOM      8  O   UNL     1       2.350   5.675  20.627  0.00  0.00    +0.000 OA
ATOM      9  C   UNL     1       1.224   9.678  19.495  0.00  0.00    +0.000 A 
ATOM     10  H   UNL     1       2.708   7.889  18.349  0.00  0.00    +0.000 HD
ENDROOT
BRANCH   7  11
ATOM     11  C   UNL     1       3.538   5.544  18.624  0.00  0.00    +0.000 A 
ATOM     12  C   UNL     1       2.955   4.668  17.722  0.00  0.00    +0.000 A 
ATOM     13  C   UNL     1       3.771   4.041  16.788  0.00  0.00    +0.000 A 
ATOM     14  C   UNL     1       5.143   4.305  16.768  0.00  0.00    +0.000 A 
ATOM     15 CL   UNL     1       6.059   3.497  15.553  0.00  0.00    +0.000 Cl
ATOM     16  C   UNL     1       5.673   5.196  17.707  0.00  0.00    +0.000 A 
ATOM     17  N   UNL     1       4.873   5.812  18.650  0.00  0.00    +0.000 NA
BRANCH  16  18
ATOM     18  C   UNL     1       7.148   5.566  17.748  0.00  0.00    +0.000 C 
ATOM     19  F   UNL     1       8.037   4.536  17.776  0.00  0.00    +0.000 F 
ATOM     20  F   UNL     1       7.510   6.316  16.664  0.00  0.00    +0.000 F 
ATOM     21  F   UNL     1       7.453   6.332  18.837  0.00  0.00    +0.000 F 
ENDBRANCH  16  18
ENDBRANCH   7  11
BRANCH   1  23
ATOM     22  C   UNL     1      -1.016  11.961  18.563  0.00  0.00    +0.000 C 
ATOM     23  C   UNL     1       0.037  11.931  19.683  0.00  0.00    +0.000 C 
BRANCH  23  24
ATOM     24  S   UNL     1       1.611  12.681  19.093  0.00  0.00    +0.000 S 
BRANCH  24  25
ATOM     25  C   UNL     1       2.067  13.721  20.391  0.00  0.00    +0.000 A 
ATOM     26  N   UNL     1       2.880  13.465  21.385  0.00  0.00    +0.000 NA
ATOM     27  N   UNL     1       2.893  14.570  22.212  0.00  0.00    +0.000 NA
ATOM     28  C   UNL     1       2.096  15.470  21.682  0.00  0.00    +0.000 A 
ATOM     29  N   UNL     1       1.574  14.989  20.520  0.00  0.00    +0.000 N 
ATOM     30  C   UNL     1       0.681  15.685  19.633  0.00  0.00    +0.000 C 
ENDBRANCH  24  25
ENDBRANCH  23  24
ENDBRANCH   1  23
TORSDOF 5
ENDMDL
MODEL 3
REMARK VINA RESULT:      -8.0      3.873      4.740
REMARK  Name = 
REMARK  7 active torsions:
REMARK  status: ('A' for Active; 'I' for Inactive)
REMARK    1  A    between atoms: C_1  and  C_2
REMARK    2  A    between atoms: C_2  and  S_3
REMARK    3  A    between atoms: C_2  and  C_10
REMARK    4  A    between atoms: S_3  and  C_4
REMARK    5  A    between atoms: N_8  and  C_9
REMARK    6  A    between atoms: C_16  and  C_18
REMARK    7  A    between atoms: C_23  and  C_24
REMARK                            x       y       z     vdW  Elec       q    Type
REMARK                         _______ _______ _______ _____ _____    ______ ____
ROOT
ATOM      1  C   UNL     1       0.281  10.539  20.204  0.00  0.00    +0.000 A 
ATOM      2  C   UNL     1      -0.290  10.024  21.372  0.00  0.00    +0.000 A 
ATOM      3  C   UNL     1       0.040   8.743  21.770  0.00  0.00    +0.000 A 
ATOM      4  N   UNL     1       0.878   7.946  21.087  0.00  0.00    +0.000 NA
ATOM      5  C   UNL     1       1.432   8.415  19.958  0.00  0.00    +0.000 A 
ATOM      6  N   UNL     1       2.286   7.587  19.218  0.00  0.00    +0.000 N 
ATOM      7  C   UNL     1       2.649   6.310  19.601  0.00  0.00    +0.000 C 
ATOM      8  O   UNL     1       2.351   5.718  20.632  0.00  0.00    +0.000 OA
ATOM      9  C   UNL     1       1.165   9.701  19.491  0.00  0.00    +0.000 A 
ATOM     10  H   UNL     1       2.653   7.921  18.335  0.00  0.00    +0.000 HD
ENDROOT
BRANCH   7  11
ATOM     11  C   UNL     1       3.512   5.587  18.614  0.00  0.00    +0.000 A 
ATOM     12  C   UNL     1       2.943   4.621  17.797  0.00  0.00    +0.000 A 
ATOM     13  C   UNL     1       3.748   3.996  16.853  0.00  0.00    +0.000 A 
ATOM     14  C   UNL     1       5.096   4.351  16.737  0.00  0.00    +0.000 A 
ATOM     15 CL   UNL     1       5.997   3.536  15.517  0.00  0.00    +0.000 Cl
ATOM     16  C   UNL     1       5.612   5.330  17.592  0.00  0.00    +0.000 A 
ATOM     17  N   UNL     1       4.823   5.946  18.545  0.00  0.00    +0.000 NA
BRANCH  16  18
ATOM     18  C   UNL     1       7.057   5.800  17.525  0.00  0.00    +0.000 C 
ATOM     19  F   UNL     1       7.347   6.975  18.147  0.00  0.00    +0.000 F 
ATOM     20  F   UNL     1       7.911   4.887  18.077  0.00  0.00    +0.000 F 
ATOM     21  F   UNL     1       7.483   5.962  16.237  0.00  0.00    +0.000 F 
ENDBRANCH  16  18
ENDBRANCH   7  11
BRANCH   1  23
ATOM     22  C   UNL     1       0.827  13.046  20.307  0.00  0.00    +0.000 C 
ATOM     23  C   UNL     1      -0.043  11.942  19.682  0.00  0.00    +0.000 C 
BRANCH  23  24
ATOM     24  S   UNL     1      -1.824  12.283  19.998  0.00  0.00    +0.000 S 
BRANCH  24  25
ATOM     25  C   UNL     1      -2.592  11.771  18.541  0.00  0.00    +0.000 A 
ATOM     26  N   UNL     1      -2.030  11.329  17.444  0.00  0.00    +0.000 NA
ATOM     27  N   UNL     1      -3.033  11.099  16.523  0.00  0.00    +0.000 NA
ATOM     28  C   UNL     1      -4.176  11.396  17.100  0.00  0.00    +0.000 A 
ATOM     29  N   UNL     1      -3.948  11.798  18.381  0.00  0.00    +0.000 N 
ATOM     30  C   UNL     1      -4.945  12.180  19.344  0.00  0.00    +0.000 C 
ENDBRANCH  24  25
ENDBRANCH  23  24
ENDBRANCH   1  23
TORSDOF 5
ENDMDL
MODEL 4
REMARK VINA RESULT:      -8.0      9.343     12.365
REMARK  Name = 
REMARK  7 active torsions:
REMARK  status: ('A' for Active; 'I' for Inactive)
REMARK    1  A    between atoms: C_1  and  C_2
REMARK    2  A    between atoms: C_2  and  S_3
REMARK    3  A    between atoms: C_2  and  C_10
REMARK    4  A    between atoms: S_3  and  C_4
REMARK    5  A    between atoms: N_8  and  C_9
REMARK    6  A    between atoms: C_16  and  C_18
REMARK    7  A    between atoms: C_23  and  C_24
REMARK                            x       y       z     vdW  Elec       q    Type
REMARK                         _______ _______ _______ _____ _____    ______ ____
ROOT
ATOM      1  C   UNL     1       6.459   6.574  17.288  0.00  0.00    +0.000 A 
ATOM      2  C   UNL     1       7.075   5.784  18.263  0.00  0.00    +0.000 A 
ATOM      3  C   UNL     1       8.056   6.344  19.059  0.00  0.00    +0.000 A 
ATOM      4  N   UNL     1       8.469   7.616  18.942  0.00  0.00    +0.000 NA
ATOM      5  C   UNL     1       7.900   8.393  18.008  0.00  0.00    +0.000 A 
ATOM      6  N   UNL     1       8.339   9.714  17.853  0.00  0.00    +0.000 N 
ATOM      7  C   UNL     1       9.303  10.307  18.645  0.00  0.00    +0.000 C 
ATOM      8  O   UNL     1       9.882   9.828  19.614  0.00  0.00    +0.000 OA
ATOM      9  C   UNL     1       6.892   7.913  17.171  0.00  0.00    +0.000 A 
ATOM     10  H   UNL     1       7.951  10.278  17.106  0.00  0.00    +0.000 HD
ENDROOT
BRANCH   7  11
ATOM     11  C   UNL     1       9.663  11.704  18.245  0.00  0.00    +0.000 A 
ATOM     12  C   UNL     1      10.831  11.923  17.529  0.00  0.00    +0.000 A 
ATOM     13  C   UNL     1      11.123  13.220  17.124  0.00  0.00    +0.000 A 
ATOM     14  C   UNL     1      10.247  14.264  17.432  0.00  0.00    +0.000 A 
ATOM     15 CL   UNL     1      10.690  15.827  16.859  0.00  0.00    +0.000 Cl
ATOM     16  C   UNL     1       9.087  13.980  18.161  0.00  0.00    +0.000 A 
ATOM     17  N   UNL     1       8.795  12.697  18.581  0.00  0.00    +0.000 NA
BRANCH  16  18
ATOM     18  C   UNL     1       8.061  15.043  18.521  0.00  0.00    +0.000 C 
ATOM     19  F   UNL     1       8.509  16.106  19.242  0.00  0.00    +0.000 F 
ATOM     20  F   UNL     1       7.487  15.589  17.406  0.00  0.00    +0.000 F 
ATOM     21  F   UNL     1       7.024  14.529  19.247  0.00  0.00    +0.000 F 
ENDBRANCH  16  18
ENDBRANCH   7  11
BRANCH   1  23
ATOM     22  C   UNL     1       3.997   5.898  17.023  0.00  0.00    +0.000 C 
ATOM     23  C   UNL     1       5.375   6.029  16.353  0.00  0.00    +0.000 C 
BRANCH  23  24
ATOM     24  S   UNL     1       5.928   4.394  15.714  0.00  0.00    +0.000 S 
BRANCH  24  25
ATOM     25  C   UNL     1       6.915   4.809  14.362  0.00  0.00    +0.000 A 
ATOM     26  N   UNL     1       7.951   5.608  14.333  0.00  0.00    +0.000 NA
ATOM     27  N   UNL     1       8.385   5.685  13.024  0.00  0.00    +0.000 NA
ATOM     28  C   UNL     1       7.603   4.913  12.303  0.00  0.00    +0.000 A 
ATOM     29  N   UNL     1       6.679   4.320  13.108  0.00  0.00    +0.000 N 
ATOM     30  C   UNL     1       5.666   3.386  12.699  0.00  0.00    +0.000 C 
ENDBRANCH  24  25
ENDBRANCH  23  24
ENDBRANCH   1  23
TORSDOF 5
ENDMDL
MODEL 5
REMARK VINA RESULT:      -7.9      1.002      1.213
REMARK  Name = 
REMARK  7 active torsions:
REMARK  status: ('A' for Active; 'I' for Inactive)
REMARK    1  A    between atoms: C_1  and  C_2
REMARK    2  A    between atoms: C_2  and  S_3
REMARK    3  A    between atoms: C_2  and  C_10
REMARK    4  A    between atoms: S_3  and  C_4
REMARK    5  A    between atoms: N_8  and  C_9
REMARK    6  A    between atoms: C_16  and  C_18
REMARK    7  A    between atoms: C_23  and  C_24
REMARK                            x       y       z     vdW  Elec       q    Type
REMARK                         _______ _______ _______ _____ _____    ______ ____
ROOT
ATOM      1  C   UNL     1       0.063  11.008  19.497  0.00  0.00    +0.000 A 
ATOM      2  C   UNL     1       0.960  11.913  18.921  0.00  0.00    +0.000 A 
ATOM      3  C   UNL     1       2.063  11.425  18.247  0.00  0.00    +0.000 A 
ATOM      4  N   UNL     1       2.336  10.117  18.119  0.00  0.00    +0.000 NA
ATOM      5  C   UNL     1       1.495   9.229  18.671  0.00  0.00    +0.000 A 
ATOM      6  N   UNL     1       1.780   7.861  18.573  0.00  0.00    +0.000 N 
ATOM      7  C   UNL     1       2.863   7.343  17.889  0.00  0.00    +0.000 C 
ATOM      8  O   UNL     1       3.700   7.951  17.231  0.00  0.00    +0.000 OA
ATOM      9  C   UNL     1       0.350   9.633  19.357  0.00  0.00    +0.000 A 
ATOM     10  H   UNL     1       1.176   7.197  19.043  0.00  0.00    +0.000 HD
ENDROOT
BRANCH   7  11
ATOM     11  C   UNL     1       3.006   5.856  17.985  0.00  0.00    +0.000 A 
ATOM     12  C   UNL     1       4.103   5.242  17.400  0.00  0.00    +0.000 A 
ATOM     13  C   UNL     1       4.244   3.867  17.542  0.00  0.00    +0.000 A 
ATOM     14  C   UNL     1       3.298   3.137  18.266  0.00  0.00    +0.000 A 
ATOM     15 CL   UNL     1       3.582   1.444  18.405  0.00  0.00    +0.000 Cl
ATOM     16  C   UNL     1       2.210   3.813  18.829  0.00  0.00    +0.000 A 
ATOM     17  N   UNL     1       2.053   5.178  18.681  0.00  0.00    +0.000 NA
BRANCH  16  18
ATOM     18  C   UNL     1       1.144   3.110  19.656  0.00  0.00    +0.000 C 
ATOM     19  F   UNL     1       1.581   2.254  20.618  0.00  0.00    +0.000 F 
ATOM     20  F   UNL     1       0.345   4.004  20.313  0.00  0.00    +0.000 F 
ATOM     21  F   UNL     1       0.297   2.373  18.877  0.00  0.00    +0.000 F 
ENDBRANCH  16  18
ENDBRANCH   7  11
BRANCH   1  23
ATOM     22  C   UNL     1      -2.124  12.353  19.455  0.00  0.00    +0.000 C 
ATOM     23  C   UNL     1      -1.176  11.463  20.275  0.00  0.00    +0.000 C 
BRANCH  23  24
ATOM     24  S   UNL     1      -0.617  12.354  21.785  0.00  0.00    +0.000 S 
BRANCH  24  25
ATOM     25  C   UNL     1      -2.058  12.490  22.723  0.00  0.00    +0.000 A 
ATOM     26  N   UNL     1      -2.651  11.563  23.432  0.00  0.00    +0.000 NA
ATOM     27  N   UNL     1      -3.804  12.111  23.959  0.00  0.00    +0.000 NA
ATOM     28  C   UNL     1      -3.863  13.363  23.563  0.00  0.00    +0.000 A 
ATOM     29  N   UNL     1      -2.770  13.653  22.804  0.00  0.00    +0.000 N 
ATOM     30  C   UNL     1      -2.458  14.925  22.211  0.00  0.00    +0.000 C 
ENDBRANCH  24  25
ENDBRANCH  23  24
ENDBRANCH   1  23
TORSDOF 5
ENDMDL
MODEL 6
REMARK VINA RESULT:      -7.9      3.204      4.192
REMARK  Name = 
REMARK  7 active torsions:
REMARK  status: ('A' for Active; 'I' for Inactive)
REMARK    1  A    between atoms: C_1  and  C_2
REMARK    2  A    between atoms: C_2  and  S_3
REMARK    3  A    between atoms: C_2  and  C_10
REMARK    4  A    between atoms: S_3  and  C_4
REMARK    5  A    between atoms: N_8  and  C_9
REMARK    6  A    between atoms: C_16  and  C_18
REMARK    7  A    between atoms: C_23  and  C_24
REMARK                            x       y       z     vdW  Elec       q    Type
REMARK                         _______ _______ _______ _____ _____    ______ ____
ROOT
ATOM      1  C   UNL     1      -0.079  11.122  18.552  0.00  0.00    +0.000 A 
ATOM      2  C   UNL     1       0.992  12.013  18.422  0.00  0.00    +0.000 A 
ATOM      3  C   UNL     1       2.257  11.510  18.189  0.00  0.00    +0.000 A 
ATOM      4  N   UNL     1       2.528  10.199  18.091  0.00  0.00    +0.000 NA
ATOM      5  C   UNL     1       1.519   9.323  18.219  0.00  0.00    +0.000 A 
ATOM      6  N   UNL     1       1.788   7.950  18.148  0.00  0.00    +0.000 N 
ATOM      7  C   UNL     1       3.038   7.419  17.897  0.00  0.00    +0.000 C 
ATOM      8  O   UNL     1       4.077   8.020  17.650  0.00  0.00    +0.000 OA
ATOM      9  C   UNL     1       0.208   9.745  18.442  0.00  0.00    +0.000 A 
ATOM     10  H   UNL     1       1.035   7.292  18.308  0.00  0.00    +0.000 HD
ENDROOT
BRANCH   7  11
ATOM     11  C   UNL     1       3.099   5.924  17.942  0.00  0.00    +0.000 A 
ATOM     12  C   UNL     1       4.120   5.267  17.273  0.00  0.00    +0.000 A 
ATOM     13  C   UNL     1       4.188   3.882  17.367  0.00  0.00    +0.000 A 
ATOM     14  C   UNL     1       3.247   3.185  18.129  0.00  0.00    +0.000 A 
ATOM     15 CL   UNL     1       3.439   1.475  18.202  0.00  0.00    +0.000 Cl
ATOM     16  C   UNL     1       2.237   3.904  18.778  0.00  0.00    +0.000 A 
ATOM     17  N   UNL     1       2.152   5.279  18.678  0.00  0.00    +0.000 NA
BRANCH  16  18
ATOM     18  C   UNL     1       1.184   3.237  19.650  0.00  0.00    +0.000 C 
ATOM     19  F   UNL     1       1.636   2.408  20.629  0.00  0.00    +0.000 F 
ATOM     20  F   UNL     1       0.408   4.158  20.297  0.00  0.00    +0.000 F 
ATOM     21  F   UNL     1       0.314   2.483  18.915  0.00  0.00    +0.000 F 
ENDBRANCH  16  18
ENDBRANCH   7  11
BRANCH   1  23
ATOM     22  C   UNL     1      -1.711  12.147  20.247  0.00  0.00    +0.000 C 
ATOM     23  C   UNL     1      -1.510  11.593  18.827  0.00  0.00    +0.000 C 
BRANCH  23  24
ATOM     24  S   UNL     1      -2.653  10.182  18.529  0.00  0.00    +0.000 S 
BRANCH  24  25
ATOM     25  C   UNL     1      -2.976  10.281  16.838  0.00  0.00    +0.000 A 
ATOM     26  N   UNL     1      -2.312   9.728  15.854  0.00  0.00    +0.000 NA
ATOM     27  N   UNL     1      -2.898  10.134  14.672  0.00  0.00    +0.000 NA
ATOM     28  C   UNL     1      -3.912  10.910  14.980  0.00  0.00    +0.000 A 
ATOM     29  N   UNL     1      -4.015  11.010  16.334  0.00  0.00    +0.000 N 
ATOM     30  C   UNL     1      -5.014  11.747  17.061  0.00  0.00    +0.000 C 
ENDBRANCH  24  25
ENDBRANCH  23  24
ENDBRANCH   1  23
TORSDOF 5
ENDMDL
MODEL 7
REMARK VINA RESULT:      -7.8      1.169      1.722
REMARK  Name = 
REMARK  7 active torsions:
REMARK  status: ('A' for Active; 'I' for Inactive)
REMARK    1  A    between atoms: C_1  and  C_2
REMARK    2  A    between atoms: C_2  and  S_3
REMARK    3  A    between atoms: C_2  and  C_10
REMARK    4  A    between atoms: S_3  and  C_4
REMARK    5  A    between atoms: N_8  and  C_9
REMARK    6  A    between atoms: C_16  and  C_18
REMARK    7  A    between atoms: C_23  and  C_24
REMARK                            x       y       z     vdW  Elec       q    Type
REMARK                         _______ _______ _______ _____ _____    ______ ____
ROOT
ATOM      1  C   UNL     1       0.055  11.559  21.064  0.00  0.00    +0.000 A 
ATOM      2  C   UNL     1       0.175  12.393  19.948  0.00  0.00    +0.000 A 
ATOM      3  C   UNL     1       0.757  11.895  18.799  0.00  0.00    +0.000 A 
ATOM      4  N   UNL     1       1.234  10.645  18.690  0.00  0.00    +0.000 NA
ATOM      5  C   UNL     1       1.139   9.827  19.750  0.00  0.00    +0.000 A 
ATOM      6  N   UNL     1       1.658   8.529  19.664  0.00  0.00    +0.000 N 
ATOM      7  C   UNL     1       2.228   7.998  18.523  0.00  0.00    +0.000 C 
ATOM      8  O   UNL     1       2.330   8.519  17.418  0.00  0.00    +0.000 OA
ATOM      9  C   UNL     1       0.553  10.243  20.945  0.00  0.00    +0.000 A 
ATOM     10  H   UNL     1       1.640   7.936  20.485  0.00  0.00    +0.000 HD
ENDROOT
BRANCH   7  11
ATOM     11  C   UNL     1       2.780   6.616  18.690  0.00  0.00    +0.000 A 
ATOM     12  C   UNL     1       4.033   6.321  18.174  0.00  0.00    +0.000 A 
ATOM     13  C   UNL     1       4.550   5.048  18.382  0.00  0.00    +0.000 A 
ATOM     14  C   UNL     1       3.815   4.103  19.103  0.00  0.00    +0.000 A 
ATOM     15 CL   UNL     1       4.559   2.566  19.327  0.00  0.00    +0.000 Cl
ATOM     16  C   UNL     1       2.555   4.460  19.595  0.00  0.00    +0.000 A 
ATOM     17  N   UNL     1       2.026   5.717  19.380  0.00  0.00    +0.000 NA
BRANCH  16  18
ATOM     18  C   UNL     1       1.693   3.510  20.413  0.00  0.00    +0.000 C 
ATOM     19  F   UNL     1       1.451   2.285  19.872  0.00  0.00    +0.000 F 
ATOM     20  F   UNL     1       2.245   3.254  21.637  0.00  0.00    +0.000 F 
ATOM     21  F   UNL     1       0.460   4.036  20.675  0.00  0.00    +0.000 F 
ENDBRANCH  16  18
ENDBRANCH   7  11
BRANCH   1  23
ATOM     22  C   UNL     1      -1.430  10.969  23.073  0.00  0.00    +0.000 C 
ATOM     23  C   UNL     1      -0.562  12.034  22.383  0.00  0.00    +0.000 C 
BRANCH  23  24
ATOM     24  S   UNL     1      -1.561  13.543  22.045  0.00  0.00    +0.000 S 
BRANCH  24  25
ATOM     25  C   UNL     1      -1.421  14.448  23.507  0.00  0.00    +0.000 A 
ATOM     26  N   UNL     1      -0.401  15.155  23.925  0.00  0.00    +0.000 NA
ATOM     27  N   UNL     1      -0.719  15.650  25.174  0.00  0.00    +0.000 NA
ATOM     28  C   UNL     1      -1.932  15.238  25.466  0.00  0.00    +0.000 A 
ATOM     29  N   UNL     1      -2.424  14.500  24.433  0.00  0.00    +0.000 N 
ATOM     30  C   UNL     1      -3.728  13.898  24.360  0.00  0.00    +0.000 C 
ENDBRANCH  24  25
ENDBRANCH  23  24
ENDBRANCH   1  23
TORSDOF 5
ENDMDL
MODEL 8
REMARK VINA RESULT:      -7.8      1.062      1.558
REMARK  Name = 
REMARK  7 active torsions:
REMARK  status: ('A' for Active; 'I' for Inactive)
REMARK    1  A    between atoms: C_1  and  C_2
REMARK    2  A    between atoms: C_2  and  S_3
REMARK    3  A    between atoms: C_2  and  C_10
REMARK    4  A    between atoms: S_3  and  C_4
REMARK    5  A    between atoms: N_8  and  C_9
REMARK    6  A    between atoms: C_16  and  C_18
REMARK    7  A    between atoms: C_23  and  C_24
REMARK                            x       y       z     vdW  Elec       q    Type
REMARK                         _______ _______ _______ _____ _____    ______ ____
ROOT
ATOM      1  C   UNL     1       0.097  11.006  20.946  0.00  0.00    +0.000 A 
ATOM      2  C   UNL     1       0.295  11.786  19.803  0.00  0.00    +0.000 A 
ATOM      3  C   UNL     1       0.957  11.236  18.722  0.00  0.00    +0.000 A 
ATOM      4  N   UNL     1       1.440   9.984  18.707  0.00  0.00    +0.000 NA
ATOM      5  C   UNL     1       1.270   9.217  19.795  0.00  0.00    +0.000 A 
ATOM      6  N   UNL     1       1.792   7.917  19.808  0.00  0.00    +0.000 N 
ATOM      7  C   UNL     1       2.441   7.334  18.736  0.00  0.00    +0.000 C 
ATOM      8  O   UNL     1       2.621   7.802  17.618  0.00  0.00    +0.000 OA
ATOM      9  C   UNL     1       0.601   9.687  20.925  0.00  0.00    +0.000 A 
ATOM     10  H   UNL     1       1.717   7.364  20.653  0.00  0.00    +0.000 HD
ENDROOT
BRANCH   7  11
ATOM     11  C   UNL     1       2.980   5.964  19.007  0.00  0.00    +0.000 A 
ATOM     12  C   UNL     1       4.341   5.734  18.879  0.00  0.00    +0.000 A 
ATOM     13  C   UNL     1       4.829   4.469  19.183  0.00  0.00    +0.000 A 
ATOM     14  C   UNL     1       3.955   3.466  19.613  0.00  0.00    +0.000 A 
ATOM     15 CL   UNL     1       4.667   1.943  19.990  0.00  0.00    +0.000 Cl
ATOM     16  C   UNL     1       2.592   3.758  19.718  0.00  0.00    +0.000 A 
ATOM     17  N   UNL     1       2.095   5.008  19.404  0.00  0.00    +0.000 NA
BRANCH  16  18
ATOM     18  C   UNL     1       1.568   2.742  20.202  0.00  0.00    +0.000 C 
ATOM     19  F   UNL     1       0.274   3.158  20.261  0.00  0.00    +0.000 F 
ATOM     20  F   UNL     1       1.547   1.630  19.408  0.00  0.00    +0.000 F 
ATOM     21  F   UNL     1       1.855   2.285  21.457  0.00  0.00    +0.000 F 
ENDBRANCH  16  18
ENDBRANCH   7  11
BRANCH   1  23
ATOM     22  C   UNL     1      -1.032  10.440  23.181  0.00  0.00    +0.000 C 
ATOM     23  C   UNL     1      -0.612  11.542  22.193  0.00  0.00    +0.000 C 
BRANCH  23  24
ATOM     24  S   UNL     1      -2.084  12.506  21.655  0.00  0.00    +0.000 S 
BRANCH  24  25
ATOM     25  C   UNL     1      -2.401  13.533  23.004  0.00  0.00    +0.000 A 
ATOM     26  N   UNL     1      -1.539  14.180  23.747  0.00  0.00    +0.000 NA
ATOM     27  N   UNL     1      -2.245  14.823  24.745  0.00  0.00    +0.000 NA
ATOM     28  C   UNL     1      -3.519  14.556  24.563  0.00  0.00    +0.000 A 
ATOM     29  N   UNL     1      -3.667  13.769  23.462  0.00  0.00    +0.000 N 
ATOM     30  C   UNL     1      -4.908  13.286  22.920  0.00  0.00    +0.000 C 
ENDBRANCH  24  25
ENDBRANCH  23  24
ENDBRANCH   1  23
TORSDOF 5
ENDMDL
MODEL 9
REMARK VINA RESULT:      -7.8      1.194      1.419
REMARK  Name = 
REMARK  7 active torsions:
REMARK  status: ('A' for Active; 'I' for Inactive)
REMARK    1  A    between atoms: C_1  and  C_2
REMARK    2  A    between atoms: C_2  and  S_3
REMARK    3  A    between atoms: C_2  and  C_10
REMARK    4  A    between atoms: S_3  and  C_4
REMARK    5  A    between atoms: N_8  and  C_9
REMARK    6  A    between atoms: C_16  and  C_18
REMARK    7  A    between atoms: C_23  and  C_24
REMARK                            x       y       z     vdW  Elec       q    Type
REMARK                         _______ _______ _______ _____ _____    ______ ____
ROOT
ATOM      1  C   UNL     1      -0.198  11.820  21.072  0.00  0.00    +0.000 A 
ATOM      2  C   UNL     1      -0.168  12.637  19.937  0.00  0.00    +0.000 A 
ATOM      3  C   UNL     1       0.390  12.145  18.774  0.00  0.00    +0.000 A 
ATOM      4  N   UNL     1       0.925  10.919  18.667  0.00  0.00    +0.000 NA
ATOM      5  C   UNL     1       0.917  10.119  19.744  0.00  0.00    +0.000 A 
ATOM      6  N   UNL     1       1.497   8.847  19.660  0.00  0.00    +0.000 N 
ATOM      7  C   UNL     1       2.045   8.322  18.505  0.00  0.00    +0.000 C 
ATOM      8  O   UNL     1       2.074   8.825  17.388  0.00  0.00    +0.000 OA
ATOM      9  C   UNL     1       0.361  10.529  20.956  0.00  0.00    +0.000 A 
ATOM     10  H   UNL     1       1.544   8.271  20.491  0.00  0.00    +0.000 HD
ENDROOT
BRANCH   7  11
ATOM     11  C   UNL     1       2.673   6.974  18.673  0.00  0.00    +0.000 A 
ATOM     12  C   UNL     1       3.901   6.720  18.080  0.00  0.00    +0.000 A 
ATOM     13  C   UNL     1       4.492   5.480  18.288  0.00  0.00    +0.000 A 
ATOM     14  C   UNL     1       3.854   4.526  19.086  0.00  0.00    +0.000 A 
ATOM     15 CL   UNL     1       4.686   3.033  19.302  0.00  0.00    +0.000 Cl
ATOM     16  C   UNL     1       2.615   4.839  19.654  0.00  0.00    +0.000 A 
ATOM     17  N   UNL     1       2.012   6.064  19.440  0.00  0.00    +0.000 NA
BRANCH  16  18
ATOM     18  C   UNL     1       1.858   3.877  20.556  0.00  0.00    +0.000 C 
ATOM     19  F   UNL     1       1.798   2.579  20.153  0.00  0.00    +0.000 F 
ATOM     20  F   UNL     1       2.396   3.834  21.812  0.00  0.00    +0.000 F 
ATOM     21  F   UNL     1       0.558   4.258  20.733  0.00  0.00    +0.000 F 
ENDBRANCH  16  18
ENDBRANCH   7  11
BRANCH   1  23
ATOM     22  C   UNL     1      -1.567  11.198  23.153  0.00  0.00    +0.000 C 
ATOM     23  C   UNL     1      -0.783  12.291  22.407  0.00  0.00    +0.000 C 
BRANCH  23  24
ATOM     24  S   UNL     1      -1.869  13.742  22.086  0.00  0.00    +0.000 S 
BRANCH  24  25
ATOM     25  C   UNL     1      -3.404  13.229  22.681  0.00  0.00    +0.000 A 
ATOM     26  N   UNL     1      -4.288  12.466  22.087  0.00  0.00    +0.000 NA
ATOM     27  N   UNL     1      -5.389  12.377  22.915  0.00  0.00    +0.000 NA
ATOM     28  C   UNL     1      -5.129  13.079  23.995  0.00  0.00    +0.000 A 
ATOM     29  N   UNL     1      -3.880  13.612  23.903  0.00  0.00    +0.000 N 
ATOM     30  C   UNL     1      -3.222  14.418  24.895  0.00  0.00    +0.000 C 
ENDBRANCH  24  25
ENDBRANCH  23  24
ENDBRANCH   1  23
TORSDOF 5
ENDMDL
