MODEL 1
REMARK VINA RESULT:      -8.3      0.000      0.000
REMARK  Name = 
REMARK  9 active torsions:
REMARK  status: ('A' for Active; 'I' for Inactive)
REMARK    1  A    between atoms: C_1  and  N_2
REMARK    2  A    between atoms: C_6  and  C_7
REMARK    3  A    between atoms: C_7  and  C_8
REMARK    4  A    between atoms: C_8  and  C_9
REMARK    5  A    between atoms: C_13  and  N_14
REMARK    6  A    between atoms: C_15  and  C_17
REMARK    7  A    between atoms: C_19  and  C_20
REMARK    8  A    between atoms: C_20  and  N_21
REMARK    9  A    between atoms: C_26  and  C_27
REMARK                            x       y       z     vdW  Elec       q    Type
REMARK                         _______ _______ _______ _____ _____    ______ ____
ROOT
ATOM      1  N   UNL     1       0.625   9.195  19.056  0.00  0.00    +0.000 N 
ATOM      2  C   UNL     1       1.725   9.152  18.224  0.00  0.00    +0.000 C 
ATOM      3  O   UNL     1       2.039   9.988  17.387  0.00  0.00    +0.000 OA
ATOM      4  H   UNL     1       0.586   8.457  19.755  0.00  0.00    +0.000 HD
ENDROOT
BRANCH   1   9
ATOM      5  C   UNL     1      -1.596  11.923  20.248  0.00  0.00    +0.000 A 
ATOM      6  C   UNL     1      -2.477  12.020  19.150  0.00  0.00    +0.000 A 
ATOM      7  C   UNL     1      -2.336  11.213  18.025  0.00  0.00    +0.000 A 
ATOM      8  C   UNL     1      -1.307  10.276  17.967  0.00  0.00    +0.000 A 
ATOM      9  C   UNL     1      -0.411  10.144  19.023  0.00  0.00    +0.000 A 
ATOM     10  C   UNL     1      -0.564  10.966  20.146  0.00  0.00    +0.000 A 
BRANCH   5  11
ATOM     11  C   UNL     1      -1.777  12.815  21.565  0.00  0.00    +0.000 C 
ATOM     12  C   UNL     1      -0.514  13.584  22.050  0.00  0.00    +0.000 C 
ATOM     13  O   UNL     1      -0.499  12.893  23.313  0.00  0.00    +0.000 OA
ATOM     14  C   UNL     1      -1.650  12.107  22.943  0.00  0.00    +0.000 C 
BRANCH  11  15
ATOM     15  C   UNL     1      -3.002  13.737  21.408  0.00  0.00    +0.000 C 
BRANCH  15  21
ATOM     16  C   UNL     1      -3.892  14.863  24.271  0.00  0.00    +0.000 C 
ATOM     17  N   UNL     1      -4.520  13.833  23.486  0.00  0.00    +0.000 N 
ATOM     18  C   UNL     1      -5.608  13.117  23.886  0.00  0.00    +0.000 A 
ATOM     19  N   UNL     1      -5.953  12.278  22.943  0.00  0.00    +0.000 NA
ATOM     20  N   UNL     1      -5.063  12.428  21.909  0.00  0.00    +0.000 NA
ATOM     21  C   UNL     1      -4.184  13.354  22.242  0.00  0.00    +0.000 A 
ENDBRANCH  15  21
ENDBRANCH  11  15
ENDBRANCH   5  11
ENDBRANCH   1   9
BRANCH   2  22
ATOM     22  C   UNL     1       2.577   7.935  18.385  0.00  0.00    +0.000 A 
ATOM     23  C   UNL     1       3.661   7.789  17.553  0.00  0.00    +0.000 A 
ATOM     24  C   UNL     1       4.314   6.590  17.646  0.00  0.00    +0.000 A 
ATOM     25  N   UNL     1       3.941   5.642  18.540  0.00  0.00    +0.000 NA
ATOM     26  C   UNL     1       2.887   5.883  19.351  0.00  0.00    +0.000 A 
ATOM     27  N   UNL     1       2.161   7.014  19.289  0.00  0.00    +0.000 NA
BRANCH  26  28
ATOM     28  C   UNL     1       2.537   4.852  20.398  0.00  0.00    +0.000 C 
ATOM     29  C   UNL     1       1.122   4.342  20.549  0.00  0.00    +0.000 C 
ATOM     30  C   UNL     1       2.184   3.433  20.005  0.00  0.00    +0.000 C 
ENDBRANCH  26  28
BRANCH  24  31
ATOM     31  C   UNL     1       5.409   6.232  16.660  0.00  0.00    +0.000 C 
BRANCH  31  32
ATOM     32  N   UNL     1       5.438   4.823  16.227  0.00  0.00    +0.000 NA
ATOM     33  C   UNL     1       5.184   4.707  14.776  0.00  0.00    +0.000 C 
ATOM     34  C   UNL     1       6.498   3.933  14.618  0.00  0.00    +0.000 C 
ATOM     35  C   UNL     1       6.850   4.422  16.026  0.00  0.00    +0.000 C 
ENDBRANCH  31  32
ENDBRANCH  24  31
ENDBRANCH   2  22
TORSDOF 8
ENDMDL
MODEL 2
REMARK VINA RESULT:      -8.2      0.923      3.052
REMARK  Name = 
REMARK  9 active torsions:
REMARK  status: ('A' for Active; 'I' for Inactive)
REMARK    1  A    between atoms: C_1  and  N_2
REMARK    2  A    between atoms: C_6  and  C_7
REMARK    3  A    between atoms: C_7  and  C_8
REMARK    4  A    between atoms: C_8  and  C_9
REMARK    5  A    between atoms: C_13  and  N_14
REMARK    6  A    between atoms: C_15  and  C_17
REMARK    7  A    between atoms: C_19  and  C_20
REMARK    8  A    between atoms: C_20  and  N_21
REMARK    9  A    between atoms: C_26  and  C_27
REMARK                            x       y       z     vdW  Elec       q    Type
REMARK                         _______ _______ _______ _____ _____    ______ ____
ROOT
ATOM      1  N   UNL     1       0.593   9.113  18.790  0.00  0.00    +0.000 N 
ATOM      2  C   UNL     1       1.802   9.165  18.125  0.00  0.00    +0.000 C 
ATOM      3  O   UNL     1       2.262  10.126  17.522  0.00  0.00    +0.000 OA
ATOM      4  H   UNL     1       0.428   8.258  19.315  0.00  0.00    +0.000 HD
ENDROOT
BRANCH   1   9
ATOM      5  C   UNL     1      -1.581  11.801  20.147  0.00  0.00    +0.000 A 
ATOM      6  C   UNL     1      -2.383  12.063  19.016  0.00  0.00    +0.000 A 
ATOM      7  C   UNL     1      -2.203  11.380  17.817  0.00  0.00    +0.000 A 
ATOM      8  C   UNL     1      -1.214  10.405  17.715  0.00  0.00    +0.000 A 
ATOM      9  C   UNL     1      -0.397  10.111  18.802  0.00  0.00    +0.000 A 
ATOM     10  C   UNL     1      -0.587  10.810  20.000  0.00  0.00    +0.000 A 
BRANCH   5  11
ATOM     11  C   UNL     1      -1.810  12.549  21.544  0.00  0.00    +0.000 C 
ATOM     12  C   UNL     1      -0.545  13.174  22.201  0.00  0.00    +0.000 C 
ATOM     13  O   UNL     1      -0.665  12.347  23.372  0.00  0.00    +0.000 OA
ATOM     14  C   UNL     1      -1.828  11.684  22.835  0.00  0.00    +0.000 C 
BRANCH  11  15
ATOM     15  C   UNL     1      -2.964  13.562  21.412  0.00  0.00    +0.000 C 
BRANCH  15  21
ATOM     16  C   UNL     1      -3.794  14.596  24.327  0.00  0.00    +0.000 C 
ATOM     17  N   UNL     1      -4.493  13.665  23.483  0.00  0.00    +0.000 N 
ATOM     18  C   UNL     1      -5.639  13.017  23.834  0.00  0.00    +0.000 A 
ATOM     19  N   UNL     1      -6.039  12.260  22.844  0.00  0.00    +0.000 NA
ATOM     20  N   UNL     1      -5.128  12.396  21.826  0.00  0.00    +0.000 NA
ATOM     21  C   UNL     1      -4.183  13.229  22.216  0.00  0.00    +0.000 A 
ENDBRANCH  15  21
ENDBRANCH  11  15
ENDBRANCH   5  11
ENDBRANCH   1   9
BRANCH   2  22
ATOM     22  C   UNL     1       2.582   7.891  18.159  0.00  0.00    +0.000 A 
ATOM     23  C   UNL     1       2.193   6.919  19.049  0.00  0.00    +0.000 A 
ATOM     24  C   UNL     1       3.030   5.838  19.140  0.00  0.00    +0.000 A 
ATOM     25  N   UNL     1       4.132   5.723  18.360  0.00  0.00    +0.000 NA
ATOM     26  C   UNL     1       4.419   6.706  17.479  0.00  0.00    +0.000 A 
ATOM     27  N   UNL     1       3.677   7.823  17.363  0.00  0.00    +0.000 NA
BRANCH  26  28
ATOM     28  C   UNL     1       5.603   6.522  16.559  0.00  0.00    +0.000 C 
ATOM     29  C   UNL     1       6.415   5.247  16.578  0.00  0.00    +0.000 C 
ATOM     30  C   UNL     1       5.542   5.553  15.398  0.00  0.00    +0.000 C 
ENDBRANCH  26  28
BRANCH  24  31
ATOM     31  C   UNL     1       2.814   4.787  20.211  0.00  0.00    +0.000 C 
BRANCH  31  32
ATOM     32  N   UNL     1       1.575   3.997  20.083  0.00  0.00    +0.000 NA
ATOM     33  C   UNL     1       1.400   3.502  18.701  0.00  0.00    +0.000 C 
ATOM     34  C   UNL     1       1.292   2.071  19.238  0.00  0.00    +0.000 C 
ATOM     35  C   UNL     1       1.845   2.619  20.556  0.00  0.00    +0.000 C 
ENDBRANCH  31  32
ENDBRANCH  24  31
ENDBRANCH   2  22
TORSDOF 8
ENDMDL
MODEL 3
REMARK VINA RESULT:      -8.2      2.497      3.603
REMARK  Name = 
REMARK  9 active torsions:
REMARK  status: ('A' for Active; 'I' for Inactive)
REMARK    1  A    between atoms: C_1  and  N_2
REMARK    2  A    between atoms: C_6  and  C_7
REMARK    3  A    between atoms: C_7  and  C_8
REMARK    4  A    between atoms: C_8  and  C_9
REMARK    5  A    between atoms: C_13  and  N_14
REMARK    6  A    between atoms: C_15  and  C_17
REMARK    7  A    between atoms: C_19  and  C_20
REMARK    8  A    between atoms: C_20  and  N_21
REMARK    9  A    between atoms: C_26  and  C_27
REMARK                            x       y       z     vdW  Elec       q    Type
REMARK                         _______ _______ _______ _____ _____    ______ ____
ROOT
ATOM      1  N   UNL     1       1.512   8.859  19.063  0.00  0.00    +0.000 N 
ATOM      2  C   UNL     1       2.364   8.409  18.073  0.00  0.00    +0.000 C 
ATOM      3  O   UNL     1       2.565   8.939  16.989  0.00  0.00    +0.000 OA
ATOM      4  H   UNL     1       1.554   8.336  19.935  0.00  0.00    +0.000 HD
ENDROOT
BRANCH   1   9
ATOM      5  C   UNL     1      -1.482  10.787  18.011  0.00  0.00    +0.000 A 
ATOM      6  C   UNL     1      -1.201  12.029  18.617  0.00  0.00    +0.000 A 
ATOM      7  C   UNL     1      -0.052  12.228  19.376  0.00  0.00    +0.000 A 
ATOM      8  C   UNL     1       0.857  11.188  19.547  0.00  0.00    +0.000 A 
ATOM      9  C   UNL     1       0.623   9.943  18.971  0.00  0.00    +0.000 A 
ATOM     10  C   UNL     1      -0.539   9.757  18.214  0.00  0.00    +0.000 A 
BRANCH   5  11
ATOM     11  C   UNL     1      -2.779  10.560  17.099  0.00  0.00    +0.000 C 
ATOM     12  C   UNL     1      -2.656   9.472  15.992  0.00  0.00    +0.000 C 
ATOM     13  O   UNL     1      -2.888  10.425  14.939  0.00  0.00    +0.000 OA
ATOM     14  C   UNL     1      -2.986  11.509  15.885  0.00  0.00    +0.000 C 
BRANCH  11  15
ATOM     15  C   UNL     1      -4.017  10.351  17.992  0.00  0.00    +0.000 C 
BRANCH  15  21
ATOM     16  C   UNL     1      -4.305  12.643  20.209  0.00  0.00    +0.000 C 
ATOM     17  N   UNL     1      -5.086  12.459  19.016  0.00  0.00    +0.000 N 
ATOM     18  C   UNL     1      -6.145  13.240  18.660  0.00  0.00    +0.000 A 
ATOM     19  N   UNL     1      -6.627  12.833  17.514  0.00  0.00    +0.000 NA
ATOM     20  N   UNL     1      -5.885  11.750  17.114  0.00  0.00    +0.000 NA
ATOM     21  C   UNL     1      -4.964  11.510  18.028  0.00  0.00    +0.000 A 
ENDBRANCH  15  21
ENDBRANCH  11  15
ENDBRANCH   5  11
ENDBRANCH   1   9
BRANCH   2  22
ATOM     22  C   UNL     1       3.073   7.135  18.399  0.00  0.00    +0.000 A 
ATOM     23  C   UNL     1       4.270   6.883  17.773  0.00  0.00    +0.000 A 
ATOM     24  C   UNL     1       4.798   5.640  17.996  0.00  0.00    +0.000 A 
ATOM     25  N   UNL     1       4.200   4.749  18.824  0.00  0.00    +0.000 NA
ATOM     26  C   UNL     1       3.045   5.093  19.433  0.00  0.00    +0.000 A 
ATOM     27  N   UNL     1       2.434   6.275  19.229  0.00  0.00    +0.000 NA
BRANCH  26  28
ATOM     28  C   UNL     1       2.436   4.121  20.417  0.00  0.00    +0.000 C 
ATOM     29  C   UNL     1       0.937   3.956  20.525  0.00  0.00    +0.000 C 
ATOM     30  C   UNL     1       1.765   2.850  19.942  0.00  0.00    +0.000 C 
ENDBRANCH  26  28
BRANCH  24  31
ATOM     31  C   UNL     1       6.016   5.172  17.223  0.00  0.00    +0.000 C 
BRANCH  31  32
ATOM     32  N   UNL     1       5.963   5.387  15.765  0.00  0.00    +0.000 NA
ATOM     33  C   UNL     1       7.167   4.842  15.103  0.00  0.00    +0.000 C 
ATOM     34  C   UNL     1       6.270   3.999  14.190  0.00  0.00    +0.000 C 
ATOM     35  C   UNL     1       5.132   4.319  15.162  0.00  0.00    +0.000 C 
ENDBRANCH  31  32
ENDBRANCH  24  31
ENDBRANCH   2  22
TORSDOF 8
ENDMDL
MODEL 4
REMARK VINA RESULT:      -8.1      2.490      4.530
REMARK  Name = 
REMARK  9 active torsions:
REMARK  status: ('A' for Active; 'I' for Inactive)
REMARK    1  A    between atoms: C_1  and  N_2
REMARK    2  A    between atoms: C_6  and  C_7
REMARK    3  A    between atoms: C_7  and  C_8
REMARK    4  A    between atoms: C_8  and  C_9
REMARK    5  A    between atoms: C_13  and  N_14
REMARK    6  A    between atoms: C_15  and  C_17
REMARK    7  A    between atoms: C_19  and  C_20
REMARK    8  A    between atoms: C_20  and  N_21
REMARK    9  A    between atoms: C_26  and  C_27
REMARK                            x       y       z     vdW  Elec       q    Type
REMARK                         _______ _______ _______ _____ _____    ______ ____
ROOT
ATOM      1  N   UNL     1       1.388   8.900  19.358  0.00  0.00    +0.000 N 
ATOM      2  C   UNL     1       2.155   8.864  18.210  0.00  0.00    +0.000 C 
ATOM      3  O   UNL     1       2.309   9.774  17.408  0.00  0.00    +0.000 OA
ATOM      4  H   UNL     1       1.463   8.077  19.950  0.00  0.00    +0.000 HD
ENDROOT
BRANCH   1   9
ATOM      5  C   UNL     1      -1.552  11.169  19.329  0.00  0.00    +0.000 A 
ATOM      6  C   UNL     1      -1.206  12.034  20.389  0.00  0.00    +0.000 A 
ATOM      7  C   UNL     1      -0.031  11.866  21.116  0.00  0.00    +0.000 A 
ATOM      8  C   UNL     1       0.839  10.827  20.799  0.00  0.00    +0.000 A 
ATOM      9  C   UNL     1       0.541   9.946  19.764  0.00  0.00    +0.000 A 
ATOM     10  C   UNL     1      -0.646  10.125  19.045  0.00  0.00    +0.000 A 
BRANCH   5  11
ATOM     11  C   UNL     1      -2.879  11.380  18.458  0.00  0.00    +0.000 C 
ATOM     12  C   UNL     1      -3.676  10.092  18.100  0.00  0.00    +0.000 C 
ATOM     13  O   UNL     1      -3.502  10.299  16.687  0.00  0.00    +0.000 OA
ATOM     14  C   UNL     1      -2.723  11.491  16.916  0.00  0.00    +0.000 C 
BRANCH  11  15
ATOM     15  C   UNL     1      -3.768  12.457  19.110  0.00  0.00    +0.000 C 
BRANCH  15  21
ATOM     16  C   UNL     1      -6.237  12.759  17.094  0.00  0.00    +0.000 C 
ATOM     17  N   UNL     1      -6.242  12.231  18.432  0.00  0.00    +0.000 N 
ATOM     18  C   UNL     1      -7.359  11.806  19.088  0.00  0.00    +0.000 A 
ATOM     19  N   UNL     1      -7.030  11.361  20.274  0.00  0.00    +0.000 NA
ATOM     20  N   UNL     1      -5.673  11.512  20.411  0.00  0.00    +0.000 NA
ATOM     21  C   UNL     1      -5.196  12.055  19.307  0.00  0.00    +0.000 A 
ENDBRANCH  15  21
ENDBRANCH  11  15
ENDBRANCH   5  11
ENDBRANCH   1   9
BRANCH   2  22
ATOM     22  C   UNL     1       2.829   7.555  17.958  0.00  0.00    +0.000 A 
ATOM     23  C   UNL     1       2.117   6.404  18.196  0.00  0.00    +0.000 A 
ATOM     24  C   UNL     1       2.830   5.240  18.091  0.00  0.00    +0.000 A 
ATOM     25  N   UNL     1       4.134   5.234  17.724  0.00  0.00    +0.000 NA
ATOM     26  C   UNL     1       4.749   6.409  17.467  0.00  0.00    +0.000 A 
ATOM     27  N   UNL     1       4.134   7.599  17.595  0.00  0.00    +0.000 NA
BRANCH  26  28
ATOM     28  C   UNL     1       6.178   6.379  16.977  0.00  0.00    +0.000 C 
ATOM     29  C   UNL     1       7.176   7.425  17.416  0.00  0.00    +0.000 C 
ATOM     30  C   UNL     1       7.313   6.017  17.910  0.00  0.00    +0.000 C 
ENDBRANCH  26  28
BRANCH  24  31
ATOM     31  C   UNL     1       2.210   3.919  18.505  0.00  0.00    +0.000 C 
BRANCH  31  32
ATOM     32  N   UNL     1       1.411   3.954  19.744  0.00  0.00    +0.000 NA
ATOM     33  C   UNL     1       1.118   2.587  20.225  0.00  0.00    +0.000 C 
ATOM     34  C   UNL     1       1.738   2.943  21.581  0.00  0.00    +0.000 C 
ATOM     35  C   UNL     1       2.326   4.174  20.888  0.00  0.00    +0.000 C 
ENDBRANCH  31  32
ENDBRANCH  24  31
ENDBRANCH   2  22
TORSDOF 8
ENDMDL
MODEL 5
REMARK VINA RESULT:      -8.0      3.397      4.730
REMARK  Name = 
REMARK  9 active torsions:
REMARK  status: ('A' for Active; 'I' for Inactive)
REMARK    1  A    between atoms: C_1  and  N_2
REMARK    2  A    between atoms: C_6  and  C_7
REMARK    3  A    between atoms: C_7  and  C_8
REMARK    4  A    between atoms: C_8  and  C_9
REMARK    5  A    between atoms: C_13  and  N_14
REMARK    6  A    between atoms: C_15  and  C_17
REMARK    7  A    between atoms: C_19  and  C_20
REMARK    8  A    between atoms: C_20  and  N_21
REMARK    9  A    between atoms: C_26  and  C_27
REMARK                            x       y       z     vdW  Elec       q    Type
REMARK                         _______ _______ _______ _____ _____    ______ ____
ROOT
ATOM      1  N   UNL     1       1.418   9.034  19.252  0.00  0.00    +0.000 N 
ATOM      2  C   UNL     1       2.183   8.433  18.272  0.00  0.00    +0.000 C 
ATOM      3  O   UNL     1       2.431   8.885  17.163  0.00  0.00    +0.000 OA
ATOM      4  H   UNL     1       1.407   8.548  20.146  0.00  0.00    +0.000 HD
ENDROOT
BRANCH   1   9
ATOM      5  C   UNL     1       0.635  12.654  19.519  0.00  0.00    +0.000 A 
ATOM      6  C   UNL     1      -0.684  12.658  19.020  0.00  0.00    +0.000 A 
ATOM      7  C   UNL     1      -1.305  11.491  18.584  0.00  0.00    +0.000 A 
ATOM      8  C   UNL     1      -0.623  10.278  18.642  0.00  0.00    +0.000 A 
ATOM      9  C   UNL     1       0.681  10.223  19.125  0.00  0.00    +0.000 A 
ATOM     10  C   UNL     1       1.293  11.406  19.554  0.00  0.00    +0.000 A 
BRANCH   5  11
ATOM     11  C   UNL     1       1.342  13.984  20.064  0.00  0.00    +0.000 C 
ATOM     12  C   UNL     1       2.621  13.775  20.925  0.00  0.00    +0.000 C 
ATOM     13  O   UNL     1       2.029  14.405  22.075  0.00  0.00    +0.000 OA
ATOM     14  C   UNL     1       0.787  14.615  21.371  0.00  0.00    +0.000 C 
BRANCH  11  15
ATOM     15  C   UNL     1       1.570  14.969  18.901  0.00  0.00    +0.000 C 
BRANCH  15  21
ATOM     16  C   UNL     1       4.626  14.647  18.001  0.00  0.00    +0.000 C 
ATOM     17  N   UNL     1       4.024  15.731  18.729  0.00  0.00    +0.000 N 
ATOM     18  C   UNL     1       4.707  16.808  19.210  0.00  0.00    +0.000 A 
ATOM     19  N   UNL     1       3.876  17.627  19.803  0.00  0.00    +0.000 NA
ATOM     20  N   UNL     1       2.623  17.070  19.730  0.00  0.00    +0.000 NA
ATOM     21  C   UNL     1       2.713  15.916  19.098  0.00  0.00    +0.000 A 
ENDBRANCH  15  21
ENDBRANCH  11  15
ENDBRANCH   5  11
ENDBRANCH   1   9
BRANCH   2  22
ATOM     22  C   UNL     1       2.721   7.090  18.644  0.00  0.00    +0.000 A 
ATOM     23  C   UNL     1       3.763   6.583  17.904  0.00  0.00    +0.000 A 
ATOM     24  C   UNL     1       4.115   5.292  18.194  0.00  0.00    +0.000 A 
ATOM     25  N   UNL     1       3.507   4.592  19.182  0.00  0.00    +0.000 NA
ATOM     26  C   UNL     1       2.518   5.180  19.891  0.00  0.00    +0.000 A 
ATOM     27  N   UNL     1       2.079   6.427  19.636  0.00  0.00    +0.000 NA
BRANCH  26  28
ATOM     28  C   UNL     1       1.910   4.417  21.044  0.00  0.00    +0.000 C 
ATOM     29  C   UNL     1       1.066   3.186  20.806  0.00  0.00    +0.000 C 
ATOM     30  C   UNL     1       2.423   3.045  21.425  0.00  0.00    +0.000 C 
ENDBRANCH  26  28
BRANCH  24  31
ATOM     31  C   UNL     1       5.122   4.557  17.330  0.00  0.00    +0.000 C 
BRANCH  31  32
ATOM     32  N   UNL     1       5.602   5.297  16.148  0.00  0.00    +0.000 NA
ATOM     33  C   UNL     1       7.061   5.135  15.977  0.00  0.00    +0.000 C 
ATOM     34  C   UNL     1       6.827   4.625  14.550  0.00  0.00    +0.000 C 
ATOM     35  C   UNL     1       5.356   4.470  14.944  0.00  0.00    +0.000 C 
ENDBRANCH  31  32
ENDBRANCH  24  31
ENDBRANCH   2  22
TORSDOF 8
ENDMDL
MODEL 6
REMARK VINA RESULT:      -8.0      2.830      4.978
REMARK  Name = 
REMARK  9 active torsions:
REMARK  status: ('A' for Active; 'I' for Inactive)
REMARK    1  A    between atoms: C_1  and  N_2
REMARK    2  A    between atoms: C_6  and  C_7
REMARK    3  A    between atoms: C_7  and  C_8
REMARK    4  A    between atoms: C_8  and  C_9
REMARK    5  A    between atoms: C_13  and  N_14
REMARK    6  A    between atoms: C_15  and  C_17
REMARK    7  A    between atoms: C_19  and  C_20
REMARK    8  A    between atoms: C_20  and  N_21
REMARK    9  A    between atoms: C_26  and  C_27
REMARK                            x       y       z     vdW  Elec       q    Type
REMARK                         _______ _______ _______ _____ _____    ______ ____
ROOT
ATOM      1  N   UNL     1       1.756   7.783  19.765  0.00  0.00    +0.000 N 
ATOM      2  C   UNL     1       2.364   7.952  18.537  0.00  0.00    +0.000 C 
ATOM      3  O   UNL     1       2.472   9.000  17.915  0.00  0.00    +0.000 OA
ATOM      4  H   UNL     1       1.852   6.854  20.168  0.00  0.00    +0.000 HD
ENDROOT
BRANCH   1   9
ATOM      5  C   UNL     1      -0.493  10.680  20.354  0.00  0.00    +0.000 A 
ATOM      6  C   UNL     1      -0.376  10.802  21.754  0.00  0.00    +0.000 A 
ATOM      7  C   UNL     1       0.417   9.935  22.500  0.00  0.00    +0.000 A 
ATOM      8  C   UNL     1       1.124   8.919  21.863  0.00  0.00    +0.000 A 
ATOM      9  C   UNL     1       1.040   8.757  20.483  0.00  0.00    +0.000 A 
ATOM     10  C   UNL     1       0.235   9.634  19.748  0.00  0.00    +0.000 A 
BRANCH   5  11
ATOM     11  C   UNL     1      -1.367  11.699  19.481  0.00  0.00    +0.000 C 
ATOM     12  C   UNL     1      -0.636  12.382  18.289  0.00  0.00    +0.000 C 
ATOM     13  O   UNL     1      -0.839  13.698  18.834  0.00  0.00    +0.000 OA
ATOM     14  C   UNL     1      -1.504  13.160  19.995  0.00  0.00    +0.000 C 
BRANCH  11  15
ATOM     15  C   UNL     1      -2.685  11.025  19.053  0.00  0.00    +0.000 C 
BRANCH  15  21
ATOM     16  C   UNL     1      -4.986  11.973  17.038  0.00  0.00    +0.000 C 
ATOM     17  N   UNL     1      -3.832  11.165  16.751  0.00  0.00    +0.000 N 
ATOM     18  C   UNL     1      -3.559  10.617  15.533  0.00  0.00    +0.000 A 
ATOM     19  N   UNL     1      -2.428   9.961  15.589  0.00  0.00    +0.000 NA
ATOM     20  N   UNL     1      -1.954  10.061  16.873  0.00  0.00    +0.000 NA
ATOM     21  C   UNL     1      -2.809  10.772  17.583  0.00  0.00    +0.000 A 
ENDBRANCH  15  21
ENDBRANCH  11  15
ENDBRANCH   5  11
ENDBRANCH   1   9
BRANCH   2  22
ATOM     22  C   UNL     1       2.911   6.697  17.940  0.00  0.00    +0.000 A 
ATOM     23  C   UNL     1       2.204   5.532  18.121  0.00  0.00    +0.000 A 
ATOM     24  C   UNL     1       2.825   4.394  17.683  0.00  0.00    +0.000 A 
ATOM     25  N   UNL     1       4.030   4.433  17.064  0.00  0.00    +0.000 NA
ATOM     26  C   UNL     1       4.640   5.626  16.888  0.00  0.00    +0.000 A 
ATOM     27  N   UNL     1       4.120   6.784  17.334  0.00  0.00    +0.000 NA
BRANCH  26  28
ATOM     28  C   UNL     1       5.942   5.660  16.122  0.00  0.00    +0.000 C 
ATOM     29  C   UNL     1       6.780   4.414  15.953  0.00  0.00    +0.000 C 
ATOM     30  C   UNL     1       6.065   4.993  14.769  0.00  0.00    +0.000 C 
ENDBRANCH  26  28
BRANCH  24  31
ATOM     31  C   UNL     1       2.235   3.030  17.987  0.00  0.00    +0.000 C 
BRANCH  31  32
ATOM     32  N   UNL     1       2.620   2.448  19.286  0.00  0.00    +0.000 NA
ATOM     33  C   UNL     1       3.338   3.436  20.119  0.00  0.00    +0.000 C 
ATOM     34  C   UNL     1       2.319   3.213  21.243  0.00  0.00    +0.000 C 
ATOM     35  C   UNL     1       1.452   2.511  20.194  0.00  0.00    +0.000 C 
ENDBRANCH  31  32
ENDBRANCH  24  31
ENDBRANCH   2  22
TORSDOF 8
ENDMDL
MODEL 7
REMARK VINA RESULT:      -8.0      2.994      4.818
REMARK  Name = 
REMARK  9 active torsions:
REMARK  status: ('A' for Active; 'I' for Inactive)
REMARK    1  A    between atoms: C_1  and  N_2
REMARK    2  A    between atoms: C_6  and  C_7
REMARK    3  A    between atoms: C_7  and  C_8
REMARK    4  A    between atoms: C_8  and  C_9
REMARK    5  A    between atoms: C_13  and  N_14
REMARK    6  A    between atoms: C_15  and  C_17
REMARK    7  A    between atoms: C_19  and  C_20
REMARK    8  A    between atoms: C_20  and  N_21
REMARK    9  A    between atoms: C_26  and  C_27
REMARK                            x       y       z     vdW  Elec       q    Type
REMARK                         _______ _______ _______ _____ _____    ______ ____
ROOT
ATOM      1  N   UNL     1       2.090   7.617  19.976  0.00  0.00    +0.000 N 
ATOM      2  C   UNL     1       2.366   7.627  18.624  0.00  0.00    +0.000 C 
ATOM      3  O   UNL     1       2.006   8.470  17.813  0.00  0.00    +0.000 OA
ATOM      4  H   UNL     1       2.559   6.885  20.505  0.00  0.00    +0.000 HD
ENDROOT
BRANCH   1   9
ATOM      5  C   UNL     1      -0.146  10.533  20.515  0.00  0.00    +0.000 A 
ATOM      6  C   UNL     1      -0.386  10.407  21.899  0.00  0.00    +0.000 A 
ATOM      7  C   UNL     1       0.164   9.369  22.645  0.00  0.00    +0.000 A 
ATOM      8  C   UNL     1       0.979   8.425  22.027  0.00  0.00    +0.000 A 
ATOM      9  C   UNL     1       1.245   8.505  20.663  0.00  0.00    +0.000 A 
ATOM     10  C   UNL     1       0.681   9.553  19.926  0.00  0.00    +0.000 A 
BRANCH   5  11
ATOM     11  C   UNL     1      -0.737  11.749  19.657  0.00  0.00    +0.000 C 
ATOM     12  C   UNL     1      -1.913  12.536  20.305  0.00  0.00    +0.000 C 
ATOM     13  O   UNL     1      -2.813  12.201  19.233  0.00  0.00    +0.000 OA
ATOM     14  C   UNL     1      -1.799  11.419  18.570  0.00  0.00    +0.000 C 
BRANCH  11  15
ATOM     15  C   UNL     1       0.408  12.673  19.201  0.00  0.00    +0.000 C 
BRANCH  15  21
ATOM     16  C   UNL     1      -0.041  15.843  19.245  0.00  0.00    +0.000 C 
ATOM     17  N   UNL     1       0.673  15.034  20.196  0.00  0.00    +0.000 N 
ATOM     18  C   UNL     1       1.336  15.525  21.281  0.00  0.00    +0.000 A 
ATOM     19  N   UNL     1       1.860  14.537  21.961  0.00  0.00    +0.000 NA
ATOM     20  N   UNL     1       1.553  13.373  21.302  0.00  0.00    +0.000 NA
ATOM     21  C   UNL     1       0.852  13.671  20.225  0.00  0.00    +0.000 A 
ENDBRANCH  15  21
ENDBRANCH  11  15
ENDBRANCH   5  11
ENDBRANCH   1   9
BRANCH   2  22
ATOM     22  C   UNL     1       3.171   6.462  18.148  0.00  0.00    +0.000 A 
ATOM     23  C   UNL     1       2.530   5.256  17.987  0.00  0.00    +0.000 A 
ATOM     24  C   UNL     1       3.344   4.194  17.694  0.00  0.00    +0.000 A 
ATOM     25  N   UNL     1       4.679   4.345  17.523  0.00  0.00    +0.000 NA
ATOM     26  C   UNL     1       5.224   5.574  17.658  0.00  0.00    +0.000 A 
ATOM     27  N   UNL     1       4.503   6.660  17.994  0.00  0.00    +0.000 NA
BRANCH  26  28
ATOM     28  C   UNL     1       6.700   5.740  17.381  0.00  0.00    +0.000 C 
ATOM     29  C   UNL     1       7.383   7.076  17.564  0.00  0.00    +0.000 C 
ATOM     30  C   UNL     1       7.684   5.953  18.511  0.00  0.00    +0.000 C 
ENDBRANCH  26  28
BRANCH  24  31
ATOM     31  C   UNL     1       2.788   2.783  17.672  0.00  0.00    +0.000 C 
BRANCH  31  32
ATOM     32  N   UNL     1       2.812   2.072  18.963  0.00  0.00    +0.000 NA
ATOM     33  C   UNL     1       3.523   2.861  19.991  0.00  0.00    +0.000 C 
ATOM     34  C   UNL     1       2.288   2.777  20.895  0.00  0.00    +0.000 C 
ATOM     35  C   UNL     1       1.523   2.309  19.654  0.00  0.00    +0.000 C 
ENDBRANCH  31  32
ENDBRANCH  24  31
ENDBRANCH   2  22
TORSDOF 8
ENDMDL
MODEL 8
REMARK VINA RESULT:      -7.9      2.514      4.450
REMARK  Name = 
REMARK  9 active torsions:
REMARK  status: ('A' for Active; 'I' for Inactive)
REMARK    1  A    between atoms: C_1  and  N_2
REMARK    2  A    between atoms: C_6  and  C_7
REMARK    3  A    between atoms: C_7  and  C_8
REMARK    4  A    between atoms: C_8  and  C_9
REMARK    5  A    between atoms: C_13  and  N_14
REMARK    6  A    between atoms: C_15  and  C_17
REMARK    7  A    between atoms: C_19  and  C_20
REMARK    8  A    between atoms: C_20  and  N_21
REMARK    9  A    between atoms: C_26  and  C_27
REMARK                            x       y       z     vdW  Elec       q    Type
REMARK                         _______ _______ _______ _____ _____    ______ ____
ROOT
ATOM      1  N   UNL     1       2.003   7.653  19.899  0.00  0.00    +0.000 N 
ATOM      2  C   UNL     1       2.234   7.665  18.538  0.00  0.00    +0.000 C 
ATOM      3  O   UNL     1       1.848   8.509  17.741  0.00  0.00    +0.000 OA
ATOM      4  H   UNL     1       2.489   6.921  20.411  0.00  0.00    +0.000 HD
ENDROOT
BRANCH   1   9
ATOM      5  C   UNL     1       0.487  10.883  20.932  0.00  0.00    +0.000 A 
ATOM      6  C   UNL     1      -0.326  10.443  21.997  0.00  0.00    +0.000 A 
ATOM      7  C   UNL     1      -0.391   9.102  22.363  0.00  0.00    +0.000 A 
ATOM      8  C   UNL     1       0.364   8.157  21.675  0.00  0.00    +0.000 A 
ATOM      9  C   UNL     1       1.180   8.541  20.615  0.00  0.00    +0.000 A 
ATOM     10  C   UNL     1       1.231   9.893  20.256  0.00  0.00    +0.000 A 
BRANCH   5  11
ATOM     11  C   UNL     1       0.602  12.429  20.531  0.00  0.00    +0.000 C 
ATOM     12  C   UNL     1       2.029  13.048  20.595  0.00  0.00    +0.000 C 
ATOM     13  O   UNL     1       1.637  14.011  21.590  0.00  0.00    +0.000 OA
ATOM     14  C   UNL     1       0.294  13.486  21.628  0.00  0.00    +0.000 C 
BRANCH  11  15
ATOM     15  C   UNL     1      -0.083  12.670  19.172  0.00  0.00    +0.000 C 
BRANCH  15  21
ATOM     16  C   UNL     1      -1.381  10.231  17.553  0.00  0.00    +0.000 C 
ATOM     17  N   UNL     1      -2.047  11.207  18.374  0.00  0.00    +0.000 N 
ATOM     18  C   UNL     1      -3.396  11.271  18.553  0.00  0.00    +0.000 A 
ATOM     19  N   UNL     1      -3.686  12.250  19.371  0.00  0.00    +0.000 NA
ATOM     20  N   UNL     1      -2.506  12.857  19.724  0.00  0.00    +0.000 NA
ATOM     21  C   UNL     1      -1.515  12.241  19.109  0.00  0.00    +0.000 A 
ENDBRANCH  15  21
ENDBRANCH  11  15
ENDBRANCH   5  11
ENDBRANCH   1   9
BRANCH   2  22
ATOM     22  C   UNL     1       3.023   6.501  18.035  0.00  0.00    +0.000 A 
ATOM     23  C   UNL     1       2.387   5.288  17.924  0.00  0.00    +0.000 A 
ATOM     24  C   UNL     1       3.193   4.230  17.601  0.00  0.00    +0.000 A 
ATOM     25  N   UNL     1       4.516   4.390  17.356  0.00  0.00    +0.000 NA
ATOM     26  C   UNL     1       5.055   5.626  17.446  0.00  0.00    +0.000 A 
ATOM     27  N   UNL     1       4.343   6.709  17.806  0.00  0.00    +0.000 NA
BRANCH  26  28
ATOM     28  C   UNL     1       6.513   5.801  17.087  0.00  0.00    +0.000 C 
ATOM     29  C   UNL     1       7.431   6.642  17.944  0.00  0.00    +0.000 C 
ATOM     30  C   UNL     1       7.601   5.152  17.916  0.00  0.00    +0.000 C 
ENDBRANCH  26  28
BRANCH  24  31
ATOM     31  C   UNL     1       2.651   2.814  17.627  0.00  0.00    +0.000 C 
BRANCH  31  32
ATOM     32  N   UNL     1       2.628   2.167  18.952  0.00  0.00    +0.000 NA
ATOM     33  C   UNL     1       3.036   3.113  20.012  0.00  0.00    +0.000 C 
ATOM     34  C   UNL     1       1.726   2.830  20.755  0.00  0.00    +0.000 C 
ATOM     35  C   UNL     1       1.236   2.180  19.458  0.00  0.00    +0.000 C 
ENDBRANCH  31  32
ENDBRANCH  24  31
ENDBRANCH   2  22
TORSDOF 8
ENDMDL
MODEL 9
REMARK VINA RESULT:      -7.9      3.183      4.250
REMARK  Name = 
REMARK  9 active torsions:
REMARK  status: ('A' for Active; 'I' for Inactive)
REMARK    1  A    between atoms: C_1  and  N_2
REMARK    2  A    between atoms: C_6  and  C_7
REMARK    3  A    between atoms: C_7  and  C_8
REMARK    4  A    between atoms: C_8  and  C_9
REMARK    5  A    between atoms: C_13  and  N_14
REMARK    6  A    between atoms: C_15  and  C_17
REMARK    7  A    between atoms: C_19  and  C_20
REMARK    8  A    between atoms: C_20  and  N_21
REMARK    9  A    between atoms: C_26  and  C_27
REMARK                            x       y       z     vdW  Elec       q    Type
REMARK                         _______ _______ _______ _____ _____    ______ ____
ROOT
ATOM      1  N   UNL     1       1.696   8.084  19.844  0.00  0.00    +0.000 N 
ATOM      2  C   UNL     1       2.298   8.187  18.606  0.00  0.00    +0.000 C 
ATOM      3  O   UNL     1       2.325   9.179  17.890  0.00  0.00    +0.000 OA
ATOM      4  H   UNL     1       1.865   7.207  20.332  0.00  0.00    +0.000 HD
ENDROOT
BRANCH   1   9
ATOM      5  C   UNL     1      -0.617  10.974  20.149  0.00  0.00    +0.000 A 
ATOM      6  C   UNL     1      -0.667  11.101  21.553  0.00  0.00    +0.000 A 
ATOM      7  C   UNL     1       0.034  10.240  22.392  0.00  0.00    +0.000 A 
ATOM      8  C   UNL     1       0.816   9.225  21.848  0.00  0.00    +0.000 A 
ATOM      9  C   UNL     1       0.897   9.057  20.469  0.00  0.00    +0.000 A 
ATOM     10  C   UNL     1       0.182   9.929  19.639  0.00  0.00    +0.000 A 
BRANCH   5  11
ATOM     11  C   UNL     1      -1.384  11.987  19.175  0.00  0.00    +0.000 C 
ATOM     12  C   UNL     1      -2.936  12.011  19.296  0.00  0.00    +0.000 C 
ATOM     13  O   UNL     1      -3.113  11.593  17.931  0.00  0.00    +0.000 OA
ATOM     14  C   UNL     1      -1.688  11.509  17.727  0.00  0.00    +0.000 C 
BRANCH  11  15
ATOM     15  C   UNL     1      -0.765  13.393  19.289  0.00  0.00    +0.000 C 
BRANCH  15  21
ATOM     16  C   UNL     1       1.286  14.300  21.575  0.00  0.00    +0.000 C 
ATOM     17  N   UNL     1       1.584  13.852  20.241  0.00  0.00    +0.000 N 
ATOM     18  C   UNL     1       2.839  13.792  19.711  0.00  0.00    +0.000 A 
ATOM     19  N   UNL     1       2.779  13.321  18.491  0.00  0.00    +0.000 NA
ATOM     20  N   UNL     1       1.458  13.086  18.203  0.00  0.00    +0.000 NA
ATOM     21  C   UNL     1       0.732  13.423  19.251  0.00  0.00    +0.000 A 
ENDBRANCH  15  21
ENDBRANCH  11  15
ENDBRANCH   5  11
ENDBRANCH   1   9
BRANCH   2  22
ATOM     22  C   UNL     1       2.952   6.932  18.129  0.00  0.00    +0.000 A 
ATOM     23  C   UNL     1       4.159   7.037  17.481  0.00  0.00    +0.000 A 
ATOM     24  C   UNL     1       4.637   5.875  16.938  0.00  0.00    +0.000 A 
ATOM     25  N   UNL     1       3.981   4.698  17.083  0.00  0.00    +0.000 NA
ATOM     26  C   UNL     1       2.819   4.674  17.771  0.00  0.00    +0.000 A 
ATOM     27  N   UNL     1       2.256   5.780  18.293  0.00  0.00    +0.000 NA
BRANCH  26  28
ATOM     28  C   UNL     1       2.145   3.341  17.996  0.00  0.00    +0.000 C 
ATOM     29  C   UNL     1       2.899   2.044  17.813  0.00  0.00    +0.000 C 
ATOM     30  C   UNL     1       2.500   2.481  19.190  0.00  0.00    +0.000 C 
ENDBRANCH  26  28
BRANCH  24  31
ATOM     31  C   UNL     1       5.862   5.890  16.045  0.00  0.00    +0.000 C 
BRANCH  31  32
ATOM     32  N   UNL     1       7.152   5.695  16.734  0.00  0.00    +0.000 NA
ATOM     33  C   UNL     1       7.568   6.924  17.441  0.00  0.00    +0.000 C 
ATOM     34  C   UNL     1       7.679   6.125  18.744  0.00  0.00    +0.000 C 
ATOM     35  C   UNL     1       6.896   5.021  18.028  0.00  0.00    +0.000 C 
ENDBRANCH  31  32
ENDBRANCH  24  31
ENDBRANCH   2  22
TORSDOF 8
ENDMDL
