MODEL 1
REMARK VINA RESULT:      -9.8      0.000      0.000
REMARK  Name = 
REMARK  11 active torsions:
REMARK  status: ('A' for Active; 'I' for Inactive)
REMARK    1  A    between atoms: C_1  and  O_2
REMARK    2  A    between atoms: O_2  and  C_3
REMARK    3  A    between atoms: C_3  and  C_4
REMARK    4  A    between atoms: N_6  and  C_7
REMARK    5  A    between atoms: C_7  and  C_8
REMARK    6  A    between atoms: C_12  and  C_13
REMARK    7  A    between atoms: N_19  and  C_20
REMARK    8  A    between atoms: C_24  and  C_25
REMARK    9  A    between atoms: C_25  and  C_26
REMARK   10  A    between atoms: C_26  and  C_27
REMARK   11  A    between atoms: N_31  and  C_32
REMARK                            x       y       z     vdW  Elec       q    Type
REMARK                         _______ _______ _______ _____ _____    ______ ____
ROOT
ATOM      1  C   UNL     1       3.510   5.057  17.726  0.00  0.00    +0.000 A 
ATOM      2  C   UNL     1       3.049   6.377  17.771  0.00  0.00    +0.000 A 
ATOM      3  C   UNL     1       2.357   6.785  18.888  0.00  0.00    +0.000 A 
ATOM      4  C   UNL     1       2.048   5.934  19.938  0.00  0.00    +0.000 A 
ATOM      5  C   UNL     1       2.422   4.600  19.897  0.00  0.00    +0.000 A 
ATOM      6  C   UNL     1       3.192   4.178  18.786  0.00  0.00    +0.000 A 
ATOM      7  C   UNL     1       1.329   6.711  20.998  0.00  0.00    +0.000 C 
ATOM      8  N   UNL     1       1.270   8.060  20.446  0.00  0.00    +0.000 N 
ATOM      9  C   UNL     1       1.867   8.131  19.189  0.00  0.00    +0.000 C 
ATOM     10  O   UNL     1       2.029   9.064  18.423  0.00  0.00    +0.000 OA
ENDROOT
BRANCH   8  11
ATOM     11  C   UNL     1       0.685   9.141  21.149  0.00  0.00    +0.000 A 
ATOM     12  C   UNL     1      -0.157   8.937  22.243  0.00  0.00    +0.000 A 
ATOM     13  C   UNL     1      -0.707  10.019  22.927  0.00  0.00    +0.000 A 
ATOM     14  C   UNL     1      -0.462  11.317  22.491  0.00  0.00    +0.000 A 
ATOM     15  C   UNL     1       0.332  11.577  21.359  0.00  0.00    +0.000 A 
ATOM     16  C   UNL     1       0.930  10.461  20.741  0.00  0.00    +0.000 A 
BRANCH  15  17
ATOM     17  C   UNL     1       0.504  13.048  20.757  0.00  0.00    +0.000 C 
ATOM     18  C   UNL     1       1.444  14.055  21.488  0.00  0.00    +0.000 C 
ATOM     19  O   UNL     1       2.070  14.418  20.224  0.00  0.00    +0.000 OA
ATOM     20  C   UNL     1       1.592  13.178  19.650  0.00  0.00    +0.000 C 
BRANCH  17  21
ATOM     21  C   UNL     1      -0.848  13.662  20.347  0.00  0.00    +0.000 C 
BRANCH  21  22
ATOM     22  C   UNL     1      -1.604  12.818  19.373  0.00  0.00    +0.000 A 
ATOM     23  N   UNL     1      -1.141  12.345  18.233  0.00  0.00    +0.000 NA
ATOM     24  N   UNL     1      -2.129  11.597  17.637  0.00  0.00    +0.000 NA
ATOM     25  C   UNL     1      -3.177  11.627  18.425  0.00  0.00    +0.000 A 
ATOM     26  N   UNL     1      -2.901  12.390  19.518  0.00  0.00    +0.000 N 
ATOM     27  C   UNL     1      -3.816  12.668  20.590  0.00  0.00    +0.000 C 
ENDBRANCH  21  22
ENDBRANCH  17  21
ENDBRANCH  15  17
ENDBRANCH   8  11
BRANCH   5  28
ATOM     28  C   UNL     1       2.025   3.607  20.956  0.00  0.00    +0.000 C 
ATOM     29  F   UNL     1       2.538   2.364  20.754  0.00  0.00    +0.000 F 
ATOM     30  F   UNL     1       2.441   3.986  22.194  0.00  0.00    +0.000 F 
ATOM     31  F   UNL     1       0.674   3.450  21.040  0.00  0.00    +0.000 F 
ENDBRANCH   5  28
BRANCH   1  32
ATOM     32  C   UNL     1       4.327   4.585  16.540  0.00  0.00    +0.000 C 
BRANCH  32  35
ATOM     33  C   UNL     1       6.907   6.231  16.941  0.00  0.00    +0.000 C 
ATOM     34  C   UNL     1       6.505   4.944  17.690  0.00  0.00    +0.000 C 
ATOM     35  N   UNL     1       5.657   4.037  16.875  0.00  0.00    +0.000 NA
ATOM     36  C   UNL     1       6.412   3.762  15.624  0.00  0.00    +0.000 C 
ATOM     37  C   UNL     1       6.916   5.031  14.903  0.00  0.00    +0.000 C 
ATOM     38  O   UNL     1       7.685   5.867  15.779  0.00  0.00    +0.000 OA
BRANCH  33  39
ATOM     39  C   UNL     1       7.718   7.168  17.845  0.00  0.00    +0.000 C 
BRANCH  39  41
ATOM     40  C   UNL     1       8.395   9.418  18.086  0.00  0.00    +0.000 C 
ATOM     41  O   UNL     1       7.607   8.505  17.341  0.00  0.00    +0.000 OA
ENDBRANCH  39  41
ENDBRANCH  33  39
ENDBRANCH  32  35
ENDBRANCH   1  32
TORSDOF 9
ENDMDL
MODEL 2
REMARK VINA RESULT:      -9.7      1.808      2.697
REMARK  Name = 
REMARK  11 active torsions:
REMARK  status: ('A' for Active; 'I' for Inactive)
REMARK    1  A    between atoms: C_1  and  O_2
REMARK    2  A    between atoms: O_2  and  C_3
REMARK    3  A    between atoms: C_3  and  C_4
REMARK    4  A    between atoms: N_6  and  C_7
REMARK    5  A    between atoms: C_7  and  C_8
REMARK    6  A    between atoms: C_12  and  C_13
REMARK    7  A    between atoms: N_19  and  C_20
REMARK    8  A    between atoms: C_24  and  C_25
REMARK    9  A    between atoms: C_25  and  C_26
REMARK   10  A    between atoms: C_26  and  C_27
REMARK   11  A    between atoms: N_31  and  C_32
REMARK                            x       y       z     vdW  Elec       q    Type
REMARK                         _______ _______ _______ _____ _____    ______ ____
ROOT
ATOM      1  C   UNL     1       3.598   4.833  17.642  0.00  0.00    +0.000 A 
ATOM      2  C   UNL     1       3.169   6.164  17.668  0.00  0.00    +0.000 A 
ATOM      3  C   UNL     1       2.475   6.601  18.772  0.00  0.00    +0.000 A 
ATOM      4  C   UNL     1       2.131   5.769  19.827  0.00  0.00    +0.000 A 
ATOM      5  C   UNL     1       2.473   4.426  19.804  0.00  0.00    +0.000 A 
ATOM      6  C   UNL     1       3.245   3.973  18.707  0.00  0.00    +0.000 A 
ATOM      7  C   UNL     1       1.419   6.575  20.870  0.00  0.00    +0.000 C 
ATOM      8  N   UNL     1       1.401   7.919  20.303  0.00  0.00    +0.000 N 
ATOM      9  C   UNL     1       2.014   7.962  19.053  0.00  0.00    +0.000 C 
ATOM     10  O   UNL     1       2.209   8.882  18.280  0.00  0.00    +0.000 OA
ENDROOT
BRANCH   8  11
ATOM     11  C   UNL     1       0.835   9.021  20.988  0.00  0.00    +0.000 A 
ATOM     12  C   UNL     1       0.217   8.877  22.231  0.00  0.00    +0.000 A 
ATOM     13  C   UNL     1      -0.319   9.981  22.891  0.00  0.00    +0.000 A 
ATOM     14  C   UNL     1      -0.288  11.235  22.289  0.00  0.00    +0.000 A 
ATOM     15  C   UNL     1       0.271  11.427  21.012  0.00  0.00    +0.000 A 
ATOM     16  C   UNL     1       0.868  10.301  20.412  0.00  0.00    +0.000 A 
BRANCH  15  17
ATOM     17  C   UNL     1       0.185  12.826  20.245  0.00  0.00    +0.000 C 
ATOM     18  C   UNL     1       0.786  12.937  18.811  0.00  0.00    +0.000 C 
ATOM     19  O   UNL     1      -0.418  13.604  18.337  0.00  0.00    +0.000 OA
ATOM     20  C   UNL     1      -1.143  13.065  19.468  0.00  0.00    +0.000 C 
BRANCH  17  21
ATOM     21  C   UNL     1       0.565  14.006  21.160  0.00  0.00    +0.000 C 
BRANCH  21  22
ATOM     22  C   UNL     1       2.018  14.350  21.101  0.00  0.00    +0.000 A 
ATOM     23  N   UNL     1       3.000  13.667  21.655  0.00  0.00    +0.000 NA
ATOM     24  N   UNL     1       4.189  14.290  21.356  0.00  0.00    +0.000 NA
ATOM     25  C   UNL     1       3.910  15.341  20.624  0.00  0.00    +0.000 A 
ATOM     26  N   UNL     1       2.563  15.429  20.449  0.00  0.00    +0.000 N 
ATOM     27  C   UNL     1       1.885  16.464  19.718  0.00  0.00    +0.000 C 
ENDBRANCH  21  22
ENDBRANCH  17  21
ENDBRANCH  15  17
ENDBRANCH   8  11
BRANCH   5  28
ATOM     28  C   UNL     1       2.039   3.454  20.869  0.00  0.00    +0.000 C 
ATOM     29  F   UNL     1       2.509   2.193  20.677  0.00  0.00    +0.000 F 
ATOM     30  F   UNL     1       2.463   3.827  22.105  0.00  0.00    +0.000 F 
ATOM     31  F   UNL     1       0.683   3.343  20.948  0.00  0.00    +0.000 F 
ENDBRANCH   5  28
BRANCH   1  32
ATOM     32  C   UNL     1       4.417   4.328  16.471  0.00  0.00    +0.000 C 
BRANCH  32  35
ATOM     33  C   UNL     1       6.836   6.180  16.967  0.00  0.00    +0.000 C 
ATOM     34  C   UNL     1       6.539   4.838  17.666  0.00  0.00    +0.000 C 
ATOM     35  N   UNL     1       5.786   3.888  16.808  0.00  0.00    +0.000 NA
ATOM     36  C   UNL     1       6.578   3.724  15.561  0.00  0.00    +0.000 C 
ATOM     37  C   UNL     1       6.976   5.056  14.890  0.00  0.00    +0.000 C 
ATOM     38  O   UNL     1       7.657   5.926  15.806  0.00  0.00    +0.000 OA
BRANCH  33  39
ATOM     39  C   UNL     1       7.549   7.154  17.914  0.00  0.00    +0.000 C 
BRANCH  39  41
ATOM     40  C   UNL     1       8.380   9.360  18.056  0.00  0.00    +0.000 C 
ATOM     41  O   UNL     1       7.781   8.385  17.219  0.00  0.00    +0.000 OA
ENDBRANCH  39  41
ENDBRANCH  33  39
ENDBRANCH  32  35
ENDBRANCH   1  32
TORSDOF 9
ENDMDL
MODEL 3
REMARK VINA RESULT:      -9.6      1.420      2.442
REMARK  Name = 
REMARK  11 active torsions:
REMARK  status: ('A' for Active; 'I' for Inactive)
REMARK    1  A    between atoms: C_1  and  O_2
REMARK    2  A    between atoms: O_2  and  C_3
REMARK    3  A    between atoms: C_3  and  C_4
REMARK    4  A    between atoms: N_6  and  C_7
REMARK    5  A    between atoms: C_7  and  C_8
REMARK    6  A    between atoms: C_12  and  C_13
REMARK    7  A    between atoms: N_19  and  C_20
REMARK    8  A    between atoms: C_24  and  C_25
REMARK    9  A    between atoms: C_25  and  C_26
REMARK   10  A    between atoms: C_26  and  C_27
REMARK   11  A    between atoms: N_31  and  C_32
REMARK                            x       y       z     vdW  Elec       q    Type
REMARK                         _______ _______ _______ _____ _____    ______ ____
ROOT
ATOM      1  C   UNL     1       3.598   4.881  17.683  0.00  0.00    +0.000 A 
ATOM      2  C   UNL     1       3.121   6.196  17.682  0.00  0.00    +0.000 A 
ATOM      3  C   UNL     1       2.414   6.630  18.779  0.00  0.00    +0.000 A 
ATOM      4  C   UNL     1       2.103   5.807  19.852  0.00  0.00    +0.000 A 
ATOM      5  C   UNL     1       2.494   4.477  19.855  0.00  0.00    +0.000 A 
ATOM      6  C   UNL     1       3.280   4.031  18.765  0.00  0.00    +0.000 A 
ATOM      7  C   UNL     1       1.365   6.607  20.881  0.00  0.00    +0.000 C 
ATOM      8  N   UNL     1       1.295   7.938  20.287  0.00  0.00    +0.000 N 
ATOM      9  C   UNL     1       1.904   7.978  19.035  0.00  0.00    +0.000 C 
ATOM     10  O   UNL     1       2.063   8.889  18.243  0.00  0.00    +0.000 OA
ENDROOT
BRANCH   8  11
ATOM     11  C   UNL     1       0.691   9.032  20.952  0.00  0.00    +0.000 A 
ATOM     12  C   UNL     1       0.681   9.134  22.343  0.00  0.00    +0.000 A 
ATOM     13  C   UNL     1       0.093  10.230  22.972  0.00  0.00    +0.000 A 
ATOM     14  C   UNL     1      -0.539  11.211  22.215  0.00  0.00    +0.000 A 
ATOM     15  C   UNL     1      -0.610  11.128  20.812  0.00  0.00    +0.000 A 
ATOM     16  C   UNL     1       0.062  10.045  20.212  0.00  0.00    +0.000 A 
BRANCH  15  17
ATOM     17  C   UNL     1      -1.456  12.166  19.938  0.00  0.00    +0.000 C 
ATOM     18  C   UNL     1      -2.018  11.705  18.560  0.00  0.00    +0.000 C 
ATOM     19  O   UNL     1      -3.323  12.265  18.883  0.00  0.00    +0.000 OA
ATOM     20  C   UNL     1      -2.972  12.230  20.287  0.00  0.00    +0.000 C 
BRANCH  17  21
ATOM     21  C   UNL     1      -0.790  13.554  19.894  0.00  0.00    +0.000 C 
BRANCH  21  22
ATOM     22  C   UNL     1       0.650  13.503  19.501  0.00  0.00    +0.000 A 
ATOM     23  N   UNL     1       1.128  13.039  18.364  0.00  0.00    +0.000 NA
ATOM     24  N   UNL     1       2.495  13.186  18.372  0.00  0.00    +0.000 NA
ATOM     25  C   UNL     1       2.826  13.739  19.514  0.00  0.00    +0.000 A 
ATOM     26  N   UNL     1       1.707  13.944  20.261  0.00  0.00    +0.000 N 
ATOM     27  C   UNL     1       1.679  14.511  21.580  0.00  0.00    +0.000 C 
ENDBRANCH  21  22
ENDBRANCH  17  21
ENDBRANCH  15  17
ENDBRANCH   8  11
BRANCH   5  28
ATOM     28  C   UNL     1       2.098   3.512  20.941  0.00  0.00    +0.000 C 
ATOM     29  F   UNL     1       2.490   3.902  22.182  0.00  0.00    +0.000 F 
ATOM     30  F   UNL     1       0.751   3.342  21.009  0.00  0.00    +0.000 F 
ATOM     31  F   UNL     1       2.629   2.271  20.749  0.00  0.00    +0.000 F 
ENDBRANCH   5  28
BRANCH   1  32
ATOM     32  C   UNL     1       4.432   4.384  16.519  0.00  0.00    +0.000 C 
BRANCH  32  35
ATOM     33  C   UNL     1       6.878   6.204  16.999  0.00  0.00    +0.000 C 
ATOM     34  C   UNL     1       6.555   4.880  17.720  0.00  0.00    +0.000 C 
ATOM     35  N   UNL     1       5.792   3.927  16.874  0.00  0.00    +0.000 NA
ATOM     36  C   UNL     1       6.590   3.728  15.636  0.00  0.00    +0.000 C 
ATOM     37  C   UNL     1       7.015   5.041  14.944  0.00  0.00    +0.000 C 
ATOM     38  O   UNL     1       7.704   5.917  15.849  0.00  0.00    +0.000 OA
BRANCH  33  39
ATOM     39  C   UNL     1       7.601   7.183  17.933  0.00  0.00    +0.000 C 
BRANCH  39  41
ATOM     40  C   UNL     1       8.354   9.416  18.087  0.00  0.00    +0.000 C 
ATOM     41  O   UNL     1       7.777   8.429  17.249  0.00  0.00    +0.000 OA
ENDBRANCH  39  41
ENDBRANCH  33  39
ENDBRANCH  32  35
ENDBRANCH   1  32
TORSDOF 9
ENDMDL
MODEL 4
REMARK VINA RESULT:      -9.5      1.758      2.358
REMARK  Name = 
REMARK  11 active torsions:
REMARK  status: ('A' for Active; 'I' for Inactive)
REMARK    1  A    between atoms: C_1  and  O_2
REMARK    2  A    between atoms: O_2  and  C_3
REMARK    3  A    between atoms: C_3  and  C_4
REMARK    4  A    between atoms: N_6  and  C_7
REMARK    5  A    between atoms: C_7  and  C_8
REMARK    6  A    between atoms: C_12  and  C_13
REMARK    7  A    between atoms: N_19  and  C_20
REMARK    8  A    between atoms: C_24  and  C_25
REMARK    9  A    between atoms: C_25  and  C_26
REMARK   10  A    between atoms: C_26  and  C_27
REMARK   11  A    between atoms: N_31  and  C_32
REMARK                            x       y       z     vdW  Elec       q    Type
REMARK                         _______ _______ _______ _____ _____    ______ ____
ROOT
ATOM      1  C   UNL     1       3.541   5.007  17.726  0.00  0.00    +0.000 A 
ATOM      2  C   UNL     1       3.064   6.321  17.767  0.00  0.00    +0.000 A 
ATOM      3  C   UNL     1       2.376   6.727  18.886  0.00  0.00    +0.000 A 
ATOM      4  C   UNL     1       2.083   5.878  19.943  0.00  0.00    +0.000 A 
ATOM      5  C   UNL     1       2.472   4.548  19.906  0.00  0.00    +0.000 A 
ATOM      6  C   UNL     1       3.239   4.129  18.792  0.00  0.00    +0.000 A 
ATOM      7  C   UNL     1       1.362   6.653  21.004  0.00  0.00    +0.000 C 
ATOM      8  N   UNL     1       1.284   7.998  20.445  0.00  0.00    +0.000 N 
ATOM      9  C   UNL     1       1.872   8.069  19.184  0.00  0.00    +0.000 C 
ATOM     10  O   UNL     1       2.019   8.999  18.413  0.00  0.00    +0.000 OA
ENDROOT
BRANCH   8  11
ATOM     11  C   UNL     1       0.692   9.075  21.147  0.00  0.00    +0.000 A 
ATOM     12  C   UNL     1      -0.071   8.873  22.298  0.00  0.00    +0.000 A 
ATOM     13  C   UNL     1      -0.631   9.952  22.979  0.00  0.00    +0.000 A 
ATOM     14  C   UNL     1      -0.476  11.244  22.484  0.00  0.00    +0.000 A 
ATOM     15  C   UNL     1       0.234  11.499  21.296  0.00  0.00    +0.000 A 
ATOM     16  C   UNL     1       0.847  10.390  20.680  0.00  0.00    +0.000 A 
BRANCH  15  17
ATOM     17  C   UNL     1       0.298  12.953  20.636  0.00  0.00    +0.000 C 
ATOM     18  C   UNL     1       1.664  13.702  20.595  0.00  0.00    +0.000 C 
ATOM     19  O   UNL     1       1.460  14.038  19.194  0.00  0.00    +0.000 OA
ATOM     20  C   UNL     1       0.498  12.961  19.091  0.00  0.00    +0.000 C 
BRANCH  17  21
ATOM     21  C   UNL     1      -0.874  13.842  21.094  0.00  0.00    +0.000 C 
BRANCH  21  22
ATOM     22  C   UNL     1      -0.457  14.923  22.037  0.00  0.00    +0.000 A 
ATOM     23  N   UNL     1      -0.226  14.780  23.327  0.00  0.00    +0.000 NA
ATOM     24  N   UNL     1       0.158  15.997  23.839  0.00  0.00    +0.000 NA
ATOM     25  C   UNL     1       0.155  16.860  22.852  0.00  0.00    +0.000 A 
ATOM     26  N   UNL     1      -0.237  16.238  21.706  0.00  0.00    +0.000 N 
ATOM     27  C   UNL     1      -0.380  16.870  20.424  0.00  0.00    +0.000 C 
ENDBRANCH  21  22
ENDBRANCH  17  21
ENDBRANCH  15  17
ENDBRANCH   8  11
BRANCH   5  28
ATOM     28  C   UNL     1       2.094   3.556  20.973  0.00  0.00    +0.000 C 
ATOM     29  F   UNL     1       2.637   2.324  20.785  0.00  0.00    +0.000 F 
ATOM     30  F   UNL     1       2.493   3.957  22.209  0.00  0.00    +0.000 F 
ATOM     31  F   UNL     1       0.746   3.367  21.051  0.00  0.00    +0.000 F 
ENDBRANCH   5  28
BRANCH   1  32
ATOM     32  C   UNL     1       4.355   4.538  16.537  0.00  0.00    +0.000 C 
BRANCH  32  35
ATOM     33  C   UNL     1       6.886   6.242  17.003  0.00  0.00    +0.000 C 
ATOM     34  C   UNL     1       6.515   4.923  17.711  0.00  0.00    +0.000 C 
ATOM     35  N   UNL     1       5.697   4.017  16.864  0.00  0.00    +0.000 NA
ATOM     36  C   UNL     1       6.468   3.800  15.611  0.00  0.00    +0.000 C 
ATOM     37  C   UNL     1       6.940   5.104  14.931  0.00  0.00    +0.000 C 
ATOM     38  O   UNL     1       7.680   5.935  15.837  0.00  0.00    +0.000 OA
BRANCH  33  39
ATOM     39  C   UNL     1       7.665   7.174  17.940  0.00  0.00    +0.000 C 
BRANCH  39  41
ATOM     40  C   UNL     1       8.369   9.423  18.107  0.00  0.00    +0.000 C 
ATOM     41  O   UNL     1       7.988   8.376  17.230  0.00  0.00    +0.000 OA
ENDBRANCH  39  41
ENDBRANCH  33  39
ENDBRANCH  32  35
ENDBRANCH   1  32
TORSDOF 9
ENDMDL
MODEL 5
REMARK VINA RESULT:      -9.4      1.593      2.368
REMARK  Name = 
REMARK  11 active torsions:
REMARK  status: ('A' for Active; 'I' for Inactive)
REMARK    1  A    between atoms: C_1  and  O_2
REMARK    2  A    between atoms: O_2  and  C_3
REMARK    3  A    between atoms: C_3  and  C_4
REMARK    4  A    between atoms: N_6  and  C_7
REMARK    5  A    between atoms: C_7  and  C_8
REMARK    6  A    between atoms: C_12  and  C_13
REMARK    7  A    between atoms: N_19  and  C_20
REMARK    8  A    between atoms: C_24  and  C_25
REMARK    9  A    between atoms: C_25  and  C_26
REMARK   10  A    between atoms: C_26  and  C_27
REMARK   11  A    between atoms: N_31  and  C_32
REMARK                            x       y       z     vdW  Elec       q    Type
REMARK                         _______ _______ _______ _____ _____    ______ ____
ROOT
ATOM      1  C   UNL     1       3.528   5.065  17.821  0.00  0.00    +0.000 A 
ATOM      2  C   UNL     1       3.032   6.371  17.882  0.00  0.00    +0.000 A 
ATOM      3  C   UNL     1       2.327   6.746  19.002  0.00  0.00    +0.000 A 
ATOM      4  C   UNL     1       2.038   5.873  20.041  0.00  0.00    +0.000 A 
ATOM      5  C   UNL     1       2.448   4.550  19.982  0.00  0.00    +0.000 A 
ATOM      6  C   UNL     1       3.231   4.163  18.868  0.00  0.00    +0.000 A 
ATOM      7  C   UNL     1       1.296   6.616  21.108  0.00  0.00    +0.000 C 
ATOM      8  N   UNL     1       1.202   7.970  20.574  0.00  0.00    +0.000 N 
ATOM      9  C   UNL     1       1.800   8.074  19.320  0.00  0.00    +0.000 C 
ATOM     10  O   UNL     1       1.939   9.021  18.568  0.00  0.00    +0.000 OA
ENDROOT
BRANCH   8  11
ATOM     11  C   UNL     1       0.587   9.025  21.290  0.00  0.00    +0.000 A 
ATOM     12  C   UNL     1       0.286   8.915  22.648  0.00  0.00    +0.000 A 
ATOM     13  C   UNL     1      -0.306   9.975  23.334  0.00  0.00    +0.000 A 
ATOM     14  C   UNL     1      -0.650  11.139  22.653  0.00  0.00    +0.000 A 
ATOM     15  C   UNL     1      -0.422  11.281  21.272  0.00  0.00    +0.000 A 
ATOM     16  C   UNL     1       0.246  10.217  20.633  0.00  0.00    +0.000 A 
BRANCH  15  17
ATOM     17  C   UNL     1      -0.942  12.547  20.447  0.00  0.00    +0.000 C 
ATOM     18  C   UNL     1      -2.458  12.647  20.098  0.00  0.00    +0.000 C 
ATOM     19  O   UNL     1      -2.490  14.032  20.545  0.00  0.00    +0.000 OA
ATOM     20  C   UNL     1      -1.286  13.795  21.314  0.00  0.00    +0.000 C 
BRANCH  17  21
ATOM     21  C   UNL     1      -0.018  12.877  19.260  0.00  0.00    +0.000 C 
BRANCH  21  22
ATOM     22  C   UNL     1       1.122  13.769  19.633  0.00  0.00    +0.000 A 
ATOM     23  N   UNL     1       2.231  13.397  20.238  0.00  0.00    +0.000 NA
ATOM     24  N   UNL     1       3.040  14.500  20.383  0.00  0.00    +0.000 NA
ATOM     25  C   UNL     1       2.409  15.524  19.862  0.00  0.00    +0.000 A 
ATOM     26  N   UNL     1       1.197  15.119  19.392  0.00  0.00    +0.000 N 
ATOM     27  C   UNL     1       0.219  15.969  18.772  0.00  0.00    +0.000 C 
ENDBRANCH  21  22
ENDBRANCH  17  21
ENDBRANCH  15  17
ENDBRANCH   8  11
BRANCH   5  28
ATOM     28  C   UNL     1       2.075   3.532  21.027  0.00  0.00    +0.000 C 
ATOM     29  F   UNL     1       2.629   2.309  20.815  0.00  0.00    +0.000 F 
ATOM     30  F   UNL     1       2.468   3.911  22.273  0.00  0.00    +0.000 F 
ATOM     31  F   UNL     1       0.729   3.330  21.098  0.00  0.00    +0.000 F 
ENDBRANCH   5  28
BRANCH   1  32
ATOM     32  C   UNL     1       4.360   4.631  16.631  0.00  0.00    +0.000 C 
BRANCH  32  35
ATOM     33  C   UNL     1       6.944   6.276  17.015  0.00  0.00    +0.000 C 
ATOM     34  C   UNL     1       6.542   4.994  17.772  0.00  0.00    +0.000 C 
ATOM     35  N   UNL     1       5.690   4.083  16.964  0.00  0.00    +0.000 NA
ATOM     36  C   UNL     1       6.442   3.801  15.712  0.00  0.00    +0.000 C 
ATOM     37  C   UNL     1       6.944   5.066  14.983  0.00  0.00    +0.000 C 
ATOM     38  O   UNL     1       7.717   5.906  15.853  0.00  0.00    +0.000 OA
BRANCH  33  39
ATOM     39  C   UNL     1       7.758   7.217  17.912  0.00  0.00    +0.000 C 
BRANCH  39  41
ATOM     40  C   UNL     1       8.359   9.496  18.069  0.00  0.00    +0.000 C 
ATOM     41  O   UNL     1       7.383   8.569  17.621  0.00  0.00    +0.000 OA
ENDBRANCH  39  41
ENDBRANCH  33  39
ENDBRANCH  32  35
ENDBRANCH   1  32
TORSDOF 9
ENDMDL
MODEL 6
REMARK VINA RESULT:      -9.1      1.743      2.326
REMARK  Name = 
REMARK  11 active torsions:
REMARK  status: ('A' for Active; 'I' for Inactive)
REMARK    1  A    between atoms: C_1  and  O_2
REMARK    2  A    between atoms: O_2  and  C_3
REMARK    3  A    between atoms: C_3  and  C_4
REMARK    4  A    between atoms: N_6  and  C_7
REMARK    5  A    between atoms: C_7  and  C_8
REMARK    6  A    between atoms: C_12  and  C_13
REMARK    7  A    between atoms: N_19  and  C_20
REMARK    8  A    between atoms: C_24  and  C_25
REMARK    9  A    between atoms: C_25  and  C_26
REMARK   10  A    between atoms: C_26  and  C_27
REMARK   11  A    between atoms: N_31  and  C_32
REMARK                            x       y       z     vdW  Elec       q    Type
REMARK                         _______ _______ _______ _____ _____    ______ ____
ROOT
ATOM      1  C   UNL     1       3.518   5.119  17.750  0.00  0.00    +0.000 A 
ATOM      2  C   UNL     1       3.041   6.433  17.797  0.00  0.00    +0.000 A 
ATOM      3  C   UNL     1       2.356   6.835  18.919  0.00  0.00    +0.000 A 
ATOM      4  C   UNL     1       2.066   5.983  19.975  0.00  0.00    +0.000 A 
ATOM      5  C   UNL     1       2.457   4.653  19.932  0.00  0.00    +0.000 A 
ATOM      6  C   UNL     1       3.221   4.238  18.814  0.00  0.00    +0.000 A 
ATOM      7  C   UNL     1       1.349   6.753  21.040  0.00  0.00    +0.000 C 
ATOM      8  N   UNL     1       1.268   8.100  20.485  0.00  0.00    +0.000 N 
ATOM      9  C   UNL     1       1.852   8.176  19.223  0.00  0.00    +0.000 C 
ATOM     10  O   UNL     1       1.996   9.109  18.454  0.00  0.00    +0.000 OA
ENDROOT
BRANCH   8  11
ATOM     11  C   UNL     1       0.678   9.175  21.192  0.00  0.00    +0.000 A 
ATOM     12  C   UNL     1      -0.246   8.963  22.216  0.00  0.00    +0.000 A 
ATOM     13  C   UNL     1      -0.802  10.039  22.907  0.00  0.00    +0.000 A 
ATOM     14  C   UNL     1      -0.477  11.342  22.544  0.00  0.00    +0.000 A 
ATOM     15  C   UNL     1       0.404  11.614  21.481  0.00  0.00    +0.000 A 
ATOM     16  C   UNL     1       1.001  10.499  20.859  0.00  0.00    +0.000 A 
BRANCH  15  17
ATOM     17  C   UNL     1       0.675  13.099  20.956  0.00  0.00    +0.000 C 
ATOM     18  C   UNL     1      -0.017  14.292  21.682  0.00  0.00    +0.000 C 
ATOM     19  O   UNL     1       1.242  15.022  21.726  0.00  0.00    +0.000 OA
ATOM     20  C   UNL     1       1.953  13.774  21.536  0.00  0.00    +0.000 C 
BRANCH  17  21
ATOM     21  C   UNL     1       0.593  13.188  19.420  0.00  0.00    +0.000 C 
BRANCH  21  22
ATOM     22  C   UNL     1       1.762  13.889  18.810  0.00  0.00    +0.000 A 
ATOM     23  N   UNL     1       2.926  13.345  18.515  0.00  0.00    +0.000 NA
ATOM     24  N   UNL     1       3.727  14.308  17.948  0.00  0.00    +0.000 NA
ATOM     25  C   UNL     1       3.037  15.422  17.906  0.00  0.00    +0.000 A 
ATOM     26  N   UNL     1       1.805  15.214  18.447  0.00  0.00    +0.000 N 
ATOM     27  C   UNL     1       0.781  16.210  18.592  0.00  0.00    +0.000 C 
ENDBRANCH  21  22
ENDBRANCH  17  21
ENDBRANCH  15  17
ENDBRANCH   8  11
BRANCH   5  28
ATOM     28  C   UNL     1       2.082   3.657  20.997  0.00  0.00    +0.000 C 
ATOM     29  F   UNL     1       2.461   4.033  22.247  0.00  0.00    +0.000 F 
ATOM     30  F   UNL     1       0.739   3.454  21.058  0.00  0.00    +0.000 F 
ATOM     31  F   UNL     1       2.644   2.434  20.784  0.00  0.00    +0.000 F 
ENDBRANCH   5  28
BRANCH   1  32
ATOM     32  C   UNL     1       4.329   4.654  16.557  0.00  0.00    +0.000 C 
BRANCH  32  35
ATOM     33  C   UNL     1       6.933   6.252  16.998  0.00  0.00    +0.000 C 
ATOM     34  C   UNL     1       6.508   4.956  17.720  0.00  0.00    +0.000 C 
ATOM     35  N   UNL     1       5.649   4.079  16.884  0.00  0.00    +0.000 NA
ATOM     36  C   UNL     1       6.404   3.818  15.629  0.00  0.00    +0.000 C 
ATOM     37  C   UNL     1       6.929   5.094  14.936  0.00  0.00    +0.000 C 
ATOM     38  O   UNL     1       7.708   5.900  15.832  0.00  0.00    +0.000 OA
BRANCH  33  39
ATOM     39  C   UNL     1       7.755   7.157  17.924  0.00  0.00    +0.000 C 
BRANCH  39  41
ATOM     40  C   UNL     1       8.471   9.390  18.208  0.00  0.00    +0.000 C 
ATOM     41  O   UNL     1       7.663   8.506  17.449  0.00  0.00    +0.000 OA
ENDBRANCH  39  41
ENDBRANCH  33  39
ENDBRANCH  32  35
ENDBRANCH   1  32
TORSDOF 9
ENDMDL
MODEL 7
REMARK VINA RESULT:      -9.1      1.966      3.499
REMARK  Name = 
REMARK  11 active torsions:
REMARK  status: ('A' for Active; 'I' for Inactive)
REMARK    1  A    between atoms: C_1  and  O_2
REMARK    2  A    between atoms: O_2  and  C_3
REMARK    3  A    between atoms: C_3  and  C_4
REMARK    4  A    between atoms: N_6  and  C_7
REMARK    5  A    between atoms: C_7  and  C_8
REMARK    6  A    between atoms: C_12  and  C_13
REMARK    7  A    between atoms: N_19  and  C_20
REMARK    8  A    between atoms: C_24  and  C_25
REMARK    9  A    between atoms: C_25  and  C_26
REMARK   10  A    between atoms: C_26  and  C_27
REMARK   11  A    between atoms: N_31  and  C_32
REMARK                            x       y       z     vdW  Elec       q    Type
REMARK                         _______ _______ _______ _____ _____    ______ ____
ROOT
ATOM      1  C   UNL     1       3.606   5.058  17.993  0.00  0.00    +0.000 A 
ATOM      2  C   UNL     1       3.094   6.360  18.005  0.00  0.00    +0.000 A 
ATOM      3  C   UNL     1       2.330   6.746  19.082  0.00  0.00    +0.000 A 
ATOM      4  C   UNL     1       1.998   5.888  20.120  0.00  0.00    +0.000 A 
ATOM      5  C   UNL     1       2.424   4.569  20.105  0.00  0.00    +0.000 A 
ATOM      6  C   UNL     1       3.266   4.171  19.039  0.00  0.00    +0.000 A 
ATOM      7  C   UNL     1       1.195   6.641  21.136  0.00  0.00    +0.000 C 
ATOM      8  N   UNL     1       1.115   7.984  20.574  0.00  0.00    +0.000 N 
ATOM      9  C   UNL     1       1.774   8.073  19.350  0.00  0.00    +0.000 C 
ATOM     10  O   UNL     1       1.941   9.008  18.588  0.00  0.00    +0.000 OA
ENDROOT
BRANCH   8  11
ATOM     11  C   UNL     1       0.454   9.045  21.239  0.00  0.00    +0.000 A 
ATOM     12  C   UNL     1       0.298   9.060  22.626  0.00  0.00    +0.000 A 
ATOM     13  C   UNL     1      -0.343  10.123  23.258  0.00  0.00    +0.000 A 
ATOM     14  C   UNL     1      -0.883  11.160  22.502  0.00  0.00    +0.000 A 
ATOM     15  C   UNL     1      -0.806  11.166  21.097  0.00  0.00    +0.000 A 
ATOM     16  C   UNL     1      -0.084  10.111  20.503  0.00  0.00    +0.000 A 
BRANCH  15  17
ATOM     17  C   UNL     1      -1.545  12.269  20.207  0.00  0.00    +0.000 C 
ATOM     18  C   UNL     1      -2.799  11.852  19.380  0.00  0.00    +0.000 C 
ATOM     19  O   UNL     1      -3.525  13.020  19.856  0.00  0.00    +0.000 OA
ATOM     20  C   UNL     1      -2.603  13.121  20.968  0.00  0.00    +0.000 C 
BRANCH  17  21
ATOM     21  C   UNL     1      -0.544  13.126  19.410  0.00  0.00    +0.000 C 
BRANCH  21  22
ATOM     22  C   UNL     1       0.676  13.485  20.193  0.00  0.00    +0.000 A 
ATOM     23  N   UNL     1       0.697  14.101  21.358  0.00  0.00    +0.000 NA
ATOM     24  N   UNL     1       2.005  14.228  21.763  0.00  0.00    +0.000 NA
ATOM     25  C   UNL     1       2.759  13.685  20.837  0.00  0.00    +0.000 A 
ATOM     26  N   UNL     1       1.973  13.219  19.828  0.00  0.00    +0.000 N 
ATOM     27  C   UNL     1       2.448  12.580  18.632  0.00  0.00    +0.000 C 
ENDBRANCH  21  22
ENDBRANCH  17  21
ENDBRANCH  15  17
ENDBRANCH   8  11
BRANCH   5  28
ATOM     28  C   UNL     1       2.010   3.565  21.149  0.00  0.00    +0.000 C 
ATOM     29  F   UNL     1       2.364   3.918  22.412  0.00  0.00    +0.000 F 
ATOM     30  F   UNL     1       0.663   3.381  21.175  0.00  0.00    +0.000 F 
ATOM     31  F   UNL     1       2.558   2.336  20.932  0.00  0.00    +0.000 F 
ENDBRANCH   5  28
BRANCH   1  32
ATOM     32  C   UNL     1       4.502   4.613  16.854  0.00  0.00    +0.000 C 
BRANCH  32  35
ATOM     33  C   UNL     1       6.501   4.256  14.529  0.00  0.00    +0.000 C 
ATOM     34  C   UNL     1       5.547   5.447  14.755  0.00  0.00    +0.000 C 
ATOM     35  N   UNL     1       5.255   5.696  16.190  0.00  0.00    +0.000 NA
ATOM     36  C   UNL     1       6.569   5.876  16.863  0.00  0.00    +0.000 C 
ATOM     37  C   UNL     1       7.582   4.747  16.575  0.00  0.00    +0.000 C 
ATOM     38  O   UNL     1       7.764   4.548  15.165  0.00  0.00    +0.000 OA
BRANCH  33  39
ATOM     39  C   UNL     1       6.713   3.992  13.033  0.00  0.00    +0.000 C 
BRANCH  39  41
ATOM     40  C   UNL     1       5.694   2.375  11.644  0.00  0.00    +0.000 C 
ATOM     41  O   UNL     1       5.487   3.507  12.472  0.00  0.00    +0.000 OA
ENDBRANCH  39  41
ENDBRANCH  33  39
ENDBRANCH  32  35
ENDBRANCH   1  32
TORSDOF 9
ENDMDL
MODEL 8
REMARK VINA RESULT:      -9.1      1.480      2.347
REMARK  Name = 
REMARK  11 active torsions:
REMARK  status: ('A' for Active; 'I' for Inactive)
REMARK    1  A    between atoms: C_1  and  O_2
REMARK    2  A    between atoms: O_2  and  C_3
REMARK    3  A    between atoms: C_3  and  C_4
REMARK    4  A    between atoms: N_6  and  C_7
REMARK    5  A    between atoms: C_7  and  C_8
REMARK    6  A    between atoms: C_12  and  C_13
REMARK    7  A    between atoms: N_19  and  C_20
REMARK    8  A    between atoms: C_24  and  C_25
REMARK    9  A    between atoms: C_25  and  C_26
REMARK   10  A    between atoms: C_26  and  C_27
REMARK   11  A    between atoms: N_31  and  C_32
REMARK                            x       y       z     vdW  Elec       q    Type
REMARK                         _______ _______ _______ _____ _____    ______ ____
ROOT
ATOM      1  C   UNL     1       3.499   5.128  17.843  0.00  0.00    +0.000 A 
ATOM      2  C   UNL     1       2.969   6.422  17.877  0.00  0.00    +0.000 A 
ATOM      3  C   UNL     1       2.257   6.803  18.990  0.00  0.00    +0.000 A 
ATOM      4  C   UNL     1       1.991   5.946  20.047  0.00  0.00    +0.000 A 
ATOM      5  C   UNL     1       2.435   4.633  20.016  0.00  0.00    +0.000 A 
ATOM      6  C   UNL     1       3.226   4.242  18.909  0.00  0.00    +0.000 A 
ATOM      7  C   UNL     1       1.232   6.693  21.101  0.00  0.00    +0.000 C 
ATOM      8  N   UNL     1       1.104   8.032  20.538  0.00  0.00    +0.000 N 
ATOM      9  C   UNL     1       1.697   8.124  19.281  0.00  0.00    +0.000 C 
ATOM     10  O   UNL     1       1.812   9.058  18.508  0.00  0.00    +0.000 OA
ENDROOT
BRANCH   8  11
ATOM     11  C   UNL     1       0.464   9.087  21.232  0.00  0.00    +0.000 A 
ATOM     12  C   UNL     1       0.332   9.080  22.621  0.00  0.00    +0.000 A 
ATOM     13  C   UNL     1      -0.289  10.138  23.282  0.00  0.00    +0.000 A 
ATOM     14  C   UNL     1      -0.833  11.191  22.553  0.00  0.00    +0.000 A 
ATOM     15  C   UNL     1      -0.780  11.220  21.148  0.00  0.00    +0.000 A 
ATOM     16  C   UNL     1      -0.078  10.170  20.523  0.00  0.00    +0.000 A 
BRANCH  15  17
ATOM     17  C   UNL     1      -1.525  12.344  20.289  0.00  0.00    +0.000 C 
ATOM     18  C   UNL     1      -3.083  12.367  20.269  0.00  0.00    +0.000 C 
ATOM     19  O   UNL     1      -3.085  13.801  20.516  0.00  0.00    +0.000 OA
ATOM     20  C   UNL     1      -1.735  13.699  21.028  0.00  0.00    +0.000 C 
BRANCH  17  21
ATOM     21  C   UNL     1      -0.893  12.513  18.894  0.00  0.00    +0.000 C 
BRANCH  21  22
ATOM     22  C   UNL     1       0.053  13.666  18.813  0.00  0.00    +0.000 A 
ATOM     23  N   UNL     1      -0.281  14.938  18.728  0.00  0.00    +0.000 NA
ATOM     24  N   UNL     1       0.870  15.691  18.698  0.00  0.00    +0.000 NA
ATOM     25  C   UNL     1       1.885  14.863  18.768  0.00  0.00    +0.000 A 
ATOM     26  N   UNL     1       1.424  13.584  18.827  0.00  0.00    +0.000 N 
ATOM     27  C   UNL     1       2.245  12.406  18.890  0.00  0.00    +0.000 C 
ENDBRANCH  21  22
ENDBRANCH  17  21
ENDBRANCH  15  17
ENDBRANCH   8  11
BRANCH   5  28
ATOM     28  C   UNL     1       2.089   3.628  21.084  0.00  0.00    +0.000 C 
ATOM     29  F   UNL     1       0.766   3.322  21.133  0.00  0.00    +0.000 F 
ATOM     30  F   UNL     1       2.740   2.449  20.906  0.00  0.00    +0.000 F 
ATOM     31  F   UNL     1       2.423   4.063  22.332  0.00  0.00    +0.000 F 
ENDBRANCH   5  28
BRANCH   1  32
ATOM     32  C   UNL     1       4.340   4.690  16.661  0.00  0.00    +0.000 C 
BRANCH  32  35
ATOM     33  C   UNL     1       6.974   6.255  17.031  0.00  0.00    +0.000 C 
ATOM     34  C   UNL     1       6.528   4.998  17.805  0.00  0.00    +0.000 C 
ATOM     35  N   UNL     1       5.650   4.103  17.008  0.00  0.00    +0.000 NA
ATOM     36  C   UNL     1       6.396   3.777  15.764  0.00  0.00    +0.000 C 
ATOM     37  C   UNL     1       6.943   5.013  15.018  0.00  0.00    +0.000 C 
ATOM     38  O   UNL     1       7.740   5.841  15.878  0.00  0.00    +0.000 OA
BRANCH  33  39
ATOM     39  C   UNL     1       7.816   7.182  17.916  0.00  0.00    +0.000 C 
BRANCH  39  41
ATOM     40  C   UNL     1       8.356   9.481  17.878  0.00  0.00    +0.000 C 
ATOM     41  O   UNL     1       7.318   8.520  17.786  0.00  0.00    +0.000 OA
ENDBRANCH  39  41
ENDBRANCH  33  39
ENDBRANCH  32  35
ENDBRANCH   1  32
TORSDOF 9
ENDMDL
MODEL 9
REMARK VINA RESULT:      -9.0      1.477      2.760
REMARK  Name = 
REMARK  11 active torsions:
REMARK  status: ('A' for Active; 'I' for Inactive)
REMARK    1  A    between atoms: C_1  and  O_2
REMARK    2  A    between atoms: O_2  and  C_3
REMARK    3  A    between atoms: C_3  and  C_4
REMARK    4  A    between atoms: N_6  and  C_7
REMARK    5  A    between atoms: C_7  and  C_8
REMARK    6  A    between atoms: C_12  and  C_13
REMARK    7  A    between atoms: N_19  and  C_20
REMARK    8  A    between atoms: C_24  and  C_25
REMARK    9  A    between atoms: C_25  and  C_26
REMARK   10  A    between atoms: C_26  and  C_27
REMARK   11  A    between atoms: N_31  and  C_32
REMARK                            x       y       z     vdW  Elec       q    Type
REMARK                         _______ _______ _______ _____ _____    ______ ____
ROOT
ATOM      1  C   UNL     1       3.602   5.256  17.950  0.00  0.00    +0.000 A 
ATOM      2  C   UNL     1       3.098   6.561  17.981  0.00  0.00    +0.000 A 
ATOM      3  C   UNL     1       2.340   6.938  19.064  0.00  0.00    +0.000 A 
ATOM      4  C   UNL     1       2.004   6.069  20.092  0.00  0.00    +0.000 A 
ATOM      5  C   UNL     1       2.421   4.747  20.059  0.00  0.00    +0.000 A 
ATOM      6  C   UNL     1       3.258   4.358  18.985  0.00  0.00    +0.000 A 
ATOM      7  C   UNL     1       1.210   6.814  21.120  0.00  0.00    +0.000 C 
ATOM      8  N   UNL     1       1.137   8.165  20.575  0.00  0.00    +0.000 N 
ATOM      9  C   UNL     1       1.793   8.265  19.351  0.00  0.00    +0.000 C 
ATOM     10  O   UNL     1       1.965   9.209  18.601  0.00  0.00    +0.000 OA
ENDROOT
BRANCH   8  11
ATOM     11  C   UNL     1       0.485   9.221  21.256  0.00  0.00    +0.000 A 
ATOM     12  C   UNL     1       0.079   9.099  22.586  0.00  0.00    +0.000 A 
ATOM     13  C   UNL     1      -0.548  10.160  23.238  0.00  0.00    +0.000 A 
ATOM     14  C   UNL     1      -0.822  11.337  22.548  0.00  0.00    +0.000 A 
ATOM     15  C   UNL     1      -0.486  11.492  21.191  0.00  0.00    +0.000 A 
ATOM     16  C   UNL     1       0.212  10.426  20.591  0.00  0.00    +0.000 A 
BRANCH  15  17
ATOM     17  C   UNL     1      -0.923  12.777  20.346  0.00  0.00    +0.000 C 
ATOM     18  C   UNL     1      -2.072  13.679  20.887  0.00  0.00    +0.000 C 
ATOM     19  O   UNL     1      -1.280  14.874  20.636  0.00  0.00    +0.000 OA
ATOM     20  C   UNL     1      -0.083  14.059  20.625  0.00  0.00    +0.000 C 
BRANCH  17  21
ATOM     21  C   UNL     1      -1.051  12.458  18.844  0.00  0.00    +0.000 C 
BRANCH  21  22
ATOM     22  C   UNL     1      -2.302  11.714  18.506  0.00  0.00    +0.000 A 
ATOM     23  N   UNL     1      -3.530  12.081  18.814  0.00  0.00    +0.000 NA
ATOM     24  N   UNL     1      -4.404  11.147  18.309  0.00  0.00    +0.000 NA
ATOM     25  C   UNL     1      -3.692  10.228  17.701  0.00  0.00    +0.000 A 
ATOM     26  N   UNL     1      -2.370  10.531  17.810  0.00  0.00    +0.000 N 
ATOM     27  C   UNL     1      -1.289   9.743  17.285  0.00  0.00    +0.000 C 
ENDBRANCH  21  22
ENDBRANCH  17  21
ENDBRANCH  15  17
ENDBRANCH   8  11
BRANCH   5  28
ATOM     28  C   UNL     1       2.003   3.732  21.090  0.00  0.00    +0.000 C 
ATOM     29  F   UNL     1       2.338   4.081  22.361  0.00  0.00    +0.000 F 
ATOM     30  F   UNL     1       0.658   3.536  21.098  0.00  0.00    +0.000 F 
ATOM     31  F   UNL     1       2.565   2.510  20.873  0.00  0.00    +0.000 F 
ENDBRANCH   5  28
BRANCH   1  32
ATOM     32  C   UNL     1       4.491   4.820  16.803  0.00  0.00    +0.000 C 
BRANCH  32  35
ATOM     33  C   UNL     1       6.538   4.469  14.519  0.00  0.00    +0.000 C 
ATOM     34  C   UNL     1       5.580   5.660  14.729  0.00  0.00    +0.000 C 
ATOM     35  N   UNL     1       5.259   5.904  16.158  0.00  0.00    +0.000 NA
ATOM     36  C   UNL     1       6.559   6.080  16.860  0.00  0.00    +0.000 C 
ATOM     37  C   UNL     1       7.576   4.952  16.588  0.00  0.00    +0.000 C 
ATOM     38  O   UNL     1       7.788   4.757  15.182  0.00  0.00    +0.000 OA
BRANCH  33  39
ATOM     39  C   UNL     1       6.781   4.210  13.027  0.00  0.00    +0.000 C 
BRANCH  39  41
ATOM     40  C   UNL     1       4.918   3.298  11.896  0.00  0.00    +0.000 C 
ATOM     41  O   UNL     1       6.086   3.015  12.648  0.00  0.00    +0.000 OA
ENDBRANCH  39  41
ENDBRANCH  33  39
ENDBRANCH  32  35
ENDBRANCH   1  32
TORSDOF 9
ENDMDL
