MODEL 1
REMARK VINA RESULT:      -9.7      0.000      0.000
REMARK  Name = 
REMARK  10 active torsions:
REMARK  status: ('A' for Active; 'I' for Inactive)
REMARK    1  A    between atoms: C_1  and  O_2
REMARK    2  A    between atoms: O_2  and  C_3
REMARK    3  A    between atoms: N_7  and  C_8
REMARK    4  A    between atoms: C_8  and  C_9
REMARK    5  A    between atoms: C_13  and  C_14
REMARK    6  A    between atoms: N_20  and  C_21
REMARK    7  A    between atoms: C_25  and  C_26
REMARK    8  A    between atoms: C_26  and  C_27
REMARK    9  A    between atoms: C_27  and  C_28
REMARK   10  A    between atoms: N_32  and  C_33
REMARK                            x       y       z     vdW  Elec       q    Type
REMARK                         _______ _______ _______ _____ _____    ______ ____
ROOT
ATOM      1  C   UNL     1      -0.716  11.084  19.274  0.00  0.00    +0.000 A 
ATOM      2  C   UNL     1       0.250  10.395  18.534  0.00  0.00    +0.000 A 
ATOM      3  C   UNL     1       0.953   9.398  19.176  0.00  0.00    +0.000 A 
ATOM      4  C   UNL     1       0.775   9.087  20.522  0.00  0.00    +0.000 A 
ATOM      5  C   UNL     1      -0.097   9.827  21.310  0.00  0.00    +0.000 A 
ATOM      6  C   UNL     1      -0.861  10.814  20.657  0.00  0.00    +0.000 A 
ATOM      7  C   UNL     1       1.578   7.875  20.859  0.00  0.00    +0.000 C 
ATOM      8  N   UNL     1       2.223   7.536  19.596  0.00  0.00    +0.000 N 
ATOM      9  C   UNL     1       1.895   8.443  18.589  0.00  0.00    +0.000 C 
ATOM     10  O   UNL     1       2.222   8.496  17.417  0.00  0.00    +0.000 OA
ENDROOT
BRANCH   8  11
ATOM     11  C   UNL     1       3.025   6.380  19.444  0.00  0.00    +0.000 A 
ATOM     12  C   UNL     1       2.575   5.117  19.835  0.00  0.00    +0.000 A 
ATOM     13  C   UNL     1       3.380   3.993  19.669  0.00  0.00    +0.000 A 
ATOM     14  C   UNL     1       4.669   4.128  19.158  0.00  0.00    +0.000 A 
ATOM     15  C   UNL     1       5.195   5.383  18.806  0.00  0.00    +0.000 A 
ATOM     16  C   UNL     1       4.321   6.483  18.917  0.00  0.00    +0.000 A 
BRANCH  15  17
ATOM     17  C   UNL     1       6.718   5.576  18.358  0.00  0.00    +0.000 C 
ATOM     18  C   UNL     1       7.183   6.977  17.854  0.00  0.00    +0.000 C 
ATOM     19  O   UNL     1       8.366   6.910  18.701  0.00  0.00    +0.000 OA
ATOM     20  C   UNL     1       7.703   5.910  19.516  0.00  0.00    +0.000 C 
BRANCH  17  21
ATOM     21  C   UNL     1       7.207   4.419  17.471  0.00  0.00    +0.000 C 
BRANCH  21  22
ATOM     22  C   UNL     1       6.895   4.613  16.022  0.00  0.00    +0.000 A 
ATOM     23  N   UNL     1       7.661   5.224  15.139  0.00  0.00    +0.000 NA
ATOM     24  N   UNL     1       7.045   5.162  13.913  0.00  0.00    +0.000 NA
ATOM     25  C   UNL     1       5.917   4.513  14.069  0.00  0.00    +0.000 A 
ATOM     26  N   UNL     1       5.766   4.173  15.380  0.00  0.00    +0.000 N 
ATOM     27  C   UNL     1       4.637   3.477  15.933  0.00  0.00    +0.000 C 
ENDBRANCH  21  22
ENDBRANCH  17  21
ENDBRANCH  15  17
ENDBRANCH   8  11
BRANCH   5  28
ATOM     28  C   UNL     1      -0.251   9.606  22.792  0.00  0.00    +0.000 C 
ATOM     29  F   UNL     1      -0.931  10.600  23.425  0.00  0.00    +0.000 F 
ATOM     30  F   UNL     1      -0.925   8.457  23.071  0.00  0.00    +0.000 F 
ATOM     31  F   UNL     1       0.946   9.505  23.431  0.00  0.00    +0.000 F 
ENDBRANCH   5  28
BRANCH   1  32
ATOM     32  C   UNL     1      -1.636  12.059  18.574  0.00  0.00    +0.000 C 
BRANCH  32  37
ATOM     33  C   UNL     1      -5.338  12.521  19.326  0.00  0.00    +0.000 C 
ATOM     34  C   UNL     1      -5.897  12.244  17.931  0.00  0.00    +0.000 C 
ATOM     35  C   UNL     1      -5.077  11.230  17.144  0.00  0.00    +0.000 C 
ATOM     36  C   UNL     1      -3.568  11.493  17.211  0.00  0.00    +0.000 C 
ATOM     37  N   UNL     1      -3.057  11.674  18.572  0.00  0.00    +0.000 NA
ATOM     38  C   UNL     1      -3.812  12.723  19.295  0.00  0.00    +0.000 C 
BRANCH  33  40
ATOM     39  C   UNL     1      -7.122  11.143  20.249  0.00  0.00    +0.000 C 
ATOM     40  O   UNL     1      -5.795  11.630  20.347  0.00  0.00    +0.000 OA
ENDBRANCH  33  40
ENDBRANCH  32  37
ENDBRANCH   1  32
TORSDOF 8
ENDMDL
MODEL 2
REMARK VINA RESULT:      -9.2      1.963      3.058
REMARK  Name = 
REMARK  10 active torsions:
REMARK  status: ('A' for Active; 'I' for Inactive)
REMARK    1  A    between atoms: C_1  and  O_2
REMARK    2  A    between atoms: O_2  and  C_3
REMARK    3  A    between atoms: N_7  and  C_8
REMARK    4  A    between atoms: C_8  and  C_9
REMARK    5  A    between atoms: C_13  and  C_14
REMARK    6  A    between atoms: N_20  and  C_21
REMARK    7  A    between atoms: C_25  and  C_26
REMARK    8  A    between atoms: C_26  and  C_27
REMARK    9  A    between atoms: C_27  and  C_28
REMARK   10  A    between atoms: N_32  and  C_33
REMARK                            x       y       z     vdW  Elec       q    Type
REMARK                         _______ _______ _______ _____ _____    ______ ____
ROOT
ATOM      1  C   UNL     1       0.011  11.351  19.255  0.00  0.00    +0.000 A 
ATOM      2  C   UNL     1       0.882  10.636  18.429  0.00  0.00    +0.000 A 
ATOM      3  C   UNL     1       1.410   9.462  18.925  0.00  0.00    +0.000 A 
ATOM      4  C   UNL     1       1.152   8.995  20.210  0.00  0.00    +0.000 A 
ATOM      5  C   UNL     1       0.380   9.740  21.093  0.00  0.00    +0.000 A 
ATOM      6  C   UNL     1      -0.210  10.914  20.585  0.00  0.00    +0.000 A 
ATOM      7  C   UNL     1       1.754   7.639  20.374  0.00  0.00    +0.000 C 
ATOM      8  N   UNL     1       2.375   7.388  19.078  0.00  0.00    +0.000 N 
ATOM      9  C   UNL     1       2.213   8.468  18.210  0.00  0.00    +0.000 C 
ATOM     10  O   UNL     1       2.576   8.636  17.060  0.00  0.00    +0.000 OA
ENDROOT
BRANCH   8  11
ATOM     11  C   UNL     1       2.998   6.157  18.765  0.00  0.00    +0.000 A 
ATOM     12  C   UNL     1       2.851   5.031  19.578  0.00  0.00    +0.000 A 
ATOM     13  C   UNL     1       3.469   3.829  19.246  0.00  0.00    +0.000 A 
ATOM     14  C   UNL     1       4.286   3.752  18.121  0.00  0.00    +0.000 A 
ATOM     15  C   UNL     1       4.518   4.870  17.300  0.00  0.00    +0.000 A 
ATOM     16  C   UNL     1       3.813   6.046  17.629  0.00  0.00    +0.000 A 
BRANCH  15  17
ATOM     17  C   UNL     1       5.566   4.842  16.093  0.00  0.00    +0.000 C 
ATOM     18  C   UNL     1       6.087   3.465  15.579  0.00  0.00    +0.000 C 
ATOM     19  O   UNL     1       5.854   3.871  14.200  0.00  0.00    +0.000 OA
ATOM     20  C   UNL     1       4.931   4.884  14.673  0.00  0.00    +0.000 C 
BRANCH  17  21
ATOM     21  C   UNL     1       6.684   5.882  16.280  0.00  0.00    +0.000 C 
BRANCH  21  22
ATOM     22  C   UNL     1       7.315   5.834  17.634  0.00  0.00    +0.000 A 
ATOM     23  N   UNL     1       7.489   4.753  18.370  0.00  0.00    +0.000 NA
ATOM     24  N   UNL     1       8.137   5.114  19.527  0.00  0.00    +0.000 NA
ATOM     25  C   UNL     1       8.348   6.407  19.474  0.00  0.00    +0.000 A 
ATOM     26  N   UNL     1       7.826   6.907  18.318  0.00  0.00    +0.000 N 
ATOM     27  C   UNL     1       7.844   8.289  17.929  0.00  0.00    +0.000 C 
ENDBRANCH  21  22
ENDBRANCH  17  21
ENDBRANCH  15  17
ENDBRANCH   8  11
BRANCH   5  28
ATOM     28  C   UNL     1       0.155   9.338  22.526  0.00  0.00    +0.000 C 
ATOM     29  F   UNL     1      -0.436  10.304  23.279  0.00  0.00    +0.000 F 
ATOM     30  F   UNL     1      -0.646   8.242  22.631  0.00  0.00    +0.000 F 
ATOM     31  F   UNL     1       1.313   9.019  23.166  0.00  0.00    +0.000 F 
ENDBRANCH   5  28
BRANCH   1  32
ATOM     32  C   UNL     1      -0.734  12.545  18.699  0.00  0.00    +0.000 C 
BRANCH  32  37
ATOM     33  C   UNL     1      -3.170  10.432  16.679  0.00  0.00    +0.000 C 
ATOM     34  C   UNL     1      -4.332  10.400  17.671  0.00  0.00    +0.000 C 
ATOM     35  C   UNL     1      -4.444  11.667  18.508  0.00  0.00    +0.000 C 
ATOM     36  C   UNL     1      -3.100  12.134  19.079  0.00  0.00    +0.000 C 
ATOM     37  N   UNL     1      -2.032  12.229  18.081  0.00  0.00    +0.000 NA
ATOM     38  C   UNL     1      -1.880  10.959  17.333  0.00  0.00    +0.000 C 
BRANCH  33  40
ATOM     39  C   UNL     1      -3.661  10.155  14.309  0.00  0.00    +0.000 C 
ATOM     40  O   UNL     1      -3.475  11.024  15.412  0.00  0.00    +0.000 OA
ENDBRANCH  33  40
ENDBRANCH  32  37
ENDBRANCH   1  32
TORSDOF 8
ENDMDL
MODEL 3
REMARK VINA RESULT:      -9.0      3.077      4.389
REMARK  Name = 
REMARK  10 active torsions:
REMARK  status: ('A' for Active; 'I' for Inactive)
REMARK    1  A    between atoms: C_1  and  O_2
REMARK    2  A    between atoms: O_2  and  C_3
REMARK    3  A    between atoms: N_7  and  C_8
REMARK    4  A    between atoms: C_8  and  C_9
REMARK    5  A    between atoms: C_13  and  C_14
REMARK    6  A    between atoms: N_20  and  C_21
REMARK    7  A    between atoms: C_25  and  C_26
REMARK    8  A    between atoms: C_26  and  C_27
REMARK    9  A    between atoms: C_27  and  C_28
REMARK   10  A    between atoms: N_32  and  C_33
REMARK                            x       y       z     vdW  Elec       q    Type
REMARK                         _______ _______ _______ _____ _____    ______ ____
ROOT
ATOM      1  C   UNL     1       0.475  11.644  19.196  0.00  0.00    +0.000 A 
ATOM      2  C   UNL     1       1.295  10.839  18.401  0.00  0.00    +0.000 A 
ATOM      3  C   UNL     1       1.608   9.583  18.876  0.00  0.00    +0.000 A 
ATOM      4  C   UNL     1       1.186   9.111  20.116  0.00  0.00    +0.000 A 
ATOM      5  C   UNL     1       0.463   9.928  20.976  0.00  0.00    +0.000 A 
ATOM      6  C   UNL     1       0.091  11.195  20.484  0.00  0.00    +0.000 A 
ATOM      7  C   UNL     1       1.571   7.676  20.256  0.00  0.00    +0.000 C 
ATOM      8  N   UNL     1       2.248   7.385  18.998  0.00  0.00    +0.000 N 
ATOM      9  C   UNL     1       2.313   8.508  18.174  0.00  0.00    +0.000 C 
ATOM     10  O   UNL     1       2.784   8.663  17.062  0.00  0.00    +0.000 OA
ENDROOT
BRANCH   8  11
ATOM     11  C   UNL     1       2.709   6.087  18.672  0.00  0.00    +0.000 A 
ATOM     12  C   UNL     1       2.217   4.949  19.314  0.00  0.00    +0.000 A 
ATOM     13  C   UNL     1       2.682   3.683  18.970  0.00  0.00    +0.000 A 
ATOM     14  C   UNL     1       3.686   3.543  18.015  0.00  0.00    +0.000 A 
ATOM     15  C   UNL     1       4.260   4.659  17.381  0.00  0.00    +0.000 A 
ATOM     16  C   UNL     1       3.708   5.916  17.701  0.00  0.00    +0.000 A 
BRANCH  15  17
ATOM     17  C   UNL     1       5.511   4.531  16.394  0.00  0.00    +0.000 C 
ATOM     18  C   UNL     1       5.463   3.473  15.249  0.00  0.00    +0.000 C 
ATOM     19  O   UNL     1       5.933   4.462  14.289  0.00  0.00    +0.000 OA
ATOM     20  C   UNL     1       5.497   5.513  15.186  0.00  0.00    +0.000 C 
BRANCH  17  21
ATOM     21  C   UNL     1       6.847   4.539  17.156  0.00  0.00    +0.000 C 
BRANCH  21  22
ATOM     22  C   UNL     1       7.355   5.916  17.443  0.00  0.00    +0.000 A 
ATOM     23  N   UNL     1       7.440   6.906  16.575  0.00  0.00    +0.000 NA
ATOM     24  N   UNL     1       7.917   8.016  17.230  0.00  0.00    +0.000 NA
ATOM     25  C   UNL     1       8.111   7.684  18.483  0.00  0.00    +0.000 A 
ATOM     26  N   UNL     1       7.798   6.369  18.658  0.00  0.00    +0.000 N 
ATOM     27  C   UNL     1       7.912   5.646  19.894  0.00  0.00    +0.000 C 
ENDBRANCH  21  22
ENDBRANCH  17  21
ENDBRANCH  15  17
ENDBRANCH   8  11
BRANCH   5  28
ATOM     28  C   UNL     1       0.071   9.511  22.368  0.00  0.00    +0.000 C 
ATOM     29  F   UNL     1       1.128   9.173  23.155  0.00  0.00    +0.000 F 
ATOM     30  F   UNL     1      -0.587  10.499  23.033  0.00  0.00    +0.000 F 
ATOM     31  F   UNL     1      -0.761   8.434  22.375  0.00  0.00    +0.000 F 
ENDBRANCH   5  28
BRANCH   1  32
ATOM     32  C   UNL     1      -0.043  12.954  18.646  0.00  0.00    +0.000 C 
BRANCH  32  37
ATOM     33  C   UNL     1       2.376  15.822  19.284  0.00  0.00    +0.000 C 
ATOM     34  C   UNL     1       1.372  16.974  19.310  0.00  0.00    +0.000 C 
ATOM     35  C   UNL     1       0.009  16.574  19.858  0.00  0.00    +0.000 C 
ATOM     36  C   UNL     1      -0.512  15.256  19.274  0.00  0.00    +0.000 C 
ATOM     37  N   UNL     1       0.451  14.154  19.341  0.00  0.00    +0.000 NA
ATOM     38  C   UNL     1       1.744  14.533  18.728  0.00  0.00    +0.000 C 
BRANCH  33  40
ATOM     39  C   UNL     1       4.438  15.138  20.386  0.00  0.00    +0.000 C 
ATOM     40  O   UNL     1       3.118  15.641  20.494  0.00  0.00    +0.000 OA
ENDBRANCH  33  40
ENDBRANCH  32  37
ENDBRANCH   1  32
TORSDOF 8
ENDMDL
MODEL 4
REMARK VINA RESULT:      -8.9      2.731      3.566
REMARK  Name = 
REMARK  10 active torsions:
REMARK  status: ('A' for Active; 'I' for Inactive)
REMARK    1  A    between atoms: C_1  and  O_2
REMARK    2  A    between atoms: O_2  and  C_3
REMARK    3  A    between atoms: N_7  and  C_8
REMARK    4  A    between atoms: C_8  and  C_9
REMARK    5  A    between atoms: C_13  and  C_14
REMARK    6  A    between atoms: N_20  and  C_21
REMARK    7  A    between atoms: C_25  and  C_26
REMARK    8  A    between atoms: C_26  and  C_27
REMARK    9  A    between atoms: C_27  and  C_28
REMARK   10  A    between atoms: N_32  and  C_33
REMARK                            x       y       z     vdW  Elec       q    Type
REMARK                         _______ _______ _______ _____ _____    ______ ____
ROOT
ATOM      1  C   UNL     1      -0.154  12.039  19.705  0.00  0.00    +0.000 A 
ATOM      2  C   UNL     1       0.703  11.416  18.794  0.00  0.00    +0.000 A 
ATOM      3  C   UNL     1       1.160  10.155  19.110  0.00  0.00    +0.000 A 
ATOM      4  C   UNL     1       0.846   9.507  20.301  0.00  0.00    +0.000 A 
ATOM      5  C   UNL     1       0.086  10.145  21.274  0.00  0.00    +0.000 A 
ATOM      6  C   UNL     1      -0.432  11.412  20.945  0.00  0.00    +0.000 A 
ATOM      7  C   UNL     1       1.378   8.114  20.262  0.00  0.00    +0.000 C 
ATOM      8  N   UNL     1       2.021   8.035  18.955  0.00  0.00    +0.000 N 
ATOM      9  C   UNL     1       1.935   9.243  18.265  0.00  0.00    +0.000 C 
ATOM     10  O   UNL     1       2.337   9.569  17.162  0.00  0.00    +0.000 OA
ENDROOT
BRANCH   8  11
ATOM     11  C   UNL     1       2.592   6.836  18.466  0.00  0.00    +0.000 A 
ATOM     12  C   UNL     1       1.835   5.676  18.299  0.00  0.00    +0.000 A 
ATOM     13  C   UNL     1       2.419   4.510  17.810  0.00  0.00    +0.000 A 
ATOM     14  C   UNL     1       3.784   4.478  17.531  0.00  0.00    +0.000 A 
ATOM     15  C   UNL     1       4.605   5.600  17.738  0.00  0.00    +0.000 A 
ATOM     16  C   UNL     1       3.961   6.780  18.161  0.00  0.00    +0.000 A 
BRANCH  15  17
ATOM     17  C   UNL     1       6.194   5.540  17.565  0.00  0.00    +0.000 C 
ATOM     18  C   UNL     1       6.968   6.857  17.256  0.00  0.00    +0.000 C 
ATOM     19  O   UNL     1       7.955   6.539  18.279  0.00  0.00    +0.000 OA
ATOM     20  C   UNL     1       7.001   5.635  18.892  0.00  0.00    +0.000 C 
BRANCH  17  21
ATOM     21  C   UNL     1       6.630   4.358  16.682  0.00  0.00    +0.000 C 
BRANCH  21  22
ATOM     22  C   UNL     1       6.991   4.763  15.289  0.00  0.00    +0.000 A 
ATOM     23  N   UNL     1       8.041   5.480  14.937  0.00  0.00    +0.000 NA
ATOM     24  N   UNL     1       8.043   5.605  13.569  0.00  0.00    +0.000 NA
ATOM     25  C   UNL     1       6.997   4.960  13.111  0.00  0.00    +0.000 A 
ATOM     26  N   UNL     1       6.292   4.438  14.155  0.00  0.00    +0.000 N 
ATOM     27  C   UNL     1       5.071   3.691  14.041  0.00  0.00    +0.000 C 
ENDBRANCH  21  22
ENDBRANCH  17  21
ENDBRANCH  15  17
ENDBRANCH   8  11
BRANCH   5  28
ATOM     28  C   UNL     1      -0.197   9.537  22.622  0.00  0.00    +0.000 C 
ATOM     29  F   UNL     1      -0.956  10.325  23.429  0.00  0.00    +0.000 F 
ATOM     30  F   UNL     1      -0.866   8.355  22.521  0.00  0.00    +0.000 F 
ATOM     31  F   UNL     1       0.939   9.267  23.321  0.00  0.00    +0.000 F 
ENDBRANCH   5  28
BRANCH   1  32
ATOM     32  C   UNL     1      -0.826  13.341  19.328  0.00  0.00    +0.000 C 
BRANCH  32  37
ATOM     33  C   UNL     1       0.082  17.034  19.182  0.00  0.00    +0.000 C 
ATOM     34  C   UNL     1       1.235  17.032  20.185  0.00  0.00    +0.000 C 
ATOM     35  C   UNL     1       2.024  15.729  20.193  0.00  0.00    +0.000 C 
ATOM     36  C   UNL     1       1.131  14.483  20.211  0.00  0.00    +0.000 C 
ATOM     37  N   UNL     1       0.088  14.486  19.182  0.00  0.00    +0.000 NA
ATOM     38  C   UNL     1      -0.724  15.724  19.243  0.00  0.00    +0.000 C 
BRANCH  33  40
ATOM     39  C   UNL     1      -0.474  18.294  17.173  0.00  0.00    +0.000 C 
ATOM     40  O   UNL     1       0.434  17.450  17.859  0.00  0.00    +0.000 OA
ENDBRANCH  33  40
ENDBRANCH  32  37
ENDBRANCH   1  32
TORSDOF 8
ENDMDL
MODEL 5
REMARK VINA RESULT:      -8.7      3.098      4.360
REMARK  Name = 
REMARK  10 active torsions:
REMARK  status: ('A' for Active; 'I' for Inactive)
REMARK    1  A    between atoms: C_1  and  O_2
REMARK    2  A    between atoms: O_2  and  C_3
REMARK    3  A    between atoms: N_7  and  C_8
REMARK    4  A    between atoms: C_8  and  C_9
REMARK    5  A    between atoms: C_13  and  C_14
REMARK    6  A    between atoms: N_20  and  C_21
REMARK    7  A    between atoms: C_25  and  C_26
REMARK    8  A    between atoms: C_26  and  C_27
REMARK    9  A    between atoms: C_27  and  C_28
REMARK   10  A    between atoms: N_32  and  C_33
REMARK                            x       y       z     vdW  Elec       q    Type
REMARK                         _______ _______ _______ _____ _____    ______ ____
ROOT
ATOM      1  C   UNL     1       0.277  11.689  19.395  0.00  0.00    +0.000 A 
ATOM      2  C   UNL     1       1.092  10.946  18.537  0.00  0.00    +0.000 A 
ATOM      3  C   UNL     1       1.456   9.680  18.942  0.00  0.00    +0.000 A 
ATOM      4  C   UNL     1       1.091   9.140  20.172  0.00  0.00    +0.000 A 
ATOM      5  C   UNL     1       0.375   9.895  21.092  0.00  0.00    +0.000 A 
ATOM      6  C   UNL     1      -0.050  11.170  20.672  0.00  0.00    +0.000 A 
ATOM      7  C   UNL     1       1.522   7.713  20.233  0.00  0.00    +0.000 C 
ATOM      8  N   UNL     1       2.164   7.499  18.940  0.00  0.00    +0.000 N 
ATOM      9  C   UNL     1       2.167   8.660  18.168  0.00  0.00    +0.000 C 
ATOM     10  O   UNL     1       2.596   8.880  17.050  0.00  0.00    +0.000 OA
ENDROOT
BRANCH   8  11
ATOM     11  C   UNL     1       2.650   6.232  18.539  0.00  0.00    +0.000 A 
ATOM     12  C   UNL     1       2.215   5.052  19.145  0.00  0.00    +0.000 A 
ATOM     13  C   UNL     1       2.704   3.817  18.728  0.00  0.00    +0.000 A 
ATOM     14  C   UNL     1       3.676   3.751  17.733  0.00  0.00    +0.000 A 
ATOM     15  C   UNL     1       4.194   4.912  17.131  0.00  0.00    +0.000 A 
ATOM     16  C   UNL     1       3.617   6.135  17.527  0.00  0.00    +0.000 A 
BRANCH  15  17
ATOM     17  C   UNL     1       5.412   4.866  16.096  0.00  0.00    +0.000 C 
ATOM     18  C   UNL     1       6.093   3.497  15.794  0.00  0.00    +0.000 C 
ATOM     19  O   UNL     1       6.045   3.767  14.364  0.00  0.00    +0.000 OA
ATOM     20  C   UNL     1       4.997   4.740  14.601  0.00  0.00    +0.000 C 
BRANCH  17  21
ATOM     21  C   UNL     1       6.418   6.003  16.344  0.00  0.00    +0.000 C 
BRANCH  21  22
ATOM     22  C   UNL     1       7.106   5.905  17.667  0.00  0.00    +0.000 A 
ATOM     23  N   UNL     1       7.166   4.831  18.432  0.00  0.00    +0.000 NA
ATOM     24  N   UNL     1       7.916   5.131  19.543  0.00  0.00    +0.000 NA
ATOM     25  C   UNL     1       8.302   6.380  19.435  0.00  0.00    +0.000 A 
ATOM     26  N   UNL     1       7.795   6.914  18.288  0.00  0.00    +0.000 N 
ATOM     27  C   UNL     1       7.984   8.269  17.850  0.00  0.00    +0.000 C 
ENDBRANCH  21  22
ENDBRANCH  17  21
ENDBRANCH  15  17
ENDBRANCH   8  11
BRANCH   5  28
ATOM     28  C   UNL     1       0.044   9.403  22.476  0.00  0.00    +0.000 C 
ATOM     29  F   UNL     1      -0.579  10.330  23.251  0.00  0.00    +0.000 F 
ATOM     30  F   UNL     1      -0.783   8.322  22.451  0.00  0.00    +0.000 F 
ATOM     31  F   UNL     1       1.148   9.014  23.170  0.00  0.00    +0.000 F 
ENDBRANCH   5  28
BRANCH   1  32
ATOM     32  C   UNL     1      -0.298  13.007  18.924  0.00  0.00    +0.000 C 
BRANCH  32  37
ATOM     33  C   UNL     1       2.201  15.862  19.224  0.00  0.00    +0.000 C 
ATOM     34  C   UNL     1       1.216  17.016  19.407  0.00  0.00    +0.000 C 
ATOM     35  C   UNL     1      -0.053  16.615  20.147  0.00  0.00    +0.000 C 
ATOM     36  C   UNL     1      -0.660  15.304  19.634  0.00  0.00    +0.000 C 
ATOM     37  N   UNL     1       0.298  14.199  19.549  0.00  0.00    +0.000 NA
ATOM     38  C   UNL     1       1.489  14.580  18.755  0.00  0.00    +0.000 C 
BRANCH  33  40
ATOM     39  C   UNL     1       3.123  14.398  20.940  0.00  0.00    +0.000 C 
ATOM     40  O   UNL     1       3.112  15.668  20.310  0.00  0.00    +0.000 OA
ENDBRANCH  33  40
ENDBRANCH  32  37
ENDBRANCH   1  32
TORSDOF 8
ENDMDL
MODEL 6
REMARK VINA RESULT:      -8.6      2.629      3.766
REMARK  Name = 
REMARK  10 active torsions:
REMARK  status: ('A' for Active; 'I' for Inactive)
REMARK    1  A    between atoms: C_1  and  O_2
REMARK    2  A    between atoms: O_2  and  C_3
REMARK    3  A    between atoms: N_7  and  C_8
REMARK    4  A    between atoms: C_8  and  C_9
REMARK    5  A    between atoms: C_13  and  C_14
REMARK    6  A    between atoms: N_20  and  C_21
REMARK    7  A    between atoms: C_25  and  C_26
REMARK    8  A    between atoms: C_26  and  C_27
REMARK    9  A    between atoms: C_27  and  C_28
REMARK   10  A    between atoms: N_32  and  C_33
REMARK                            x       y       z     vdW  Elec       q    Type
REMARK                         _______ _______ _______ _____ _____    ______ ____
ROOT
ATOM      1  C   UNL     1      -0.195  11.934  19.718  0.00  0.00    +0.000 A 
ATOM      2  C   UNL     1       0.674  11.324  18.809  0.00  0.00    +0.000 A 
ATOM      3  C   UNL     1       1.147  10.068  19.124  0.00  0.00    +0.000 A 
ATOM      4  C   UNL     1       0.837   9.415  20.314  0.00  0.00    +0.000 A 
ATOM      5  C   UNL     1       0.067  10.041  21.285  0.00  0.00    +0.000 A 
ATOM      6  C   UNL     1      -0.468  11.301  20.956  0.00  0.00    +0.000 A 
ATOM      7  C   UNL     1       1.388   8.028  20.274  0.00  0.00    +0.000 C 
ATOM      8  N   UNL     1       2.036   7.960  18.969  0.00  0.00    +0.000 N 
ATOM      9  C   UNL     1       1.936   9.168  18.280  0.00  0.00    +0.000 C 
ATOM     10  O   UNL     1       2.336   9.501  17.179  0.00  0.00    +0.000 OA
ENDROOT
BRANCH   8  11
ATOM     11  C   UNL     1       2.625   6.770  18.480  0.00  0.00    +0.000 A 
ATOM     12  C   UNL     1       1.888   5.595  18.325  0.00  0.00    +0.000 A 
ATOM     13  C   UNL     1       2.489   4.438  17.836  0.00  0.00    +0.000 A 
ATOM     14  C   UNL     1       3.851   4.430  17.544  0.00  0.00    +0.000 A 
ATOM     15  C   UNL     1       4.653   5.567  17.739  0.00  0.00    +0.000 A 
ATOM     16  C   UNL     1       3.991   6.738  18.163  0.00  0.00    +0.000 A 
BRANCH  15  17
ATOM     17  C   UNL     1       6.241   5.535  17.552  0.00  0.00    +0.000 C 
ATOM     18  C   UNL     1       6.988   6.864  17.226  0.00  0.00    +0.000 C 
ATOM     19  O   UNL     1       7.990   6.572  18.242  0.00  0.00    +0.000 OA
ATOM     20  C   UNL     1       7.059   5.656  18.871  0.00  0.00    +0.000 C 
BRANCH  17  21
ATOM     21  C   UNL     1       6.692   4.355  16.674  0.00  0.00    +0.000 C 
BRANCH  21  22
ATOM     22  C   UNL     1       7.011   4.752  15.269  0.00  0.00    +0.000 A 
ATOM     23  N   UNL     1       8.024   5.507  14.888  0.00  0.00    +0.000 NA
ATOM     24  N   UNL     1       7.998   5.610  13.519  0.00  0.00    +0.000 NA
ATOM     25  C   UNL     1       6.972   4.915  13.089  0.00  0.00    +0.000 A 
ATOM     26  N   UNL     1       6.308   4.380  14.153  0.00  0.00    +0.000 N 
ATOM     27  C   UNL     1       5.118   3.581  14.071  0.00  0.00    +0.000 C 
ENDBRANCH  21  22
ENDBRANCH  17  21
ENDBRANCH  15  17
ENDBRANCH   8  11
BRANCH   5  28
ATOM     28  C   UNL     1      -0.212   9.427  22.632  0.00  0.00    +0.000 C 
ATOM     29  F   UNL     1      -0.936   8.277  22.569  0.00  0.00    +0.000 F 
ATOM     30  F   UNL     1       0.932   9.111  23.297  0.00  0.00    +0.000 F 
ATOM     31  F   UNL     1      -0.906  10.263  23.452  0.00  0.00    +0.000 F 
ENDBRANCH   5  28
BRANCH   1  32
ATOM     32  C   UNL     1      -0.882  13.228  19.341  0.00  0.00    +0.000 C 
BRANCH  32  37
ATOM     33  C   UNL     1       1.935  15.774  19.098  0.00  0.00    +0.000 C 
ATOM     34  C   UNL     1       1.094  17.047  19.011  0.00  0.00    +0.000 C 
ATOM     35  C   UNL     1      -0.214  16.959  19.786  0.00  0.00    +0.000 C 
ATOM     36  C   UNL     1      -0.971  15.649  19.545  0.00  0.00    +0.000 C 
ATOM     37  N   UNL     1      -0.150  14.448  19.717  0.00  0.00    +0.000 NA
ATOM     38  C   UNL     1       1.077  14.513  18.890  0.00  0.00    +0.000 C 
BRANCH  33  40
ATOM     39  C   UNL     1       4.182  16.027  20.007  0.00  0.00    +0.000 C 
ATOM     40  O   UNL     1       2.818  15.710  20.223  0.00  0.00    +0.000 OA
ENDBRANCH  33  40
ENDBRANCH  32  37
ENDBRANCH   1  32
TORSDOF 8
ENDMDL
MODEL 7
REMARK VINA RESULT:      -8.6      1.325      2.185
REMARK  Name = 
REMARK  10 active torsions:
REMARK  status: ('A' for Active; 'I' for Inactive)
REMARK    1  A    between atoms: C_1  and  O_2
REMARK    2  A    between atoms: O_2  and  C_3
REMARK    3  A    between atoms: N_7  and  C_8
REMARK    4  A    between atoms: C_8  and  C_9
REMARK    5  A    between atoms: C_13  and  C_14
REMARK    6  A    between atoms: N_20  and  C_21
REMARK    7  A    between atoms: C_25  and  C_26
REMARK    8  A    between atoms: C_26  and  C_27
REMARK    9  A    between atoms: C_27  and  C_28
REMARK   10  A    between atoms: N_32  and  C_33
REMARK                            x       y       z     vdW  Elec       q    Type
REMARK                         _______ _______ _______ _____ _____    ______ ____
ROOT
ATOM      1  C   UNL     1      -0.468  11.581  19.613  0.00  0.00    +0.000 A 
ATOM      2  C   UNL     1       0.386  10.944  18.709  0.00  0.00    +0.000 A 
ATOM      3  C   UNL     1       0.974   9.764  19.111  0.00  0.00    +0.000 A 
ATOM      4  C   UNL     1       0.792   9.216  20.378  0.00  0.00    +0.000 A 
ATOM      5  C   UNL     1       0.039   9.882  21.336  0.00  0.00    +0.000 A 
ATOM      6  C   UNL     1      -0.612  11.062  20.924  0.00  0.00    +0.000 A 
ATOM      7  C   UNL     1       1.445   7.876  20.435  0.00  0.00    +0.000 C 
ATOM      8  N   UNL     1       2.012   7.719  19.100  0.00  0.00    +0.000 N 
ATOM      9  C   UNL     1       1.775   8.840  18.305  0.00  0.00    +0.000 C 
ATOM     10  O   UNL     1       2.077   9.085  17.151  0.00  0.00    +0.000 OA
ENDROOT
BRANCH   8  11
ATOM     11  C   UNL     1       2.659   6.530  18.689  0.00  0.00    +0.000 A 
ATOM     12  C   UNL     1       2.120   5.270  18.954  0.00  0.00    +0.000 A 
ATOM     13  C   UNL     1       2.773   4.115  18.534  0.00  0.00    +0.000 A 
ATOM     14  C   UNL     1       4.003   4.205  17.887  0.00  0.00    +0.000 A 
ATOM     15  C   UNL     1       4.621   5.444  17.648  0.00  0.00    +0.000 A 
ATOM     16  C   UNL     1       3.892   6.592  18.021  0.00  0.00    +0.000 A 
BRANCH  15  17
ATOM     17  C   UNL     1       6.097   5.561  17.043  0.00  0.00    +0.000 C 
ATOM     18  C   UNL     1       7.230   6.160  17.931  0.00  0.00    +0.000 C 
ATOM     19  O   UNL     1       8.121   5.069  17.563  0.00  0.00    +0.000 OA
ATOM     20  C   UNL     1       6.967   4.278  17.185  0.00  0.00    +0.000 C 
BRANCH  17  21
ATOM     21  C   UNL     1       6.087   6.122  15.611  0.00  0.00    +0.000 C 
BRANCH  21  22
ATOM     22  C   UNL     1       6.062   5.059  14.561  0.00  0.00    +0.000 A 
ATOM     23  N   UNL     1       5.132   4.135  14.414  0.00  0.00    +0.000 NA
ATOM     24  N   UNL     1       5.446   3.373  13.316  0.00  0.00    +0.000 NA
ATOM     25  C   UNL     1       6.560   3.846  12.811  0.00  0.00    +0.000 A 
ATOM     26  N   UNL     1       6.999   4.887  13.574  0.00  0.00    +0.000 N 
ATOM     27  C   UNL     1       8.202   5.635  13.343  0.00  0.00    +0.000 C 
ENDBRANCH  21  22
ENDBRANCH  17  21
ENDBRANCH  15  17
ENDBRANCH   8  11
BRANCH   5  28
ATOM     28  C   UNL     1      -0.105   9.392  22.752  0.00  0.00    +0.000 C 
ATOM     29  F   UNL     1       1.081   9.148  23.370  0.00  0.00    +0.000 F 
ATOM     30  F   UNL     1      -0.758  10.290  23.541  0.00  0.00    +0.000 F 
ATOM     31  F   UNL     1      -0.816   8.235  22.834  0.00  0.00    +0.000 F 
ENDBRANCH   5  28
BRANCH   1  32
ATOM     32  C   UNL     1      -1.276  12.777  19.161  0.00  0.00    +0.000 C 
BRANCH  32  37
ATOM     33  C   UNL     1      -3.909  10.554  17.545  0.00  0.00    +0.000 C 
ATOM     34  C   UNL     1      -5.025  10.725  18.576  0.00  0.00    +0.000 C 
ATOM     35  C   UNL     1      -5.032  12.099  19.234  0.00  0.00    +0.000 C 
ATOM     36  C   UNL     1      -3.641  12.559  19.683  0.00  0.00    +0.000 C 
ATOM     37  N   UNL     1      -2.616  12.456  18.642  0.00  0.00    +0.000 NA
ATOM     38  C   UNL     1      -2.565  11.090  18.071  0.00  0.00    +0.000 C 
BRANCH  33  40
ATOM     39  C   UNL     1      -3.233  10.887  15.228  0.00  0.00    +0.000 C 
ATOM     40  O   UNL     1      -4.239  10.986  16.221  0.00  0.00    +0.000 OA
ENDBRANCH  33  40
ENDBRANCH  32  37
ENDBRANCH   1  32
TORSDOF 8
ENDMDL
MODEL 8
REMARK VINA RESULT:      -8.6      1.374      1.973
REMARK  Name = 
REMARK  10 active torsions:
REMARK  status: ('A' for Active; 'I' for Inactive)
REMARK    1  A    between atoms: C_1  and  O_2
REMARK    2  A    between atoms: O_2  and  C_3
REMARK    3  A    between atoms: N_7  and  C_8
REMARK    4  A    between atoms: C_8  and  C_9
REMARK    5  A    between atoms: C_13  and  C_14
REMARK    6  A    between atoms: N_20  and  C_21
REMARK    7  A    between atoms: C_25  and  C_26
REMARK    8  A    between atoms: C_26  and  C_27
REMARK    9  A    between atoms: C_27  and  C_28
REMARK   10  A    between atoms: N_32  and  C_33
REMARK                            x       y       z     vdW  Elec       q    Type
REMARK                         _______ _______ _______ _____ _____    ______ ____
ROOT
ATOM      1  C   UNL     1       0.053  11.802  19.692  0.00  0.00    +0.000 A 
ATOM      2  C   UNL     1       0.839  11.142  18.743  0.00  0.00    +0.000 A 
ATOM      3  C   UNL     1       1.261   9.865  19.043  0.00  0.00    +0.000 A 
ATOM      4  C   UNL     1       0.983   9.235  20.253  0.00  0.00    +0.000 A 
ATOM      5  C   UNL     1       0.299   9.906  21.259  0.00  0.00    +0.000 A 
ATOM      6  C   UNL     1      -0.185  11.192  20.948  0.00  0.00    +0.000 A 
ATOM      7  C   UNL     1       1.457   7.822  20.195  0.00  0.00    +0.000 C 
ATOM      8  N   UNL     1       2.029   7.712  18.858  0.00  0.00    +0.000 N 
ATOM      9  C   UNL     1       1.955   8.919  18.165  0.00  0.00    +0.000 C 
ATOM     10  O   UNL     1       2.313   9.225  17.042  0.00  0.00    +0.000 OA
ENDROOT
BRANCH   8  11
ATOM     11  C   UNL     1       2.527   6.490  18.348  0.00  0.00    +0.000 A 
ATOM     12  C   UNL     1       1.743   5.335  18.309  0.00  0.00    +0.000 A 
ATOM     13  C   UNL     1       2.255   4.146  17.796  0.00  0.00    +0.000 A 
ATOM     14  C   UNL     1       3.577   4.085  17.364  0.00  0.00    +0.000 A 
ATOM     15  C   UNL     1       4.429   5.200  17.437  0.00  0.00    +0.000 A 
ATOM     16  C   UNL     1       3.851   6.403  17.891  0.00  0.00    +0.000 A 
BRANCH  15  17
ATOM     17  C   UNL     1       5.987   5.110  17.087  0.00  0.00    +0.000 C 
ATOM     18  C   UNL     1       6.786   6.431  16.862  0.00  0.00    +0.000 C 
ATOM     19  O   UNL     1       7.857   5.950  17.724  0.00  0.00    +0.000 OA
ATOM     20  C   UNL     1       6.931   5.008  18.320  0.00  0.00    +0.000 C 
BRANCH  17  21
ATOM     21  C   UNL     1       6.274   4.039  16.021  0.00  0.00    +0.000 C 
BRANCH  21  22
ATOM     22  C   UNL     1       6.882   4.594  14.774  0.00  0.00    +0.000 A 
ATOM     23  N   UNL     1       7.893   5.440  14.714  0.00  0.00    +0.000 NA
ATOM     24  N   UNL     1       8.181   5.680  13.393  0.00  0.00    +0.000 NA
ATOM     25  C   UNL     1       7.344   4.976  12.671  0.00  0.00    +0.000 A 
ATOM     26  N   UNL     1       6.492   4.300  13.493  0.00  0.00    +0.000 N 
ATOM     27  C   UNL     1       5.421   3.447  13.058  0.00  0.00    +0.000 C 
ENDBRANCH  21  22
ENDBRANCH  17  21
ENDBRANCH  15  17
ENDBRANCH   8  11
BRANCH   5  28
ATOM     28  C   UNL     1       0.062   9.316  22.624  0.00  0.00    +0.000 C 
ATOM     29  F   UNL     1      -0.669   8.169  22.603  0.00  0.00    +0.000 F 
ATOM     30  F   UNL     1       1.226   9.005  23.257  0.00  0.00    +0.000 F 
ATOM     31  F   UNL     1      -0.601  10.168  23.452  0.00  0.00    +0.000 F 
ENDBRANCH   5  28
BRANCH   1  32
ATOM     32  C   UNL     1      -0.584  13.128  19.341  0.00  0.00    +0.000 C 
BRANCH  32  37
ATOM     33  C   UNL     1      -3.928  11.476  18.583  0.00  0.00    +0.000 C 
ATOM     34  C   UNL     1      -4.693  11.911  19.832  0.00  0.00    +0.000 C 
ATOM     35  C   UNL     1      -4.260  13.272  20.360  0.00  0.00    +0.000 C 
ATOM     36  C   UNL     1      -2.738  13.437  20.427  0.00  0.00    +0.000 C 
ATOM     37  N   UNL     1      -2.047  13.087  19.184  0.00  0.00    +0.000 NA
ATOM     38  C   UNL     1      -2.415  11.726  18.729  0.00  0.00    +0.000 C 
BRANCH  33  40
ATOM     39  C   UNL     1      -4.080  11.267  16.161  0.00  0.00    +0.000 C 
ATOM     40  O   UNL     1      -4.484  11.930  17.345  0.00  0.00    +0.000 OA
ENDBRANCH  33  40
ENDBRANCH  32  37
ENDBRANCH   1  32
TORSDOF 8
ENDMDL
MODEL 9
REMARK VINA RESULT:      -8.6      1.869      2.402
REMARK  Name = 
REMARK  10 active torsions:
REMARK  status: ('A' for Active; 'I' for Inactive)
REMARK    1  A    between atoms: C_1  and  O_2
REMARK    2  A    between atoms: O_2  and  C_3
REMARK    3  A    between atoms: N_7  and  C_8
REMARK    4  A    between atoms: C_8  and  C_9
REMARK    5  A    between atoms: C_13  and  C_14
REMARK    6  A    between atoms: N_20  and  C_21
REMARK    7  A    between atoms: C_25  and  C_26
REMARK    8  A    between atoms: C_26  and  C_27
REMARK    9  A    between atoms: C_27  and  C_28
REMARK   10  A    between atoms: N_32  and  C_33
REMARK                            x       y       z     vdW  Elec       q    Type
REMARK                         _______ _______ _______ _____ _____    ______ ____
ROOT
ATOM      1  C   UNL     1      -0.213  11.915  19.925  0.00  0.00    +0.000 A 
ATOM      2  C   UNL     1       0.581  11.314  18.944  0.00  0.00    +0.000 A 
ATOM      3  C   UNL     1       1.095  10.065  19.219  0.00  0.00    +0.000 A 
ATOM      4  C   UNL     1       0.897   9.410  20.431  0.00  0.00    +0.000 A 
ATOM      5  C   UNL     1       0.206  10.029  21.465  0.00  0.00    +0.000 A 
ATOM      6  C   UNL     1      -0.370  11.282  21.182  0.00  0.00    +0.000 A 
ATOM      7  C   UNL     1       1.459   8.031  20.346  0.00  0.00    +0.000 C 
ATOM      8  N   UNL     1       1.993   7.968  18.989  0.00  0.00    +0.000 N 
ATOM      9  C   UNL     1       1.819   9.173  18.310  0.00  0.00    +0.000 C 
ATOM     10  O   UNL     1       2.118   9.508  17.179  0.00  0.00    +0.000 OA
ENDROOT
BRANCH   8  11
ATOM     11  C   UNL     1       2.552   6.784  18.452  0.00  0.00    +0.000 A 
ATOM     12  C   UNL     1       1.789   5.630  18.265  0.00  0.00    +0.000 A 
ATOM     13  C   UNL     1       2.360   4.479  17.728  0.00  0.00    +0.000 A 
ATOM     14  C   UNL     1       3.719   4.453  17.421  0.00  0.00    +0.000 A 
ATOM     15  C   UNL     1       4.547   5.567  17.646  0.00  0.00    +0.000 A 
ATOM     16  C   UNL     1       3.914   6.735  18.118  0.00  0.00    +0.000 A 
BRANCH  15  17
ATOM     17  C   UNL     1       6.131   5.509  17.440  0.00  0.00    +0.000 C 
ATOM     18  C   UNL     1       6.899   6.829  17.123  0.00  0.00    +0.000 C 
ATOM     19  O   UNL     1       7.906   6.506  18.123  0.00  0.00    +0.000 OA
ATOM     20  C   UNL     1       6.966   5.598  18.751  0.00  0.00    +0.000 C 
BRANCH  17  21
ATOM     21  C   UNL     1       6.551   4.332  16.543  0.00  0.00    +0.000 C 
BRANCH  21  22
ATOM     22  C   UNL     1       7.013   4.760  15.187  0.00  0.00    +0.000 A 
ATOM     23  N   UNL     1       8.073   5.501  14.927  0.00  0.00    +0.000 NA
ATOM     24  N   UNL     1       8.181   5.641  13.565  0.00  0.00    +0.000 NA
ATOM     25  C   UNL     1       7.189   4.981  13.018  0.00  0.00    +0.000 A 
ATOM     26  N   UNL     1       6.414   4.434  13.997  0.00  0.00    +0.000 N 
ATOM     27  C   UNL     1       5.222   3.664  13.778  0.00  0.00    +0.000 C 
ENDBRANCH  21  22
ENDBRANCH  17  21
ENDBRANCH  15  17
ENDBRANCH   8  11
BRANCH   5  28
ATOM     28  C   UNL     1       0.052   9.414  22.831  0.00  0.00    +0.000 C 
ATOM     29  F   UNL     1       1.233   9.196  23.469  0.00  0.00    +0.000 F 
ATOM     30  F   UNL     1      -0.682  10.200  23.666  0.00  0.00    +0.000 F 
ATOM     31  F   UNL     1      -0.582   8.211  22.793  0.00  0.00    +0.000 F 
ENDBRANCH   5  28
BRANCH   1  32
ATOM     32  C   UNL     1      -0.947  13.200  19.607  0.00  0.00    +0.000 C 
BRANCH  32  37
ATOM     33  C   UNL     1      -3.206  15.576  21.538  0.00  0.00    +0.000 C 
ATOM     34  C   UNL     1      -4.555  14.945  21.198  0.00  0.00    +0.000 C 
ATOM     35  C   UNL     1      -4.486  13.434  21.018  0.00  0.00    +0.000 C 
ATOM     36  C   UNL     1      -3.308  12.985  20.146  0.00  0.00    +0.000 C 
ATOM     37  N   UNL     1      -2.018  13.549  20.554  0.00  0.00    +0.000 NA
ATOM     38  C   UNL     1      -2.081  15.026  20.642  0.00  0.00    +0.000 C 
BRANCH  33  40
ATOM     39  C   UNL     1      -1.732  14.908  23.359  0.00  0.00    +0.000 C 
ATOM     40  O   UNL     1      -2.888  15.607  22.933  0.00  0.00    +0.000 OA
ENDBRANCH  33  40
ENDBRANCH  32  37
ENDBRANCH   1  32
TORSDOF 8
ENDMDL
