MODEL 1
REMARK VINA RESULT:     -10.5      0.000      0.000
REMARK  Name = 
REMARK  9 active torsions:
REMARK  status: ('A' for Active; 'I' for Inactive)
REMARK    1  A    between atoms: C_1  and  N_2
REMARK    2  A    between atoms: C_6  and  C_7
REMARK    3  A    between atoms: C_7  and  C_10
REMARK    4  A    between atoms: C_10  and  C_11
REMARK    5  A    between atoms: C_10  and  C_13
REMARK    6  A    between atoms: C_17  and  N_18
REMARK    7  A    between atoms: C_23  and  C_24
REMARK    8  A    between atoms: C_24  and  N_25
REMARK    9  A    between atoms: C_32  and  C_33
REMARK                            x       y       z     vdW  Elec       q    Type
REMARK                         _______ _______ _______ _____ _____    ______ ____
ROOT
ATOM      1  N   UNL     1       2.410   7.239  19.155  0.00  0.00    +0.000 N 
ATOM      2  C   UNL     1       1.717   7.632  20.358  0.00  0.00    +0.000 C 
ATOM      3  C   UNL     1       1.030   8.891  20.009  0.00  0.00    +0.000 A 
ATOM      4  C   UNL     1       1.288   9.233  18.680  0.00  0.00    +0.000 A 
ATOM      5  C   UNL     1       0.721  10.382  18.136  0.00  0.00    +0.000 A 
ATOM      6  C   UNL     1      -0.095  11.196  18.966  0.00  0.00    +0.000 A 
ATOM      7  C   UNL     1      -0.306  10.825  20.318  0.00  0.00    +0.000 A 
ATOM      8  C   UNL     1       0.244   9.661  20.858  0.00  0.00    +0.000 A 
ATOM      9  C   UNL     1       2.187   8.161  18.116  0.00  0.00    +0.000 C 
ATOM     10  O   UNL     1       2.605   8.173  16.973  0.00  0.00    +0.000 OA
ENDROOT
BRANCH   1  15
ATOM     11  C   UNL     1       5.282   4.968  18.279  0.00  0.00    +0.000 A 
ATOM     12  C   UNL     1       4.980   3.840  19.045  0.00  0.00    +0.000 A 
ATOM     13  C   UNL     1       3.856   3.847  19.895  0.00  0.00    +0.000 A 
ATOM     14  C   UNL     1       2.991   4.957  19.967  0.00  0.00    +0.000 A 
ATOM     15  C   UNL     1       3.268   6.099  19.224  0.00  0.00    +0.000 A 
ATOM     16  C   UNL     1       4.449   6.087  18.438  0.00  0.00    +0.000 A 
BRANCH  11  17
ATOM     17  C   UNL     1       6.319   4.989  17.128  0.00  0.00    +0.000 C 
ATOM     18  C   UNL     1       6.706   6.466  16.932  0.00  0.00    +0.000 C 
ATOM     19  F   UNL     1       7.493   4.366  17.528  0.00  0.00    +0.000 F 
BRANCH  17  20
ATOM     20  C   UNL     1       5.899   4.291  15.796  0.00  0.00    +0.000 C 
ATOM     21  F   UNL     1       4.585   4.551  15.533  0.00  0.00    +0.000 F 
ATOM     22  F   UNL     1       5.970   2.935  15.959  0.00  0.00    +0.000 F 
BRANCH  20  28
ATOM     23  C   UNL     1       5.622   3.491  12.686  0.00  0.00    +0.000 C 
ATOM     24  N   UNL     1       6.614   4.321  13.312  0.00  0.00    +0.000 N 
ATOM     25  C   UNL     1       7.664   4.888  12.643  0.00  0.00    +0.000 A 
ATOM     26  N   UNL     1       8.353   5.645  13.461  0.00  0.00    +0.000 NA
ATOM     27  N   UNL     1       7.766   5.555  14.694  0.00  0.00    +0.000 NA
ATOM     28  C   UNL     1       6.733   4.729  14.618  0.00  0.00    +0.000 A 
ENDBRANCH  20  28
ENDBRANCH  17  20
ENDBRANCH  11  17
ENDBRANCH   1  15
BRANCH   8  29
ATOM     29  C   UNL     1      -0.025   9.266  22.287  0.00  0.00    +0.000 C 
ATOM     30  F   UNL     1       1.101   8.976  22.998  0.00  0.00    +0.000 F 
ATOM     31  F   UNL     1      -0.658  10.239  22.993  0.00  0.00    +0.000 F 
ATOM     32  F   UNL     1      -0.804   8.155  22.377  0.00  0.00    +0.000 F 
ENDBRANCH   8  29
BRANCH   6  33
ATOM     33  C   UNL     1      -0.854  12.414  18.450  0.00  0.00    +0.000 C 
BRANCH  33  34
ATOM     34  N   UNL     1      -2.115  12.081  17.770  0.00  0.00    +0.000 NA
ATOM     35  C   UNL     1      -2.013  10.954  16.835  0.00  0.00    +0.000 C 
ATOM     36  C   UNL     1      -2.958   9.862  17.315  0.00  0.00    +0.000 C 
ATOM     37  C   UNL     1      -3.963  10.579  18.181  0.00  0.00    +0.000 C 
ATOM     38  F   UNL     1      -5.014  10.977  17.414  0.00  0.00    +0.000 F 
ATOM     39  C   UNL     1      -3.216  11.795  18.709  0.00  0.00    +0.000 C 
ENDBRANCH  33  34
ENDBRANCH   6  33
TORSDOF 7
ENDMDL
MODEL 2
REMARK VINA RESULT:     -10.5      2.360      3.521
REMARK  Name = 
REMARK  9 active torsions:
REMARK  status: ('A' for Active; 'I' for Inactive)
REMARK    1  A    between atoms: C_1  and  N_2
REMARK    2  A    between atoms: C_6  and  C_7
REMARK    3  A    between atoms: C_7  and  C_10
REMARK    4  A    between atoms: C_10  and  C_11
REMARK    5  A    between atoms: C_10  and  C_13
REMARK    6  A    between atoms: C_17  and  N_18
REMARK    7  A    between atoms: C_23  and  C_24
REMARK    8  A    between atoms: C_24  and  N_25
REMARK    9  A    between atoms: C_32  and  C_33
REMARK                            x       y       z     vdW  Elec       q    Type
REMARK                         _______ _______ _______ _____ _____    ______ ____
ROOT
ATOM      1  N   UNL     1       2.045   7.841  19.306  0.00  0.00    +0.000 N 
ATOM      2  C   UNL     1       1.399   8.126  20.565  0.00  0.00    +0.000 C 
ATOM      3  C   UNL     1       0.768   9.448  20.379  0.00  0.00    +0.000 A 
ATOM      4  C   UNL     1       1.012   9.927  19.091  0.00  0.00    +0.000 A 
ATOM      5  C   UNL     1       0.491  11.156  18.697  0.00  0.00    +0.000 A 
ATOM      6  C   UNL     1      -0.265  11.906  19.636  0.00  0.00    +0.000 A 
ATOM      7  C   UNL     1      -0.465  11.393  20.942  0.00  0.00    +0.000 A 
ATOM      8  C   UNL     1       0.039  10.150  21.332  0.00  0.00    +0.000 A 
ATOM      9  C   UNL     1       1.845   8.886  18.385  0.00  0.00    +0.000 C 
ATOM     10  O   UNL     1       2.238   9.010  17.240  0.00  0.00    +0.000 OA
ENDROOT
BRANCH   1  15
ATOM     11  C   UNL     1       4.535   5.403  17.883  0.00  0.00    +0.000 A 
ATOM     12  C   UNL     1       4.373   4.316  18.746  0.00  0.00    +0.000 A 
ATOM     13  C   UNL     1       3.481   4.405  19.832  0.00  0.00    +0.000 A 
ATOM     14  C   UNL     1       2.704   5.559  20.056  0.00  0.00    +0.000 A 
ATOM     15  C   UNL     1       2.847   6.662  19.222  0.00  0.00    +0.000 A 
ATOM     16  C   UNL     1       3.810   6.567  18.184  0.00  0.00    +0.000 A 
BRANCH  11  17
ATOM     17  C   UNL     1       5.274   5.335  16.523  0.00  0.00    +0.000 C 
ATOM     18  C   UNL     1       4.662   4.141  15.768  0.00  0.00    +0.000 C 
ATOM     19  F   UNL     1       4.956   6.443  15.750  0.00  0.00    +0.000 F 
BRANCH  17  20
ATOM     20  C   UNL     1       6.832   5.285  16.575  0.00  0.00    +0.000 C 
ATOM     21  F   UNL     1       7.336   5.233  15.308  0.00  0.00    +0.000 F 
ATOM     22  F   UNL     1       7.224   4.113  17.163  0.00  0.00    +0.000 F 
BRANCH  20  28
ATOM     23  C   UNL     1       7.966   5.482  19.587  0.00  0.00    +0.000 C 
ATOM     24  N   UNL     1       7.855   6.522  18.601  0.00  0.00    +0.000 N 
ATOM     25  C   UNL     1       8.200   7.826  18.831  0.00  0.00    +0.000 A 
ATOM     26  N   UNL     1       8.060   8.520  17.729  0.00  0.00    +0.000 NA
ATOM     27  N   UNL     1       7.590   7.670  16.765  0.00  0.00    +0.000 NA
ATOM     28  C   UNL     1       7.433   6.465  17.296  0.00  0.00    +0.000 A 
ENDBRANCH  20  28
ENDBRANCH  17  20
ENDBRANCH  11  17
ENDBRANCH   1  15
BRANCH   8  29
ATOM     29  C   UNL     1      -0.218   9.607  22.713  0.00  0.00    +0.000 C 
ATOM     30  F   UNL     1       0.918   9.333  23.416  0.00  0.00    +0.000 F 
ATOM     31  F   UNL     1      -0.927  10.465  23.493  0.00  0.00    +0.000 F 
ATOM     32  F   UNL     1      -0.916   8.441  22.687  0.00  0.00    +0.000 F 
ENDBRANCH   8  29
BRANCH   6  33
ATOM     33  C   UNL     1      -0.974  13.210  19.283  0.00  0.00    +0.000 C 
BRANCH  33  34
ATOM     34  N   UNL     1      -0.319  14.407  19.832  0.00  0.00    +0.000 NA
ATOM     35  C   UNL     1       0.666  15.018  18.933  0.00  0.00    +0.000 C 
ATOM     36  C   UNL     1       0.206  16.437  18.630  0.00  0.00    +0.000 C 
ATOM     37  C   UNL     1      -0.721  16.789  19.766  0.00  0.00    +0.000 C 
ATOM     38  F   UNL     1      -0.005  17.369  20.767  0.00  0.00    +0.000 F 
ATOM     39  C   UNL     1      -1.279  15.453  20.235  0.00  0.00    +0.000 C 
ENDBRANCH  33  34
ENDBRANCH   6  33
TORSDOF 7
ENDMDL
MODEL 3
REMARK VINA RESULT:     -10.4      1.757      2.719
REMARK  Name = 
REMARK  9 active torsions:
REMARK  status: ('A' for Active; 'I' for Inactive)
REMARK    1  A    between atoms: C_1  and  N_2
REMARK    2  A    between atoms: C_6  and  C_7
REMARK    3  A    between atoms: C_7  and  C_10
REMARK    4  A    between atoms: C_10  and  C_11
REMARK    5  A    between atoms: C_10  and  C_13
REMARK    6  A    between atoms: C_17  and  N_18
REMARK    7  A    between atoms: C_23  and  C_24
REMARK    8  A    between atoms: C_24  and  N_25
REMARK    9  A    between atoms: C_32  and  C_33
REMARK                            x       y       z     vdW  Elec       q    Type
REMARK                         _______ _______ _______ _____ _____    ______ ____
ROOT
ATOM      1  N   UNL     1       2.355   7.348  19.177  0.00  0.00    +0.000 N 
ATOM      2  C   UNL     1       1.652   7.731  20.378  0.00  0.00    +0.000 C 
ATOM      3  C   UNL     1       1.072   9.054  20.076  0.00  0.00    +0.000 A 
ATOM      4  C   UNL     1       1.400   9.443  18.775  0.00  0.00    +0.000 A 
ATOM      5  C   UNL     1       0.938  10.658  18.277  0.00  0.00    +0.000 A 
ATOM      6  C   UNL     1       0.156  11.486  19.124  0.00  0.00    +0.000 A 
ATOM      7  C   UNL     1      -0.129  11.064  20.446  0.00  0.00    +0.000 A 
ATOM      8  C   UNL     1       0.315   9.836  20.940  0.00  0.00    +0.000 A 
ATOM      9  C   UNL     1       2.237   8.337  18.183  0.00  0.00    +0.000 C 
ATOM     10  O   UNL     1       2.694   8.376  17.056  0.00  0.00    +0.000 OA
ENDROOT
BRANCH   1  15
ATOM     11  C   UNL     1       5.098   4.927  18.290  0.00  0.00    +0.000 A 
ATOM     12  C   UNL     1       4.676   3.780  18.966  0.00  0.00    +0.000 A 
ATOM     13  C   UNL     1       3.514   3.818  19.761  0.00  0.00    +0.000 A 
ATOM     14  C   UNL     1       2.728   4.983  19.865  0.00  0.00    +0.000 A 
ATOM     15  C   UNL     1       3.124   6.145  19.212  0.00  0.00    +0.000 A 
ATOM     16  C   UNL     1       4.341   6.093  18.482  0.00  0.00    +0.000 A 
BRANCH  11  17
ATOM     17  C   UNL     1       6.191   4.941  17.192  0.00  0.00    +0.000 C 
ATOM     18  C   UNL     1       6.610   6.413  17.029  0.00  0.00    +0.000 C 
ATOM     19  F   UNL     1       7.334   4.297  17.645  0.00  0.00    +0.000 F 
BRANCH  17  20
ATOM     20  C   UNL     1       5.828   4.261  15.835  0.00  0.00    +0.000 C 
ATOM     21  F   UNL     1       4.523   4.514  15.526  0.00  0.00    +0.000 F 
ATOM     22  F   UNL     1       5.904   2.903  15.979  0.00  0.00    +0.000 F 
BRANCH  20  28
ATOM     23  C   UNL     1       5.692   3.486  12.709  0.00  0.00    +0.000 C 
ATOM     24  N   UNL     1       6.644   4.326  13.383  0.00  0.00    +0.000 N 
ATOM     25  C   UNL     1       7.710   4.917  12.762  0.00  0.00    +0.000 A 
ATOM     26  N   UNL     1       8.352   5.677  13.615  0.00  0.00    +0.000 NA
ATOM     27  N   UNL     1       7.717   5.566  14.822  0.00  0.00    +0.000 NA
ATOM     28  C   UNL     1       6.702   4.723  14.696  0.00  0.00    +0.000 A 
ENDBRANCH  20  28
ENDBRANCH  17  20
ENDBRANCH  11  17
ENDBRANCH   1  15
BRANCH   8  29
ATOM     29  C   UNL     1      -0.032   9.390  22.336  0.00  0.00    +0.000 C 
ATOM     30  F   UNL     1      -0.734  10.315  23.050  0.00  0.00    +0.000 F 
ATOM     31  F   UNL     1      -0.792   8.264  22.357  0.00  0.00    +0.000 F 
ATOM     32  F   UNL     1       1.073   9.123  23.082  0.00  0.00    +0.000 F 
ENDBRANCH   8  29
BRANCH   6  33
ATOM     33  C   UNL     1      -0.493  12.784  18.650  0.00  0.00    +0.000 C 
BRANCH  33  34
ATOM     34  N   UNL     1       0.359  13.969  18.826  0.00  0.00    +0.000 NA
ATOM     35  C   UNL     1       0.305  14.554  20.171  0.00  0.00    +0.000 C 
ATOM     36  C   UNL     1       1.706  14.496  20.762  0.00  0.00    +0.000 C 
ATOM     37  C   UNL     1       2.621  14.385  19.569  0.00  0.00    +0.000 C 
ATOM     38  F   UNL     1       2.981  15.632  19.161  0.00  0.00    +0.000 F 
ATOM     39  C   UNL     1       1.774  13.713  18.497  0.00  0.00    +0.000 C 
ENDBRANCH  33  34
ENDBRANCH   6  33
TORSDOF 7
ENDMDL
MODEL 4
REMARK VINA RESULT:     -10.4      3.046      9.710
REMARK  Name = 
REMARK  9 active torsions:
REMARK  status: ('A' for Active; 'I' for Inactive)
REMARK    1  A    between atoms: C_1  and  N_2
REMARK    2  A    between atoms: C_6  and  C_7
REMARK    3  A    between atoms: C_7  and  C_10
REMARK    4  A    between atoms: C_10  and  C_11
REMARK    5  A    between atoms: C_10  and  C_13
REMARK    6  A    between atoms: C_17  and  N_18
REMARK    7  A    between atoms: C_23  and  C_24
REMARK    8  A    between atoms: C_24  and  N_25
REMARK    9  A    between atoms: C_32  and  C_33
REMARK                            x       y       z     vdW  Elec       q    Type
REMARK                         _______ _______ _______ _____ _____    ______ ____
ROOT
ATOM      1  N   UNL     1       1.371   8.083  20.256  0.00  0.00    +0.000 N 
ATOM      2  C   UNL     1       1.383   6.712  20.705  0.00  0.00    +0.000 C 
ATOM      3  C   UNL     1       2.201   5.992  19.709  0.00  0.00    +0.000 A 
ATOM      4  C   UNL     1       2.658   6.872  18.727  0.00  0.00    +0.000 A 
ATOM      5  C   UNL     1       3.465   6.403  17.695  0.00  0.00    +0.000 A 
ATOM      6  C   UNL     1       3.787   5.020  17.659  0.00  0.00    +0.000 A 
ATOM      7  C   UNL     1       3.278   4.158  18.662  0.00  0.00    +0.000 A 
ATOM      8  C   UNL     1       2.486   4.632  19.710  0.00  0.00    +0.000 A 
ATOM      9  C   UNL     1       2.121   8.238  19.075  0.00  0.00    +0.000 C 
ATOM     10  O   UNL     1       2.332   9.230  18.403  0.00  0.00    +0.000 OA
ENDROOT
BRANCH   1  15
ATOM     11  C   UNL     1      -0.849  11.071  20.821  0.00  0.00    +0.000 A 
ATOM     12  C   UNL     1      -0.946  11.077  22.214  0.00  0.00    +0.000 A 
ATOM     13  C   UNL     1      -0.324  10.063  22.968  0.00  0.00    +0.000 A 
ATOM     14  C   UNL     1       0.439   9.050  22.355  0.00  0.00    +0.000 A 
ATOM     15  C   UNL     1       0.549   9.009  20.970  0.00  0.00    +0.000 A 
ATOM     16  C   UNL     1      -0.153  10.001  20.236  0.00  0.00    +0.000 A 
BRANCH  11  17
ATOM     17  C   UNL     1      -1.257  12.258  19.912  0.00  0.00    +0.000 C 
ATOM     18  C   UNL     1      -2.055  11.645  18.747  0.00  0.00    +0.000 C 
ATOM     19  F   UNL     1      -2.165  13.075  20.571  0.00  0.00    +0.000 F 
BRANCH  17  20
ATOM     20  C   UNL     1      -0.108  13.198  19.431  0.00  0.00    +0.000 C 
ATOM     21  F   UNL     1      -0.594  14.092  18.520  0.00  0.00    +0.000 F 
ATOM     22  F   UNL     1       0.818  12.459  18.748  0.00  0.00    +0.000 F 
BRANCH  20  28
ATOM     23  C   UNL     1      -0.900  16.049  20.712  0.00  0.00    +0.000 C 
ATOM     24  N   UNL     1       0.207  15.194  21.044  0.00  0.00    +0.000 N 
ATOM     25  C   UNL     1       1.157  15.507  21.977  0.00  0.00    +0.000 A 
ATOM     26  N   UNL     1       1.991  14.506  22.111  0.00  0.00    +0.000 NA
ATOM     27  N   UNL     1       1.604  13.529  21.236  0.00  0.00    +0.000 NA
ATOM     28  C   UNL     1       0.544  13.952  20.562  0.00  0.00    +0.000 A 
ENDBRANCH  20  28
ENDBRANCH  17  20
ENDBRANCH  11  17
ENDBRANCH   1  15
BRANCH   8  29
ATOM     29  C   UNL     1       1.988   3.704  20.787  0.00  0.00    +0.000 C 
ATOM     30  F   UNL     1       0.628   3.617  20.852  0.00  0.00    +0.000 F 
ATOM     31  F   UNL     1       2.425   2.427  20.627  0.00  0.00    +0.000 F 
ATOM     32  F   UNL     1       2.383   4.094  22.028  0.00  0.00    +0.000 F 
ENDBRANCH   8  29
BRANCH   6  33
ATOM     33  C   UNL     1       4.749   4.415  16.642  0.00  0.00    +0.000 C 
BRANCH  33  34
ATOM     34  N   UNL     1       6.164   4.527  17.028  0.00  0.00    +0.000 NA
ATOM     35  C   UNL     1       6.867   5.659  16.413  0.00  0.00    +0.000 C 
ATOM     36  C   UNL     1       7.360   6.566  17.530  0.00  0.00    +0.000 C 
ATOM     37  C   UNL     1       7.406   5.681  18.750  0.00  0.00    +0.000 C 
ATOM     38  F   UNL     1       8.637   5.110  18.843  0.00  0.00    +0.000 F 
ATOM     39  C   UNL     1       6.356   4.611  18.489  0.00  0.00    +0.000 C 
ENDBRANCH  33  34
ENDBRANCH   6  33
TORSDOF 7
ENDMDL
MODEL 5
REMARK VINA RESULT:     -10.3      2.356      3.662
REMARK  Name = 
REMARK  9 active torsions:
REMARK  status: ('A' for Active; 'I' for Inactive)
REMARK    1  A    between atoms: C_1  and  N_2
REMARK    2  A    between atoms: C_6  and  C_7
REMARK    3  A    between atoms: C_7  and  C_10
REMARK    4  A    between atoms: C_10  and  C_11
REMARK    5  A    between atoms: C_10  and  C_13
REMARK    6  A    between atoms: C_17  and  N_18
REMARK    7  A    between atoms: C_23  and  C_24
REMARK    8  A    between atoms: C_24  and  N_25
REMARK    9  A    between atoms: C_32  and  C_33
REMARK                            x       y       z     vdW  Elec       q    Type
REMARK                         _______ _______ _______ _____ _____    ______ ____
ROOT
ATOM      1  N   UNL     1       2.019   7.807  19.334  0.00  0.00    +0.000 N 
ATOM      2  C   UNL     1       1.363   8.111  20.582  0.00  0.00    +0.000 C 
ATOM      3  C   UNL     1       0.772   9.449  20.387  0.00  0.00    +0.000 A 
ATOM      4  C   UNL     1       1.048   9.920  19.103  0.00  0.00    +0.000 A 
ATOM      5  C   UNL     1       0.567  11.163  18.700  0.00  0.00    +0.000 A 
ATOM      6  C   UNL     1      -0.181  11.934  19.628  0.00  0.00    +0.000 A 
ATOM      7  C   UNL     1      -0.414  11.428  20.931  0.00  0.00    +0.000 A 
ATOM      8  C   UNL     1       0.049  10.172  21.329  0.00  0.00    +0.000 A 
ATOM      9  C   UNL     1       1.862   8.856  18.409  0.00  0.00    +0.000 C 
ATOM     10  O   UNL     1       2.274   8.967  17.270  0.00  0.00    +0.000 OA
ENDROOT
BRANCH   1  15
ATOM     11  C   UNL     1       4.452   5.293  17.942  0.00  0.00    +0.000 A 
ATOM     12  C   UNL     1       4.254   4.216  18.809  0.00  0.00    +0.000 A 
ATOM     13  C   UNL     1       3.356   4.336  19.888  0.00  0.00    +0.000 A 
ATOM     14  C   UNL     1       2.610   5.511  20.101  0.00  0.00    +0.000 A 
ATOM     15  C   UNL     1       2.789   6.605  19.262  0.00  0.00    +0.000 A 
ATOM     16  C   UNL     1       3.757   6.478  18.231  0.00  0.00    +0.000 A 
BRANCH  11  17
ATOM     17  C   UNL     1       5.198   5.197  16.588  0.00  0.00    +0.000 C 
ATOM     18  C   UNL     1       4.586   3.992  15.851  0.00  0.00    +0.000 C 
ATOM     19  F   UNL     1       4.889   6.292  15.792  0.00  0.00    +0.000 F 
BRANCH  17  20
ATOM     20  C   UNL     1       6.756   5.142  16.650  0.00  0.00    +0.000 C 
ATOM     21  F   UNL     1       7.263   4.969  15.394  0.00  0.00    +0.000 F 
ATOM     22  F   UNL     1       7.137   4.027  17.345  0.00  0.00    +0.000 F 
BRANCH  20  28
ATOM     23  C   UNL     1       7.966   5.584  19.605  0.00  0.00    +0.000 C 
ATOM     24  N   UNL     1       7.819   6.543  18.545  0.00  0.00    +0.000 N 
ATOM     25  C   UNL     1       8.156   7.863  18.662  0.00  0.00    +0.000 A 
ATOM     26  N   UNL     1       7.979   8.468  17.513  0.00  0.00    +0.000 NA
ATOM     27  N   UNL     1       7.493   7.541  16.632  0.00  0.00    +0.000 NA
ATOM     28  C   UNL     1       7.362   6.380  17.260  0.00  0.00    +0.000 A 
ENDBRANCH  20  28
ENDBRANCH  17  20
ENDBRANCH  11  17
ENDBRANCH   1  15
BRANCH   8  29
ATOM     29  C   UNL     1      -0.242   9.638  22.707  0.00  0.00    +0.000 C 
ATOM     30  F   UNL     1       0.876   9.377  23.443  0.00  0.00    +0.000 F 
ATOM     31  F   UNL     1      -0.980  10.496  23.460  0.00  0.00    +0.000 F 
ATOM     32  F   UNL     1      -0.931   8.466  22.670  0.00  0.00    +0.000 F 
ENDBRANCH   8  29
BRANCH   6  33
ATOM     33  C   UNL     1      -0.849  13.257  19.264  0.00  0.00    +0.000 C 
BRANCH  33  34
ATOM     34  N   UNL     1      -0.026  14.438  19.570  0.00  0.00    +0.000 NA
ATOM     35  C   UNL     1      -0.170  14.930  20.944  0.00  0.00    +0.000 C 
ATOM     36  C   UNL     1       1.194  14.848  21.615  0.00  0.00    +0.000 C 
ATOM     37  C   UNL     1       2.180  14.827  20.475  0.00  0.00    +0.000 C 
ATOM     38  F   UNL     1       2.545  16.103  20.174  0.00  0.00    +0.000 F 
ATOM     39  C   UNL     1       1.410  14.220  19.312  0.00  0.00    +0.000 C 
ENDBRANCH  33  34
ENDBRANCH   6  33
TORSDOF 7
ENDMDL
MODEL 6
REMARK VINA RESULT:     -10.3      1.998      2.818
REMARK  Name = 
REMARK  9 active torsions:
REMARK  status: ('A' for Active; 'I' for Inactive)
REMARK    1  A    between atoms: C_1  and  N_2
REMARK    2  A    between atoms: C_6  and  C_7
REMARK    3  A    between atoms: C_7  and  C_10
REMARK    4  A    between atoms: C_10  and  C_11
REMARK    5  A    between atoms: C_10  and  C_13
REMARK    6  A    between atoms: C_17  and  N_18
REMARK    7  A    between atoms: C_23  and  C_24
REMARK    8  A    between atoms: C_24  and  N_25
REMARK    9  A    between atoms: C_32  and  C_33
REMARK                            x       y       z     vdW  Elec       q    Type
REMARK                         _______ _______ _______ _____ _____    ______ ____
ROOT
ATOM      1  N   UNL     1       2.206   7.407  19.500  0.00  0.00    +0.000 N 
ATOM      2  C   UNL     1       1.495   7.807  20.691  0.00  0.00    +0.000 C 
ATOM      3  C   UNL     1       0.924   9.129  20.369  0.00  0.00    +0.000 A 
ATOM      4  C   UNL     1       1.263   9.501  19.066  0.00  0.00    +0.000 A 
ATOM      5  C   UNL     1       0.810  10.712  18.550  0.00  0.00    +0.000 A 
ATOM      6  C   UNL     1       0.026  11.554  19.381  0.00  0.00    +0.000 A 
ATOM      7  C   UNL     1      -0.271  11.149  20.706  0.00  0.00    +0.000 A 
ATOM      8  C   UNL     1       0.164   9.924  21.218  0.00  0.00    +0.000 A 
ATOM      9  C   UNL     1       2.099   8.384  18.493  0.00  0.00    +0.000 C 
ATOM     10  O   UNL     1       2.565   8.408  17.369  0.00  0.00    +0.000 OA
ENDROOT
BRANCH   1  15
ATOM     11  C   UNL     1       5.173   5.127  19.084  0.00  0.00    +0.000 A 
ATOM     12  C   UNL     1       4.605   3.886  19.381  0.00  0.00    +0.000 A 
ATOM     13  C   UNL     1       3.254   3.805  19.772  0.00  0.00    +0.000 A 
ATOM     14  C   UNL     1       2.434   4.949  19.835  0.00  0.00    +0.000 A 
ATOM     15  C   UNL     1       2.970   6.201  19.555  0.00  0.00    +0.000 A 
ATOM     16  C   UNL     1       4.353   6.256  19.239  0.00  0.00    +0.000 A 
BRANCH  11  17
ATOM     17  C   UNL     1       6.549   5.316  18.398  0.00  0.00    +0.000 C 
ATOM     18  C   UNL     1       7.517   5.770  19.506  0.00  0.00    +0.000 C 
ATOM     19  F   UNL     1       7.046   4.091  17.976  0.00  0.00    +0.000 F 
BRANCH  17  20
ATOM     20  C   UNL     1       6.585   6.245  17.145  0.00  0.00    +0.000 C 
ATOM     21  F   UNL     1       7.702   7.028  17.182  0.00  0.00    +0.000 F 
ATOM     22  F   UNL     1       5.534   7.118  17.205  0.00  0.00    +0.000 F 
BRANCH  20  28
ATOM     23  C   UNL     1       4.308   4.294  15.959  0.00  0.00    +0.000 C 
ATOM     24  N   UNL     1       5.595   4.612  15.402  0.00  0.00    +0.000 N 
ATOM     25  C   UNL     1       6.076   4.070  14.242  0.00  0.00    +0.000 A 
ATOM     26  N   UNL     1       7.236   4.604  13.953  0.00  0.00    +0.000 NA
ATOM     27  N   UNL     1       7.539   5.493  14.949  0.00  0.00    +0.000 NA
ATOM     28  C   UNL     1       6.564   5.478  15.847  0.00  0.00    +0.000 A 
ENDBRANCH  20  28
ENDBRANCH  17  20
ENDBRANCH  11  17
ENDBRANCH   1  15
BRANCH   8  29
ATOM     29  C   UNL     1      -0.195   9.497  22.617  0.00  0.00    +0.000 C 
ATOM     30  F   UNL     1       0.886   9.275  23.418  0.00  0.00    +0.000 F 
ATOM     31  F   UNL     1      -0.949  10.417  23.273  0.00  0.00    +0.000 F 
ATOM     32  F   UNL     1      -0.901   8.335  22.636  0.00  0.00    +0.000 F 
ENDBRANCH   8  29
BRANCH   6  33
ATOM     33  C   UNL     1      -0.614  12.848  18.888  0.00  0.00    +0.000 C 
BRANCH  33  34
ATOM     34  N   UNL     1      -0.149  14.047  19.601  0.00  0.00    +0.000 NA
ATOM     35  C   UNL     1       0.764  14.893  18.824  0.00  0.00    +0.000 C 
ATOM     36  C   UNL     1       0.117  16.261  18.669  0.00  0.00    +0.000 C 
ATOM     37  C   UNL     1      -0.880  16.342  19.798  0.00  0.00    +0.000 C 
ATOM     38  F   UNL     1      -0.279  16.889  20.889  0.00  0.00    +0.000 F 
ATOM     39  C   UNL     1      -1.256  14.896  20.083  0.00  0.00    +0.000 C 
ENDBRANCH  33  34
ENDBRANCH   6  33
TORSDOF 7
ENDMDL
MODEL 7
REMARK VINA RESULT:     -10.3      2.568      3.884
REMARK  Name = 
REMARK  9 active torsions:
REMARK  status: ('A' for Active; 'I' for Inactive)
REMARK    1  A    between atoms: C_1  and  N_2
REMARK    2  A    between atoms: C_6  and  C_7
REMARK    3  A    between atoms: C_7  and  C_10
REMARK    4  A    between atoms: C_10  and  C_11
REMARK    5  A    between atoms: C_10  and  C_13
REMARK    6  A    between atoms: C_17  and  N_18
REMARK    7  A    between atoms: C_23  and  C_24
REMARK    8  A    between atoms: C_24  and  N_25
REMARK    9  A    between atoms: C_32  and  C_33
REMARK                            x       y       z     vdW  Elec       q    Type
REMARK                         _______ _______ _______ _____ _____    ______ ____
ROOT
ATOM      1  N   UNL     1       2.080   7.820  19.000  0.00  0.00    +0.000 N 
ATOM      2  C   UNL     1       1.431   8.027  20.272  0.00  0.00    +0.000 C 
ATOM      3  C   UNL     1       0.971   9.430  20.242  0.00  0.00    +0.000 A 
ATOM      4  C   UNL     1       1.315  10.028  19.028  0.00  0.00    +0.000 A 
ATOM      5  C   UNL     1       0.960  11.351  18.781  0.00  0.00    +0.000 A 
ATOM      6  C   UNL     1       0.269  12.069  19.793  0.00  0.00    +0.000 A 
ATOM      7  C   UNL     1      -0.035  11.430  21.020  0.00  0.00    +0.000 A 
ATOM      8  C   UNL     1       0.301  10.096  21.261  0.00  0.00    +0.000 A 
ATOM      9  C   UNL     1       2.039   8.985  18.213  0.00  0.00    +0.000 C 
ATOM     10  O   UNL     1       2.482   9.197  17.100  0.00  0.00    +0.000 OA
ENDROOT
BRANCH   1  15
ATOM     11  C   UNL     1       4.382   5.312  17.391  0.00  0.00    +0.000 A 
ATOM     12  C   UNL     1       4.003   4.138  18.045  0.00  0.00    +0.000 A 
ATOM     13  C   UNL     1       3.024   4.179  19.057  0.00  0.00    +0.000 A 
ATOM     14  C   UNL     1       2.376   5.380  19.408  0.00  0.00    +0.000 A 
ATOM     15  C   UNL     1       2.736   6.569  18.784  0.00  0.00    +0.000 A 
ATOM     16  C   UNL     1       3.779   6.504  17.823  0.00  0.00    +0.000 A 
BRANCH  11  17
ATOM     17  C   UNL     1       5.239   5.356  16.101  0.00  0.00    +0.000 C 
ATOM     18  C   UNL     1       4.541   4.422  15.097  0.00  0.00    +0.000 C 
ATOM     19  F   UNL     1       5.169   6.615  15.521  0.00  0.00    +0.000 F 
BRANCH  17  20
ATOM     20  C   UNL     1       6.760   5.045  16.261  0.00  0.00    +0.000 C 
ATOM     21  F   UNL     1       7.472   5.717  15.310  0.00  0.00    +0.000 F 
ATOM     22  F   UNL     1       6.977   3.720  16.001  0.00  0.00    +0.000 F 
BRANCH  20  28
ATOM     23  C   UNL     1       7.466   7.950  17.468  0.00  0.00    +0.000 C 
ATOM     24  N   UNL     1       7.632   6.661  18.081  0.00  0.00    +0.000 N 
ATOM     25  C   UNL     1       8.180   6.473  19.320  0.00  0.00    +0.000 A 
ATOM     26  N   UNL     1       8.131   5.203  19.638  0.00  0.00    +0.000 NA
ATOM     27  N   UNL     1       7.566   4.539  18.584  0.00  0.00    +0.000 NA
ATOM     28  C   UNL     1       7.292   5.411  17.624  0.00  0.00    +0.000 A 
ENDBRANCH  20  28
ENDBRANCH  17  20
ENDBRANCH  11  17
ENDBRANCH   1  15
BRANCH   8  29
ATOM     29  C   UNL     1      -0.066   9.425  22.559  0.00  0.00    +0.000 C 
ATOM     30  F   UNL     1      -0.868  10.182  23.360  0.00  0.00    +0.000 F 
ATOM     31  F   UNL     1      -0.734   8.256  22.378  0.00  0.00    +0.000 F 
ATOM     32  F   UNL     1       1.026   9.133  23.315  0.00  0.00    +0.000 F 
ENDBRANCH   8  29
BRANCH   6  33
ATOM     33  C   UNL     1      -0.265  13.484  19.592  0.00  0.00    +0.000 C 
BRANCH  33  34
ATOM     34  N   UNL     1       0.750  14.531  19.785  0.00  0.00    +0.000 NA
ATOM     35  C   UNL     1       1.595  14.338  20.969  0.00  0.00    +0.000 C 
ATOM     36  C   UNL     1       3.036  14.203  20.498  0.00  0.00    +0.000 C 
ATOM     37  C   UNL     1       3.056  14.853  19.137  0.00  0.00    +0.000 C 
ATOM     38  F   UNL     1       3.357  16.173  19.275  0.00  0.00    +0.000 F 
ATOM     39  C   UNL     1       1.635  14.696  18.616  0.00  0.00    +0.000 C 
ENDBRANCH  33  34
ENDBRANCH   6  33
TORSDOF 7
ENDMDL
MODEL 8
REMARK VINA RESULT:     -10.2      2.833      9.421
REMARK  Name = 
REMARK  9 active torsions:
REMARK  status: ('A' for Active; 'I' for Inactive)
REMARK    1  A    between atoms: C_1  and  N_2
REMARK    2  A    between atoms: C_6  and  C_7
REMARK    3  A    between atoms: C_7  and  C_10
REMARK    4  A    between atoms: C_10  and  C_11
REMARK    5  A    between atoms: C_10  and  C_13
REMARK    6  A    between atoms: C_17  and  N_18
REMARK    7  A    between atoms: C_23  and  C_24
REMARK    8  A    between atoms: C_24  and  N_25
REMARK    9  A    between atoms: C_32  and  C_33
REMARK                            x       y       z     vdW  Elec       q    Type
REMARK                         _______ _______ _______ _____ _____    ______ ____
ROOT
ATOM      1  N   UNL     1       1.394   8.271  20.080  0.00  0.00    +0.000 N 
ATOM      2  C   UNL     1       1.399   6.919  20.585  0.00  0.00    +0.000 C 
ATOM      3  C   UNL     1       2.230   6.158  19.631  0.00  0.00    +0.000 A 
ATOM      4  C   UNL     1       2.699   6.997  18.619  0.00  0.00    +0.000 A 
ATOM      5  C   UNL     1       3.520   6.486  17.618  0.00  0.00    +0.000 A 
ATOM      6  C   UNL     1       3.841   5.103  17.644  0.00  0.00    +0.000 A 
ATOM      7  C   UNL     1       3.320   4.283  18.675  0.00  0.00    +0.000 A 
ATOM      8  C   UNL     1       2.514   4.800  19.692  0.00  0.00    +0.000 A 
ATOM      9  C   UNL     1       2.159   8.376  18.903  0.00  0.00    +0.000 C 
ATOM     10  O   UNL     1       2.379   9.340  18.194  0.00  0.00    +0.000 OA
ENDROOT
BRANCH   1  15
ATOM     11  C   UNL     1      -0.963  11.181  20.469  0.00  0.00    +0.000 A 
ATOM     12  C   UNL     1      -0.975  11.336  21.857  0.00  0.00    +0.000 A 
ATOM     13  C   UNL     1      -0.248  10.446  22.672  0.00  0.00    +0.000 A 
ATOM     14  C   UNL     1       0.536   9.413  22.121  0.00  0.00    +0.000 A 
ATOM     15  C   UNL     1       0.563   9.225  20.744  0.00  0.00    +0.000 A 
ATOM     16  C   UNL     1      -0.241  10.092  19.957  0.00  0.00    +0.000 A 
BRANCH  11  17
ATOM     17  C   UNL     1      -1.496  12.237  19.468  0.00  0.00    +0.000 C 
ATOM     18  C   UNL     1      -1.372  11.598  18.073  0.00  0.00    +0.000 C 
ATOM     19  F   UNL     1      -2.859  12.425  19.651  0.00  0.00    +0.000 F 
BRANCH  17  20
ATOM     20  C   UNL     1      -0.856  13.658  19.543  0.00  0.00    +0.000 C 
ATOM     21  F   UNL     1      -1.698  14.510  20.197  0.00  0.00    +0.000 F 
ATOM     22  F   UNL     1      -0.745  14.167  18.278  0.00  0.00    +0.000 F 
BRANCH  20  28
ATOM     23  C   UNL     1       2.019  12.701  18.441  0.00  0.00    +0.000 C 
ATOM     24  N   UNL     1       1.679  13.193  19.748  0.00  0.00    +0.000 N 
ATOM     25  C   UNL     1       2.573  13.293  20.779  0.00  0.00    +0.000 A 
ATOM     26  N   UNL     1       1.991  13.841  21.817  0.00  0.00    +0.000 NA
ATOM     27  N   UNL     1       0.687  14.082  21.476  0.00  0.00    +0.000 NA
ATOM     28  C   UNL     1       0.483  13.661  20.236  0.00  0.00    +0.000 A 
ENDBRANCH  20  28
ENDBRANCH  17  20
ENDBRANCH  11  17
ENDBRANCH   1  15
BRANCH   8  29
ATOM     29  C   UNL     1       2.001   3.917  20.799  0.00  0.00    +0.000 C 
ATOM     30  F   UNL     1       2.394   4.313  22.044  0.00  0.00    +0.000 F 
ATOM     31  F   UNL     1       0.644   3.865  20.847  0.00  0.00    +0.000 F 
ATOM     32  F   UNL     1       2.433   2.633  20.677  0.00  0.00    +0.000 F 
ENDBRANCH   8  29
BRANCH   6  33
ATOM     33  C   UNL     1       4.817   4.456  16.665  0.00  0.00    +0.000 C 
BRANCH  33  34
ATOM     34  N   UNL     1       6.225   4.558  17.080  0.00  0.00    +0.000 NA
ATOM     35  C   UNL     1       6.947   5.686  16.481  0.00  0.00    +0.000 C 
ATOM     36  C   UNL     1       7.423   6.588  17.610  0.00  0.00    +0.000 C 
ATOM     37  C   UNL     1       7.439   5.700  18.829  0.00  0.00    +0.000 C 
ATOM     38  F   UNL     1       8.664   5.120  18.946  0.00  0.00    +0.000 F 
ATOM     39  C   UNL     1       6.387   4.638  18.544  0.00  0.00    +0.000 C 
ENDBRANCH  33  34
ENDBRANCH   6  33
TORSDOF 7
ENDMDL
MODEL 9
REMARK VINA RESULT:     -10.2      1.822      2.609
REMARK  Name = 
REMARK  9 active torsions:
REMARK  status: ('A' for Active; 'I' for Inactive)
REMARK    1  A    between atoms: C_1  and  N_2
REMARK    2  A    between atoms: C_6  and  C_7
REMARK    3  A    between atoms: C_7  and  C_10
REMARK    4  A    between atoms: C_10  and  C_11
REMARK    5  A    between atoms: C_10  and  C_13
REMARK    6  A    between atoms: C_17  and  N_18
REMARK    7  A    between atoms: C_23  and  C_24
REMARK    8  A    between atoms: C_24  and  N_25
REMARK    9  A    between atoms: C_32  and  C_33
REMARK                            x       y       z     vdW  Elec       q    Type
REMARK                         _______ _______ _______ _____ _____    ______ ____
ROOT
ATOM      1  N   UNL     1       2.151   7.558  19.307  0.00  0.00    +0.000 N 
ATOM      2  C   UNL     1       1.492   7.924  20.537  0.00  0.00    +0.000 C 
ATOM      3  C   UNL     1       0.952   9.276  20.293  0.00  0.00    +0.000 A 
ATOM      4  C   UNL     1       1.261   9.697  18.998  0.00  0.00    +0.000 A 
ATOM      5  C   UNL     1       0.831  10.943  18.551  0.00  0.00    +0.000 A 
ATOM      6  C   UNL     1       0.100  11.769  19.444  0.00  0.00    +0.000 A 
ATOM      7  C   UNL     1      -0.167  11.313  20.759  0.00  0.00    +0.000 A 
ATOM      8  C   UNL     1       0.245  10.054  21.201  0.00  0.00    +0.000 A 
ATOM      9  C   UNL     1       2.043   8.582  18.348  0.00  0.00    +0.000 C 
ATOM     10  O   UNL     1       2.473   8.643  17.212  0.00  0.00    +0.000 OA
ENDROOT
BRANCH   1  15
ATOM     11  C   UNL     1       4.827   5.099  18.324  0.00  0.00    +0.000 A 
ATOM     12  C   UNL     1       4.353   3.929  18.922  0.00  0.00    +0.000 A 
ATOM     13  C   UNL     1       3.176   3.960  19.696  0.00  0.00    +0.000 A 
ATOM     14  C   UNL     1       2.429   5.144  19.856  0.00  0.00    +0.000 A 
ATOM     15  C   UNL     1       2.878   6.328  19.282  0.00  0.00    +0.000 A 
ATOM     16  C   UNL     1       4.107   6.277  18.573  0.00  0.00    +0.000 A 
BRANCH  11  17
ATOM     17  C   UNL     1       5.943   5.139  17.249  0.00  0.00    +0.000 C 
ATOM     18  C   UNL     1       6.275   6.628  17.041  0.00  0.00    +0.000 C 
ATOM     19  F   UNL     1       7.111   4.583  17.750  0.00  0.00    +0.000 F 
BRANCH  17  20
ATOM     20  C   UNL     1       5.652   4.390  15.912  0.00  0.00    +0.000 C 
ATOM     21  F   UNL     1       4.371   4.640  15.511  0.00  0.00    +0.000 F 
ATOM     22  F   UNL     1       5.701   3.042  16.133  0.00  0.00    +0.000 F 
BRANCH  20  28
ATOM     23  C   UNL     1       5.646   3.509  12.810  0.00  0.00    +0.000 C 
ATOM     24  N   UNL     1       6.593   4.339  13.504  0.00  0.00    +0.000 N 
ATOM     25  C   UNL     1       7.710   4.869  12.920  0.00  0.00    +0.000 A 
ATOM     26  N   UNL     1       8.336   5.637  13.778  0.00  0.00    +0.000 NA
ATOM     27  N   UNL     1       7.637   5.591  14.954  0.00  0.00    +0.000 NA
ATOM     28  C   UNL     1       6.599   4.781  14.805  0.00  0.00    +0.000 A 
ENDBRANCH  20  28
ENDBRANCH  17  20
ENDBRANCH  11  17
ENDBRANCH   1  15
BRANCH   8  29
ATOM     29  C   UNL     1      -0.082   9.575  22.591  0.00  0.00    +0.000 C 
ATOM     30  F   UNL     1      -0.749  10.494  23.347  0.00  0.00    +0.000 F 
ATOM     31  F   UNL     1      -0.867   8.465  22.595  0.00  0.00    +0.000 F 
ATOM     32  F   UNL     1       1.032   9.261  23.305  0.00  0.00    +0.000 F 
ENDBRANCH   8  29
BRANCH   6  33
ATOM     33  C   UNL     1      -0.515  13.103  19.030  0.00  0.00    +0.000 C 
BRANCH  33  34
ATOM     34  N   UNL     1      -0.162  14.218  19.923  0.00  0.00    +0.000 NA
ATOM     35  C   UNL     1       0.958  15.037  19.447  0.00  0.00    +0.000 C 
ATOM     36  C   UNL     1       0.450  16.457  19.250  0.00  0.00    +0.000 C 
ATOM     37  C   UNL     1      -0.781  16.546  20.117  0.00  0.00    +0.000 C 
ATOM     38  F   UNL     1      -0.427  16.979  21.357  0.00  0.00    +0.000 F 
ATOM     39  C   UNL     1      -1.300  15.118  20.194  0.00  0.00    +0.000 C 
ENDBRANCH  33  34
ENDBRANCH   6  33
TORSDOF 7
ENDMDL
