MODEL 1
REMARK VINA RESULT:      -9.9      0.000      0.000
REMARK  Name = 
REMARK  9 active torsions:
REMARK  status: ('A' for Active; 'I' for Inactive)
REMARK    1  A    between atoms: C_1  and  C_2
REMARK    2  A    between atoms: N_5  and  C_6
REMARK    3  A    between atoms: C_6  and  C_7
REMARK    4  A    between atoms: C_11  and  C_12
REMARK    5  A    between atoms: N_18  and  C_19
REMARK    6  A    between atoms: C_23  and  C_24
REMARK    7  A    between atoms: C_24  and  C_25
REMARK    8  A    between atoms: C_25  and  C_26
REMARK    9  A    between atoms: N_30  and  C_31
REMARK                            x       y       z     vdW  Elec       q    Type
REMARK                         _______ _______ _______ _____ _____    ______ ____
ROOT
ATOM      1  C   UNL     1       0.263  11.598  19.416  0.00  0.00    +0.000 A 
ATOM      2  C   UNL     1       1.075  10.767  18.640  0.00  0.00    +0.000 A 
ATOM      3  C   UNL     1       1.390   9.522  19.130  0.00  0.00    +0.000 A 
ATOM      4  C   UNL     1       0.977   9.071  20.375  0.00  0.00    +0.000 A 
ATOM      5  C   UNL     1       0.225   9.896  21.205  0.00  0.00    +0.000 A 
ATOM      6  C   UNL     1      -0.155  11.159  20.693  0.00  0.00    +0.000 A 
ATOM      7  C   UNL     1       1.462   7.669  20.565  0.00  0.00    +0.000 C 
ATOM      8  N   UNL     1       2.178   7.388  19.323  0.00  0.00    +0.000 N 
ATOM      9  C   UNL     1       2.159   8.478  18.459  0.00  0.00    +0.000 C 
ATOM     10  O   UNL     1       2.623   8.636  17.345  0.00  0.00    +0.000 OA
ENDROOT
BRANCH   8  11
ATOM     11  C   UNL     1       2.803   6.145  19.072  0.00  0.00    +0.000 A 
ATOM     12  C   UNL     1       2.587   5.034  19.891  0.00  0.00    +0.000 A 
ATOM     13  C   UNL     1       3.191   3.813  19.608  0.00  0.00    +0.000 A 
ATOM     14  C   UNL     1       4.060   3.699  18.525  0.00  0.00    +0.000 A 
ATOM     15  C   UNL     1       4.358   4.801  17.702  0.00  0.00    +0.000 A 
ATOM     16  C   UNL     1       3.673   6.001  17.983  0.00  0.00    +0.000 A 
BRANCH  15  17
ATOM     17  C   UNL     1       5.447   4.723  16.535  0.00  0.00    +0.000 C 
ATOM     18  C   UNL     1       5.212   3.735  15.354  0.00  0.00    +0.000 C 
ATOM     19  O   UNL     1       5.544   4.775  14.391  0.00  0.00    +0.000 OA
ATOM     20  C   UNL     1       5.277   5.777  15.402  0.00  0.00    +0.000 C 
BRANCH  17  21
ATOM     21  C   UNL     1       6.879   4.678  17.096  0.00  0.00    +0.000 C 
BRANCH  21  22
ATOM     22  C   UNL     1       7.412   6.028  17.459  0.00  0.00    +0.000 A 
ATOM     23  N   UNL     1       7.521   7.062  16.648  0.00  0.00    +0.000 NA
ATOM     24  N   UNL     1       8.018   8.123  17.365  0.00  0.00    +0.000 NA
ATOM     25  C   UNL     1       8.204   7.718  18.597  0.00  0.00    +0.000 A 
ATOM     26  N   UNL     1       7.861   6.404  18.700  0.00  0.00    +0.000 N 
ATOM     27  C   UNL     1       7.959   5.606  19.890  0.00  0.00    +0.000 C 
ENDBRANCH  21  22
ENDBRANCH  17  21
ENDBRANCH  15  17
ENDBRANCH   8  11
BRANCH   5  28
ATOM     28  C   UNL     1      -0.158   9.503  22.608  0.00  0.00    +0.000 C 
ATOM     29  F   UNL     1       0.908   9.257  23.414  0.00  0.00    +0.000 F 
ATOM     30  F   UNL     1      -0.876  10.479  23.233  0.00  0.00    +0.000 F 
ATOM     31  F   UNL     1      -0.928   8.383  22.650  0.00  0.00    +0.000 F 
ENDBRANCH   5  28
BRANCH   1  32
ATOM     32  C   UNL     1      -0.126  12.962  18.883  0.00  0.00    +0.000 C 
BRANCH  32  37
ATOM     33  C   UNL     1       3.354  15.751  17.506  0.00  0.00    +0.000 C 
ATOM     34  C   UNL     1       2.367  15.635  18.669  0.00  0.00    +0.000 C 
ATOM     35  C   UNL     1       0.931  15.778  18.153  0.00  0.00    +0.000 C 
ATOM     36  C   UNL     1      -0.106  15.428  19.225  0.00  0.00    +0.000 C 
ATOM     37  N   UNL     1       0.072  14.090  19.814  0.00  0.00    +0.000 NA
ATOM     38  C   UNL     1       1.427  14.026  20.408  0.00  0.00    +0.000 C 
ATOM     39  C   UNL     1       2.567  14.310  19.414  0.00  0.00    +0.000 C 
ATOM     40  F   UNL     1       3.742  14.370  20.101  0.00  0.00    +0.000 F 
ENDBRANCH  32  37
ENDBRANCH   1  32
TORSDOF 7
ENDMDL
MODEL 2
REMARK VINA RESULT:      -9.8      3.710      9.639
REMARK  Name = 
REMARK  9 active torsions:
REMARK  status: ('A' for Active; 'I' for Inactive)
REMARK    1  A    between atoms: C_1  and  C_2
REMARK    2  A    between atoms: N_5  and  C_6
REMARK    3  A    between atoms: C_6  and  C_7
REMARK    4  A    between atoms: C_11  and  C_12
REMARK    5  A    between atoms: N_18  and  C_19
REMARK    6  A    between atoms: C_23  and  C_24
REMARK    7  A    between atoms: C_24  and  C_25
REMARK    8  A    between atoms: C_25  and  C_26
REMARK    9  A    between atoms: N_30  and  C_31
REMARK                            x       y       z     vdW  Elec       q    Type
REMARK                         _______ _______ _______ _____ _____    ______ ____
ROOT
ATOM      1  C   UNL     1       3.710   6.002  17.755  0.00  0.00    +0.000 A 
ATOM      2  C   UNL     1       3.147   7.272  17.900  0.00  0.00    +0.000 A 
ATOM      3  C   UNL     1       2.325   7.501  18.977  0.00  0.00    +0.000 A 
ATOM      4  C   UNL     1       1.994   6.520  19.899  0.00  0.00    +0.000 A 
ATOM      5  C   UNL     1       2.479   5.225  19.750  0.00  0.00    +0.000 A 
ATOM      6  C   UNL     1       3.372   4.987  18.678  0.00  0.00    +0.000 A 
ATOM      7  C   UNL     1       1.120   7.123  20.952  0.00  0.00    +0.000 C 
ATOM      8  N   UNL     1       0.996   8.517  20.530  0.00  0.00    +0.000 N 
ATOM      9  C   UNL     1       1.694   8.762  19.353  0.00  0.00    +0.000 C 
ATOM     10  O   UNL     1       1.844   9.778  18.698  0.00  0.00    +0.000 OA
ENDROOT
BRANCH   8  11
ATOM     11  C   UNL     1       0.245   9.467  21.260  0.00  0.00    +0.000 A 
ATOM     12  C   UNL     1      -0.045   9.291  22.616  0.00  0.00    +0.000 A 
ATOM     13  C   UNL     1      -0.762  10.253  23.320  0.00  0.00    +0.000 A 
ATOM     14  C   UNL     1      -1.241  11.385  22.664  0.00  0.00    +0.000 A 
ATOM     15  C   UNL     1      -1.028  11.583  21.288  0.00  0.00    +0.000 A 
ATOM     16  C   UNL     1      -0.240  10.619  20.626  0.00  0.00    +0.000 A 
BRANCH  15  17
ATOM     17  C   UNL     1      -1.677  12.808  20.492  0.00  0.00    +0.000 C 
ATOM     18  C   UNL     1      -2.998  13.435  21.028  0.00  0.00    +0.000 C 
ATOM     19  O   UNL     1      -2.448  14.774  20.875  0.00  0.00    +0.000 OA
ATOM     20  C   UNL     1      -1.113  14.210  20.865  0.00  0.00    +0.000 C 
BRANCH  17  21
ATOM     21  C   UNL     1      -1.691  12.556  18.974  0.00  0.00    +0.000 C 
BRANCH  21  22
ATOM     22  C   UNL     1      -2.831  11.695  18.531  0.00  0.00    +0.000 A 
ATOM     23  N   UNL     1      -4.107  11.901  18.794  0.00  0.00    +0.000 NA
ATOM     24  N   UNL     1      -4.840  10.913  18.185  0.00  0.00    +0.000 NA
ATOM     25  C   UNL     1      -4.000  10.122  17.561  0.00  0.00    +0.000 A 
ATOM     26  N   UNL     1      -2.727  10.557  17.770  0.00  0.00    +0.000 N 
ATOM     27  C   UNL     1      -1.537   9.927  17.271  0.00  0.00    +0.000 C 
ENDBRANCH  21  22
ENDBRANCH  17  21
ENDBRANCH  15  17
ENDBRANCH   8  11
BRANCH   5  28
ATOM     28  C   UNL     1       2.067   4.093  20.655  0.00  0.00    +0.000 C 
ATOM     29  F   UNL     1       0.726   3.872  20.672  0.00  0.00    +0.000 F 
ATOM     30  F   UNL     1       2.632   2.911  20.284  0.00  0.00    +0.000 F 
ATOM     31  F   UNL     1       2.431   4.296  21.949  0.00  0.00    +0.000 F 
ENDBRANCH   5  28
BRANCH   1  32
ATOM     32  C   UNL     1       4.648   5.734  16.594  0.00  0.00    +0.000 C 
BRANCH  32  37
ATOM     33  C   UNL     1       7.719   5.348  13.100  0.00  0.00    +0.000 C 
ATOM     34  C   UNL     1       7.216   4.520  14.285  0.00  0.00    +0.000 C 
ATOM     35  C   UNL     1       7.537   5.239  15.599  0.00  0.00    +0.000 C 
ATOM     36  C   UNL     1       6.847   4.584  16.800  0.00  0.00    +0.000 C 
ATOM     37  N   UNL     1       5.387   4.457  16.654  0.00  0.00    +0.000 NA
ATOM     38  C   UNL     1       5.115   3.657  15.438  0.00  0.00    +0.000 C 
ATOM     39  C   UNL     1       5.715   4.241  14.148  0.00  0.00    +0.000 C 
ATOM     40  F   UNL     1       5.529   3.350  13.134  0.00  0.00    +0.000 F 
ENDBRANCH  32  37
ENDBRANCH   1  32
TORSDOF 7
ENDMDL
MODEL 3
REMARK VINA RESULT:      -9.8      1.521      2.429
REMARK  Name = 
REMARK  9 active torsions:
REMARK  status: ('A' for Active; 'I' for Inactive)
REMARK    1  A    between atoms: C_1  and  C_2
REMARK    2  A    between atoms: N_5  and  C_6
REMARK    3  A    between atoms: C_6  and  C_7
REMARK    4  A    between atoms: C_11  and  C_12
REMARK    5  A    between atoms: N_18  and  C_19
REMARK    6  A    between atoms: C_23  and  C_24
REMARK    7  A    between atoms: C_24  and  C_25
REMARK    8  A    between atoms: C_25  and  C_26
REMARK    9  A    between atoms: N_30  and  C_31
REMARK                            x       y       z     vdW  Elec       q    Type
REMARK                         _______ _______ _______ _____ _____    ______ ____
ROOT
ATOM      1  C   UNL     1      -0.081  11.860  19.599  0.00  0.00    +0.000 A 
ATOM      2  C   UNL     1       0.732  11.164  18.701  0.00  0.00    +0.000 A 
ATOM      3  C   UNL     1       1.174   9.913  19.058  0.00  0.00    +0.000 A 
ATOM      4  C   UNL     1       0.889   9.329  20.284  0.00  0.00    +0.000 A 
ATOM      5  C   UNL     1       0.140  10.019  21.231  0.00  0.00    +0.000 A 
ATOM      6  C   UNL     1      -0.370  11.285  20.858  0.00  0.00    +0.000 A 
ATOM      7  C   UNL     1       1.490   7.960  20.317  0.00  0.00    +0.000 C 
ATOM      8  N   UNL     1       2.133   7.841  19.011  0.00  0.00    +0.000 N 
ATOM      9  C   UNL     1       1.968   8.993  18.249  0.00  0.00    +0.000 C 
ATOM     10  O   UNL     1       2.337   9.279  17.124  0.00  0.00    +0.000 OA
ENDROOT
BRANCH   8  11
ATOM     11  C   UNL     1       2.829   6.678  18.611  0.00  0.00    +0.000 A 
ATOM     12  C   UNL     1       2.187   5.442  18.488  0.00  0.00    +0.000 A 
ATOM     13  C   UNL     1       2.888   4.316  18.066  0.00  0.00    +0.000 A 
ATOM     14  C   UNL     1       4.253   4.401  17.805  0.00  0.00    +0.000 A 
ATOM     15  C   UNL     1       4.960   5.607  17.968  0.00  0.00    +0.000 A 
ATOM     16  C   UNL     1       4.201   6.738  18.332  0.00  0.00    +0.000 A 
BRANCH  15  17
ATOM     17  C   UNL     1       6.546   5.695  17.798  0.00  0.00    +0.000 C 
ATOM     18  C   UNL     1       7.185   7.063  17.415  0.00  0.00    +0.000 C 
ATOM     19  O   UNL     1       8.191   6.908  18.456  0.00  0.00    +0.000 OA
ATOM     20  C   UNL     1       7.339   5.939  19.115  0.00  0.00    +0.000 C 
BRANCH  17  21
ATOM     21  C   UNL     1       7.097   4.513  16.981  0.00  0.00    +0.000 C 
BRANCH  21  22
ATOM     22  C   UNL     1       7.171   4.795  15.513  0.00  0.00    +0.000 A 
ATOM     23  N   UNL     1       8.052   5.573  14.917  0.00  0.00    +0.000 NA
ATOM     24  N   UNL     1       7.809   5.546  13.566  0.00  0.00    +0.000 NA
ATOM     25  C   UNL     1       6.786   4.752  13.362  0.00  0.00    +0.000 A 
ATOM     26  N   UNL     1       6.335   4.277  14.556  0.00  0.00    +0.000 N 
ATOM     27  C   UNL     1       5.209   3.404  14.736  0.00  0.00    +0.000 C 
ENDBRANCH  21  22
ENDBRANCH  17  21
ENDBRANCH  15  17
ENDBRANCH   8  11
BRANCH   5  28
ATOM     28  C   UNL     1      -0.109   9.484  22.617  0.00  0.00    +0.000 C 
ATOM     29  F   UNL     1      -0.835  10.323  23.402  0.00  0.00    +0.000 F 
ATOM     30  F   UNL     1      -0.799   8.309  22.594  0.00  0.00    +0.000 F 
ATOM     31  F   UNL     1       1.041   9.233  23.298  0.00  0.00    +0.000 F 
ENDBRANCH   5  28
BRANCH   1  32
ATOM     32  C   UNL     1      -0.610  13.227  19.214  0.00  0.00    +0.000 C 
BRANCH  32  37
ATOM     33  C   UNL     1       2.320  16.588  17.833  0.00  0.00    +0.000 C 
ATOM     34  C   UNL     1       1.484  16.227  19.063  0.00  0.00    +0.000 C 
ATOM     35  C   UNL     1      -0.005  16.219  18.698  0.00  0.00    +0.000 C 
ATOM     36  C   UNL     1      -0.871  15.629  19.816  0.00  0.00    +0.000 C 
ATOM     37  N   UNL     1      -0.462  14.279  20.239  0.00  0.00    +0.000 NA
ATOM     38  C   UNL     1       0.945  14.347  20.696  0.00  0.00    +0.000 C 
ATOM     39  C   UNL     1       1.929  14.878  19.639  0.00  0.00    +0.000 C 
ATOM     40  F   UNL     1       3.152  15.036  20.218  0.00  0.00    +0.000 F 
ENDBRANCH  32  37
ENDBRANCH   1  32
TORSDOF 7
ENDMDL
MODEL 4
REMARK VINA RESULT:      -9.7      0.857      1.323
REMARK  Name = 
REMARK  9 active torsions:
REMARK  status: ('A' for Active; 'I' for Inactive)
REMARK    1  A    between atoms: C_1  and  C_2
REMARK    2  A    between atoms: N_5  and  C_6
REMARK    3  A    between atoms: C_6  and  C_7
REMARK    4  A    between atoms: C_11  and  C_12
REMARK    5  A    between atoms: N_18  and  C_19
REMARK    6  A    between atoms: C_23  and  C_24
REMARK    7  A    between atoms: C_24  and  C_25
REMARK    8  A    between atoms: C_25  and  C_26
REMARK    9  A    between atoms: N_30  and  C_31
REMARK                            x       y       z     vdW  Elec       q    Type
REMARK                         _______ _______ _______ _____ _____    ______ ____
ROOT
ATOM      1  C   UNL     1       0.363  11.886  19.732  0.00  0.00    +0.000 A 
ATOM      2  C   UNL     1       1.103  11.063  18.880  0.00  0.00    +0.000 A 
ATOM      3  C   UNL     1       1.346   9.769  19.274  0.00  0.00    +0.000 A 
ATOM      4  C   UNL     1       0.931   9.257  20.494  0.00  0.00    +0.000 A 
ATOM      5  C   UNL     1       0.252  10.067  21.399  0.00  0.00    +0.000 A 
ATOM      6  C   UNL     1      -0.055  11.385  20.986  0.00  0.00    +0.000 A 
ATOM      7  C   UNL     1       1.328   7.818  20.573  0.00  0.00    +0.000 C 
ATOM      8  N   UNL     1       1.998   7.581  19.297  0.00  0.00    +0.000 N 
ATOM      9  C   UNL     1       2.031   8.729  18.512  0.00  0.00    +0.000 C 
ATOM     10  O   UNL     1       2.481   8.936  17.400  0.00  0.00    +0.000 OA
ENDROOT
BRANCH   8  11
ATOM     11  C   UNL     1       2.535   6.322  18.943  0.00  0.00    +0.000 A 
ATOM     12  C   UNL     1       2.139   5.147  19.586  0.00  0.00    +0.000 A 
ATOM     13  C   UNL     1       2.661   3.915  19.202  0.00  0.00    +0.000 A 
ATOM     14  C   UNL     1       3.625   3.849  18.199  0.00  0.00    +0.000 A 
ATOM     15  C   UNL     1       4.102   5.007  17.559  0.00  0.00    +0.000 A 
ATOM     16  C   UNL     1       3.499   6.226  17.930  0.00  0.00    +0.000 A 
BRANCH  15  17
ATOM     17  C   UNL     1       5.296   4.965  16.498  0.00  0.00    +0.000 C 
ATOM     18  C   UNL     1       5.152   4.056  15.241  0.00  0.00    +0.000 C 
ATOM     19  O   UNL     1       5.602   5.140  14.380  0.00  0.00    +0.000 OA
ATOM     20  C   UNL     1       5.264   6.089  15.422  0.00  0.00    +0.000 C 
BRANCH  17  21
ATOM     21  C   UNL     1       6.666   4.841  17.188  0.00  0.00    +0.000 C 
BRANCH  21  22
ATOM     22  C   UNL     1       7.280   6.164  17.520  0.00  0.00    +0.000 A 
ATOM     23  N   UNL     1       7.325   7.218  16.728  0.00  0.00    +0.000 NA
ATOM     24  N   UNL     1       7.936   8.243  17.407  0.00  0.00    +0.000 NA
ATOM     25  C   UNL     1       8.252   7.798  18.599  0.00  0.00    +0.000 A 
ATOM     26  N   UNL     1       7.883   6.492  18.708  0.00  0.00    +0.000 N 
ATOM     27  C   UNL     1       8.096   5.657  19.858  0.00  0.00    +0.000 C 
ENDBRANCH  21  22
ENDBRANCH  17  21
ENDBRANCH  15  17
ENDBRANCH   8  11
BRANCH   5  28
ATOM     28  C   UNL     1      -0.125   9.601  22.781  0.00  0.00    +0.000 C 
ATOM     29  F   UNL     1      -0.856  10.509  23.480  0.00  0.00    +0.000 F 
ATOM     30  F   UNL     1      -0.878   8.466  22.748  0.00  0.00    +0.000 F 
ATOM     31  F   UNL     1       0.956   9.314  23.553  0.00  0.00    +0.000 F 
ENDBRANCH   5  28
BRANCH   1  32
ATOM     32  C   UNL     1       0.052  13.307  19.306  0.00  0.00    +0.000 C 
BRANCH  32  37
ATOM     33  C   UNL     1      -0.453  17.576  17.489  0.00  0.00    +0.000 C 
ATOM     34  C   UNL     1       0.033  16.931  18.788  0.00  0.00    +0.000 C 
ATOM     35  C   UNL     1      -1.117  16.170  19.455  0.00  0.00    +0.000 C 
ATOM     36  C   UNL     1      -0.636  15.304  20.625  0.00  0.00    +0.000 C 
ATOM     37  N   UNL     1       0.436  14.359  20.267  0.00  0.00    +0.000 NA
ATOM     38  C   UNL     1       1.577  15.139  19.735  0.00  0.00    +0.000 C 
ATOM     39  C   UNL     1       1.232  16.016  18.518  0.00  0.00    +0.000 C 
ATOM     40  F   UNL     1       2.312  16.791  18.216  0.00  0.00    +0.000 F 
ENDBRANCH  32  37
ENDBRANCH   1  32
TORSDOF 7
ENDMDL
MODEL 5
REMARK VINA RESULT:      -9.7      3.338      9.379
REMARK  Name = 
REMARK  9 active torsions:
REMARK  status: ('A' for Active; 'I' for Inactive)
REMARK    1  A    between atoms: C_1  and  C_2
REMARK    2  A    between atoms: N_5  and  C_6
REMARK    3  A    between atoms: C_6  and  C_7
REMARK    4  A    between atoms: C_11  and  C_12
REMARK    5  A    between atoms: N_18  and  C_19
REMARK    6  A    between atoms: C_23  and  C_24
REMARK    7  A    between atoms: C_24  and  C_25
REMARK    8  A    between atoms: C_25  and  C_26
REMARK    9  A    between atoms: N_30  and  C_31
REMARK                            x       y       z     vdW  Elec       q    Type
REMARK                         _______ _______ _______ _____ _____    ______ ____
ROOT
ATOM      1  C   UNL     1       3.846   6.073  17.701  0.00  0.00    +0.000 A 
ATOM      2  C   UNL     1       3.258   7.333  17.837  0.00  0.00    +0.000 A 
ATOM      3  C   UNL     1       2.425   7.551  18.908  0.00  0.00    +0.000 A 
ATOM      4  C   UNL     1       2.106   6.568  19.833  0.00  0.00    +0.000 A 
ATOM      5  C   UNL     1       2.617   5.281  19.692  0.00  0.00    +0.000 A 
ATOM      6  C   UNL     1       3.521   5.056  18.627  0.00  0.00    +0.000 A 
ATOM      7  C   UNL     1       1.215   7.160  20.877  0.00  0.00    +0.000 C 
ATOM      8  N   UNL     1       1.067   8.548  20.448  0.00  0.00    +0.000 N 
ATOM      9  C   UNL     1       1.769   8.802  19.274  0.00  0.00    +0.000 C 
ATOM     10  O   UNL     1       1.904   9.817  18.616  0.00  0.00    +0.000 OA
ENDROOT
BRANCH   8  11
ATOM     11  C   UNL     1       0.294   9.487  21.169  0.00  0.00    +0.000 A 
ATOM     12  C   UNL     1       0.142   9.405  22.556  0.00  0.00    +0.000 A 
ATOM     13  C   UNL     1      -0.601  10.357  23.247  0.00  0.00    +0.000 A 
ATOM     14  C   UNL     1      -1.243  11.379  22.553  0.00  0.00    +0.000 A 
ATOM     15  C   UNL     1      -1.171  11.476  21.151  0.00  0.00    +0.000 A 
ATOM     16  C   UNL     1      -0.354  10.532  20.496  0.00  0.00    +0.000 A 
BRANCH  15  17
ATOM     17  C   UNL     1      -2.003  12.563  20.327  0.00  0.00    +0.000 C 
ATOM     18  C   UNL     1      -3.132  12.077  19.370  0.00  0.00    +0.000 C 
ATOM     19  O   UNL     1      -4.044  13.077  19.906  0.00  0.00    +0.000 OA
ATOM     20  C   UNL     1      -3.211  13.185  21.086  0.00  0.00    +0.000 C 
BRANCH  17  21
ATOM     21  C   UNL     1      -1.084  13.626  19.698  0.00  0.00    +0.000 C 
BRANCH  21  22
ATOM     22  C   UNL     1      -0.055  14.150  20.650  0.00  0.00    +0.000 A 
ATOM     23  N   UNL     1      -0.293  14.857  21.737  0.00  0.00    +0.000 NA
ATOM     24  N   UNL     1       0.905  15.116  22.356  0.00  0.00    +0.000 NA
ATOM     25  C   UNL     1       1.851  14.562  21.637  0.00  0.00    +0.000 A 
ATOM     26  N   UNL     1       1.301  13.966  20.544  0.00  0.00    +0.000 N 
ATOM     27  C   UNL     1       2.028  13.285  19.509  0.00  0.00    +0.000 C 
ENDBRANCH  21  22
ENDBRANCH  17  21
ENDBRANCH  15  17
ENDBRANCH   8  11
BRANCH   5  28
ATOM     28  C   UNL     1       2.220   4.147  20.599  0.00  0.00    +0.000 C 
ATOM     29  F   UNL     1       0.889   3.872  20.576  0.00  0.00    +0.000 F 
ATOM     30  F   UNL     1       2.845   2.983  20.264  0.00  0.00    +0.000 F 
ATOM     31  F   UNL     1       2.532   4.380  21.902  0.00  0.00    +0.000 F 
ENDBRANCH   5  28
BRANCH   1  32
ATOM     32  C   UNL     1       4.796   5.818  16.548  0.00  0.00    +0.000 C 
BRANCH  32  37
ATOM     33  C   UNL     1       7.698   5.340  12.923  0.00  0.00    +0.000 C 
ATOM     34  C   UNL     1       7.208   4.520  14.119  0.00  0.00    +0.000 C 
ATOM     35  C   UNL     1       7.616   5.208  15.426  0.00  0.00    +0.000 C 
ATOM     36  C   UNL     1       6.948   4.569  16.648  0.00  0.00    +0.000 C 
ATOM     37  N   UNL     1       5.479   4.509  16.562  0.00  0.00    +0.000 NA
ATOM     38  C   UNL     1       5.120   3.737  15.351  0.00  0.00    +0.000 C 
ATOM     39  C   UNL     1       5.692   4.310  14.043  0.00  0.00    +0.000 C 
ATOM     40  F   UNL     1       5.424   3.441  13.029  0.00  0.00    +0.000 F 
ENDBRANCH  32  37
ENDBRANCH   1  32
TORSDOF 7
ENDMDL
MODEL 6
REMARK VINA RESULT:      -9.6      3.297      9.386
REMARK  Name = 
REMARK  9 active torsions:
REMARK  status: ('A' for Active; 'I' for Inactive)
REMARK    1  A    between atoms: C_1  and  C_2
REMARK    2  A    between atoms: N_5  and  C_6
REMARK    3  A    between atoms: C_6  and  C_7
REMARK    4  A    between atoms: C_11  and  C_12
REMARK    5  A    between atoms: N_18  and  C_19
REMARK    6  A    between atoms: C_23  and  C_24
REMARK    7  A    between atoms: C_24  and  C_25
REMARK    8  A    between atoms: C_25  and  C_26
REMARK    9  A    between atoms: N_30  and  C_31
REMARK                            x       y       z     vdW  Elec       q    Type
REMARK                         _______ _______ _______ _____ _____    ______ ____
ROOT
ATOM      1  C   UNL     1       3.746   6.108  17.752  0.00  0.00    +0.000 A 
ATOM      2  C   UNL     1       3.161   7.371  17.878  0.00  0.00    +0.000 A 
ATOM      3  C   UNL     1       2.347   7.606  18.960  0.00  0.00    +0.000 A 
ATOM      4  C   UNL     1       2.044   6.638  19.905  0.00  0.00    +0.000 A 
ATOM      5  C   UNL     1       2.552   5.349  19.776  0.00  0.00    +0.000 A 
ATOM      6  C   UNL     1       3.437   5.106  18.699  0.00  0.00    +0.000 A 
ATOM      7  C   UNL     1       1.171   7.246  20.955  0.00  0.00    +0.000 C 
ATOM      8  N   UNL     1       1.016   8.628  20.508  0.00  0.00    +0.000 N 
ATOM      9  C   UNL     1       1.698   8.863  19.318  0.00  0.00    +0.000 C 
ATOM     10  O   UNL     1       1.821   9.868  18.641  0.00  0.00    +0.000 OA
ENDROOT
BRANCH   8  11
ATOM     11  C   UNL     1       0.256   9.579  21.227  0.00  0.00    +0.000 A 
ATOM     12  C   UNL     1      -0.173   9.340  22.535  0.00  0.00    +0.000 A 
ATOM     13  C   UNL     1      -0.897  10.302  23.233  0.00  0.00    +0.000 A 
ATOM     14  C   UNL     1      -1.242  11.500  22.613  0.00  0.00    +0.000 A 
ATOM     15  C   UNL     1      -0.885  11.769  21.279  0.00  0.00    +0.000 A 
ATOM     16  C   UNL     1      -0.096  10.797  20.630  0.00  0.00    +0.000 A 
BRANCH  15  17
ATOM     17  C   UNL     1      -1.380  13.079  20.511  0.00  0.00    +0.000 C 
ATOM     18  C   UNL     1      -2.910  13.315  20.338  0.00  0.00    +0.000 C 
ATOM     19  O   UNL     1      -2.767  14.697  20.775  0.00  0.00    +0.000 OA
ATOM     20  C   UNL     1      -1.502  14.356  21.394  0.00  0.00    +0.000 C 
BRANCH  17  21
ATOM     21  C   UNL     1      -0.574  13.322  19.222  0.00  0.00    +0.000 C 
BRANCH  21  22
ATOM     22  C   UNL     1       0.629  14.186  19.435  0.00  0.00    +0.000 A 
ATOM     23  N   UNL     1       1.777  13.802  19.957  0.00  0.00    +0.000 NA
ATOM     24  N   UNL     1       2.636  14.873  19.949  0.00  0.00    +0.000 NA
ATOM     25  C   UNL     1       1.998  15.890  19.423  0.00  0.00    +0.000 A 
ATOM     26  N   UNL     1       0.728  15.515  19.107  0.00  0.00    +0.000 N 
ATOM     27  C   UNL     1      -0.279  16.370  18.540  0.00  0.00    +0.000 C 
ENDBRANCH  21  22
ENDBRANCH  17  21
ENDBRANCH  15  17
ENDBRANCH   8  11
BRANCH   5  28
ATOM     28  C   UNL     1       2.170   4.229  20.708  0.00  0.00    +0.000 C 
ATOM     29  F   UNL     1       2.821   3.063  20.453  0.00  0.00    +0.000 F 
ATOM     30  F   UNL     1       2.447   4.530  22.008  0.00  0.00    +0.000 F 
ATOM     31  F   UNL     1       0.843   3.936  20.663  0.00  0.00    +0.000 F 
ENDBRANCH   5  28
BRANCH   1  32
ATOM     32  C   UNL     1       4.676   5.834  16.587  0.00  0.00    +0.000 C 
BRANCH  32  37
ATOM     33  C   UNL     1       7.730   5.411  13.083  0.00  0.00    +0.000 C 
ATOM     34  C   UNL     1       7.186   4.571  14.240  0.00  0.00    +0.000 C 
ATOM     35  C   UNL     1       7.539   5.231  15.577  0.00  0.00    +0.000 C 
ATOM     36  C   UNL     1       6.816   4.572  16.756  0.00  0.00    +0.000 C 
ATOM     37  N   UNL     1       5.351   4.522  16.605  0.00  0.00    +0.000 NA
ATOM     38  C   UNL     1       5.043   3.775  15.365  0.00  0.00    +0.000 C 
ATOM     39  C   UNL     1       5.673   4.370  14.094  0.00  0.00    +0.000 C 
ATOM     40  F   UNL     1       5.445   3.521  13.052  0.00  0.00    +0.000 F 
ENDBRANCH  32  37
ENDBRANCH   1  32
TORSDOF 7
ENDMDL
MODEL 7
REMARK VINA RESULT:      -9.6      3.312      9.245
REMARK  Name = 
REMARK  9 active torsions:
REMARK  status: ('A' for Active; 'I' for Inactive)
REMARK    1  A    between atoms: C_1  and  C_2
REMARK    2  A    between atoms: N_5  and  C_6
REMARK    3  A    between atoms: C_6  and  C_7
REMARK    4  A    between atoms: C_11  and  C_12
REMARK    5  A    between atoms: N_18  and  C_19
REMARK    6  A    between atoms: C_23  and  C_24
REMARK    7  A    between atoms: C_24  and  C_25
REMARK    8  A    between atoms: C_25  and  C_26
REMARK    9  A    between atoms: N_30  and  C_31
REMARK                            x       y       z     vdW  Elec       q    Type
REMARK                         _______ _______ _______ _____ _____    ______ ____
ROOT
ATOM      1  C   UNL     1       3.761   6.042  17.726  0.00  0.00    +0.000 A 
ATOM      2  C   UNL     1       3.221   7.322  17.871  0.00  0.00    +0.000 A 
ATOM      3  C   UNL     1       2.439   7.578  18.972  0.00  0.00    +0.000 A 
ATOM      4  C   UNL     1       2.125   6.616  19.920  0.00  0.00    +0.000 A 
ATOM      5  C   UNL     1       2.587   5.312  19.774  0.00  0.00    +0.000 A 
ATOM      6  C   UNL     1       3.439   5.045  18.676  0.00  0.00    +0.000 A 
ATOM      7  C   UNL     1       1.296   7.248  20.992  0.00  0.00    +0.000 C 
ATOM      8  N   UNL     1       1.178   8.636  20.554  0.00  0.00    +0.000 N 
ATOM      9  C   UNL     1       1.839   8.854  19.350  0.00  0.00    +0.000 C 
ATOM     10  O   UNL     1       1.981   9.858  18.675  0.00  0.00    +0.000 OA
ENDROOT
BRANCH   8  11
ATOM     11  C   UNL     1       0.465   9.608  21.294  0.00  0.00    +0.000 A 
ATOM     12  C   UNL     1      -0.333   9.260  22.386  0.00  0.00    +0.000 A 
ATOM     13  C   UNL     1      -1.003  10.237  23.117  0.00  0.00    +0.000 A 
ATOM     14  C   UNL     1      -0.921  11.573  22.734  0.00  0.00    +0.000 A 
ATOM     15  C   UNL     1      -0.177  11.972  21.608  0.00  0.00    +0.000 A 
ATOM     16  C   UNL     1       0.539  10.960  20.936  0.00  0.00    +0.000 A 
BRANCH  15  17
ATOM     17  C   UNL     1      -0.173  13.479  21.079  0.00  0.00    +0.000 C 
ATOM     18  C   UNL     1      -1.200  14.487  21.676  0.00  0.00    +0.000 C 
ATOM     19  O   UNL     1      -0.151  15.480  21.858  0.00  0.00    +0.000 OA
ATOM     20  C   UNL     1       0.840  14.425  21.787  0.00  0.00    +0.000 C 
BRANCH  17  21
ATOM     21  C   UNL     1      -0.075  13.543  19.544  0.00  0.00    +0.000 C 
BRANCH  21  22
ATOM     22  C   UNL     1       1.258  14.018  19.059  0.00  0.00    +0.000 A 
ATOM     23  N   UNL     1       2.348  13.285  18.949  0.00  0.00    +0.000 NA
ATOM     24  N   UNL     1       3.349  14.073  18.436  0.00  0.00    +0.000 NA
ATOM     25  C   UNL     1       2.853  15.271  18.243  0.00  0.00    +0.000 A 
ATOM     26  N   UNL     1       1.551  15.292  18.643  0.00  0.00    +0.000 N 
ATOM     27  C   UNL     1       0.687  16.440  18.613  0.00  0.00    +0.000 C 
ENDBRANCH  21  22
ENDBRANCH  17  21
ENDBRANCH  15  17
ENDBRANCH   8  11
BRANCH   5  28
ATOM     28  C   UNL     1       2.190   4.200  20.709  0.00  0.00    +0.000 C 
ATOM     29  F   UNL     1       2.527   4.433  22.005  0.00  0.00    +0.000 F 
ATOM     30  F   UNL     1       0.844   3.990  20.709  0.00  0.00    +0.000 F 
ATOM     31  F   UNL     1       2.758   3.009  20.382  0.00  0.00    +0.000 F 
ENDBRANCH   5  28
BRANCH   1  32
ATOM     32  C   UNL     1       4.654   5.743  16.539  0.00  0.00    +0.000 C 
BRANCH  32  37
ATOM     33  C   UNL     1       7.771   5.350  13.088  0.00  0.00    +0.000 C 
ATOM     34  C   UNL     1       7.223   4.508  14.242  0.00  0.00    +0.000 C 
ATOM     35  C   UNL     1       7.544   5.184  15.579  0.00  0.00    +0.000 C 
ATOM     36  C   UNL     1       6.813   4.521  16.752  0.00  0.00    +0.000 C 
ATOM     37  N   UNL     1       5.353   4.443  16.578  0.00  0.00    +0.000 NA
ATOM     38  C   UNL     1       5.077   3.682  15.339  0.00  0.00    +0.000 C 
ATOM     39  C   UNL     1       5.717   4.280  14.073  0.00  0.00    +0.000 C 
ATOM     40  F   UNL     1       5.521   3.420  13.035  0.00  0.00    +0.000 F 
ENDBRANCH  32  37
ENDBRANCH   1  32
TORSDOF 7
ENDMDL
MODEL 8
REMARK VINA RESULT:      -9.5      3.397      9.366
REMARK  Name = 
REMARK  9 active torsions:
REMARK  status: ('A' for Active; 'I' for Inactive)
REMARK    1  A    between atoms: C_1  and  C_2
REMARK    2  A    between atoms: N_5  and  C_6
REMARK    3  A    between atoms: C_6  and  C_7
REMARK    4  A    between atoms: C_11  and  C_12
REMARK    5  A    between atoms: N_18  and  C_19
REMARK    6  A    between atoms: C_23  and  C_24
REMARK    7  A    between atoms: C_24  and  C_25
REMARK    8  A    between atoms: C_25  and  C_26
REMARK    9  A    between atoms: N_30  and  C_31
REMARK                            x       y       z     vdW  Elec       q    Type
REMARK                         _______ _______ _______ _____ _____    ______ ____
ROOT
ATOM      1  C   UNL     1       3.739   6.076  17.751  0.00  0.00    +0.000 A 
ATOM      2  C   UNL     1       3.198   7.357  17.891  0.00  0.00    +0.000 A 
ATOM      3  C   UNL     1       2.401   7.611  18.981  0.00  0.00    +0.000 A 
ATOM      4  C   UNL     1       2.073   6.647  19.922  0.00  0.00    +0.000 A 
ATOM      5  C   UNL     1       2.536   5.342  19.779  0.00  0.00    +0.000 A 
ATOM      6  C   UNL     1       3.403   5.078  18.693  0.00  0.00    +0.000 A 
ATOM      7  C   UNL     1       1.230   7.276  20.984  0.00  0.00    +0.000 C 
ATOM      8  N   UNL     1       1.119   8.666  20.548  0.00  0.00    +0.000 N 
ATOM      9  C   UNL     1       1.798   8.887  19.354  0.00  0.00    +0.000 C 
ATOM     10  O   UNL     1       1.950   9.892  18.684  0.00  0.00    +0.000 OA
ENDROOT
BRANCH   8  11
ATOM     11  C   UNL     1       0.397   9.636  21.281  0.00  0.00    +0.000 A 
ATOM     12  C   UNL     1      -0.285   9.313  22.456  0.00  0.00    +0.000 A 
ATOM     13  C   UNL     1      -0.966  10.291  23.176  0.00  0.00    +0.000 A 
ATOM     14  C   UNL     1      -1.012  11.599  22.701  0.00  0.00    +0.000 A 
ATOM     15  C   UNL     1      -0.391  11.968  21.494  0.00  0.00    +0.000 A 
ATOM     16  C   UNL     1       0.343  10.963  20.831  0.00  0.00    +0.000 A 
BRANCH  15  17
ATOM     17  C   UNL     1      -0.540  13.431  20.870  0.00  0.00    +0.000 C 
ATOM     18  C   UNL     1      -1.883  13.820  20.183  0.00  0.00    +0.000 C 
ATOM     19  O   UNL     1      -1.908  15.085  20.903  0.00  0.00    +0.000 OA
ATOM     20  C   UNL     1      -0.983  14.535  21.873  0.00  0.00    +0.000 C 
BRANCH  17  21
ATOM     21  C   UNL     1       0.703  13.831  20.055  0.00  0.00    +0.000 C 
BRANCH  21  22
ATOM     22  C   UNL     1       1.785  14.437  20.892  0.00  0.00    +0.000 A 
ATOM     23  N   UNL     1       2.579  13.788  21.720  0.00  0.00    +0.000 NA
ATOM     24  N   UNL     1       3.457  14.688  22.272  0.00  0.00    +0.000 NA
ATOM     25  C   UNL     1       3.185  15.868  21.771  0.00  0.00    +0.000 A 
ATOM     26  N   UNL     1       2.127  15.765  20.919  0.00  0.00    +0.000 N 
ATOM     27  C   UNL     1       1.521  16.855  20.205  0.00  0.00    +0.000 C 
ENDBRANCH  21  22
ENDBRANCH  17  21
ENDBRANCH  15  17
ENDBRANCH   8  11
BRANCH   5  28
ATOM     28  C   UNL     1       2.124   4.229  20.706  0.00  0.00    +0.000 C 
ATOM     29  F   UNL     1       0.779   4.040  20.765  0.00  0.00    +0.000 F 
ATOM     30  F   UNL     1       2.650   3.030  20.328  0.00  0.00    +0.000 F 
ATOM     31  F   UNL     1       2.531   4.432  21.987  0.00  0.00    +0.000 F 
ENDBRANCH   5  28
BRANCH   1  32
ATOM     32  C   UNL     1       4.649   5.780  16.575  0.00  0.00    +0.000 C 
BRANCH  32  37
ATOM     33  C   UNL     1       7.765   5.360  13.126  0.00  0.00    +0.000 C 
ATOM     34  C   UNL     1       7.210   4.524  14.281  0.00  0.00    +0.000 C 
ATOM     35  C   UNL     1       7.534   5.198  15.618  0.00  0.00    +0.000 C 
ATOM     36  C   UNL     1       6.798   4.541  16.790  0.00  0.00    +0.000 C 
ATOM     37  N   UNL     1       5.337   4.475  16.616  0.00  0.00    +0.000 NA
ATOM     38  C   UNL     1       5.056   3.715  15.376  0.00  0.00    +0.000 C 
ATOM     39  C   UNL     1       5.702   4.307  14.111  0.00  0.00    +0.000 C 
ATOM     40  F   UNL     1       5.500   3.448  13.073  0.00  0.00    +0.000 F 
ENDBRANCH  32  37
ENDBRANCH   1  32
TORSDOF 7
ENDMDL
MODEL 9
REMARK VINA RESULT:      -9.5      0.937      1.442
REMARK  Name = 
REMARK  9 active torsions:
REMARK  status: ('A' for Active; 'I' for Inactive)
REMARK    1  A    between atoms: C_1  and  C_2
REMARK    2  A    between atoms: N_5  and  C_6
REMARK    3  A    between atoms: C_6  and  C_7
REMARK    4  A    between atoms: C_11  and  C_12
REMARK    5  A    between atoms: N_18  and  C_19
REMARK    6  A    between atoms: C_23  and  C_24
REMARK    7  A    between atoms: C_24  and  C_25
REMARK    8  A    between atoms: C_25  and  C_26
REMARK    9  A    between atoms: N_30  and  C_31
REMARK                            x       y       z     vdW  Elec       q    Type
REMARK                         _______ _______ _______ _____ _____    ______ ____
ROOT
ATOM      1  C   UNL     1       0.463  11.903  19.589  0.00  0.00    +0.000 A 
ATOM      2  C   UNL     1       1.167  11.085  18.702  0.00  0.00    +0.000 A 
ATOM      3  C   UNL     1       1.407   9.782  19.069  0.00  0.00    +0.000 A 
ATOM      4  C   UNL     1       1.022   9.256  20.293  0.00  0.00    +0.000 A 
ATOM      5  C   UNL     1       0.380  10.059  21.230  0.00  0.00    +0.000 A 
ATOM      6  C   UNL     1       0.076  11.387  20.846  0.00  0.00    +0.000 A 
ATOM      7  C   UNL     1       1.405   7.811  20.338  0.00  0.00    +0.000 C 
ATOM      8  N   UNL     1       2.033   7.587  19.039  0.00  0.00    +0.000 N 
ATOM      9  C   UNL     1       2.056   8.747  18.271  0.00  0.00    +0.000 C 
ATOM     10  O   UNL     1       2.476   8.966  17.149  0.00  0.00    +0.000 OA
ENDROOT
BRANCH   8  11
ATOM     11  C   UNL     1       2.545   6.328  18.650  0.00  0.00    +0.000 A 
ATOM     12  C   UNL     1       2.106   5.141  19.243  0.00  0.00    +0.000 A 
ATOM     13  C   UNL     1       2.604   3.910  18.825  0.00  0.00    +0.000 A 
ATOM     14  C   UNL     1       3.585   3.854  17.838  0.00  0.00    +0.000 A 
ATOM     15  C   UNL     1       4.104   5.022  17.248  0.00  0.00    +0.000 A 
ATOM     16  C   UNL     1       3.525   6.242  17.652  0.00  0.00    +0.000 A 
BRANCH  15  17
ATOM     17  C   UNL     1       5.317   4.986  16.209  0.00  0.00    +0.000 C 
ATOM     18  C   UNL     1       6.031   3.628  15.936  0.00  0.00    +0.000 C 
ATOM     19  O   UNL     1       5.966   3.860  14.500  0.00  0.00    +0.000 OA
ATOM     20  C   UNL     1       4.904   4.821  14.717  0.00  0.00    +0.000 C 
BRANCH  17  21
ATOM     21  C   UNL     1       6.292   6.156  16.431  0.00  0.00    +0.000 C 
BRANCH  21  22
ATOM     22  C   UNL     1       7.069   6.040  17.704  0.00  0.00    +0.000 A 
ATOM     23  N   UNL     1       7.161   4.965  18.462  0.00  0.00    +0.000 NA
ATOM     24  N   UNL     1       7.990   5.249  19.518  0.00  0.00    +0.000 NA
ATOM     25  C   UNL     1       8.391   6.490  19.387  0.00  0.00    +0.000 A 
ATOM     26  N   UNL     1       7.820   7.036  18.278  0.00  0.00    +0.000 N 
ATOM     27  C   UNL     1       7.997   8.388  17.827  0.00  0.00    +0.000 C 
ENDBRANCH  21  22
ENDBRANCH  17  21
ENDBRANCH  15  17
ENDBRANCH   8  11
BRANCH   5  28
ATOM     28  C   UNL     1       0.038   9.576  22.615  0.00  0.00    +0.000 C 
ATOM     29  F   UNL     1      -0.579  10.514  23.381  0.00  0.00    +0.000 F 
ATOM     30  F   UNL     1      -0.805   8.507  22.588  0.00  0.00    +0.000 F 
ATOM     31  F   UNL     1       1.131   9.177  23.318  0.00  0.00    +0.000 F 
ENDBRANCH   5  28
BRANCH   1  32
ATOM     32  C   UNL     1       0.156  13.334  19.193  0.00  0.00    +0.000 C 
BRANCH  32  37
ATOM     33  C   UNL     1       1.371  17.595  17.726  0.00  0.00    +0.000 C 
ATOM     34  C   UNL     1       1.001  16.892  19.034  0.00  0.00    +0.000 C 
ATOM     35  C   UNL     1      -0.435  16.363  18.956  0.00  0.00    +0.000 C 
ATOM     36  C   UNL     1      -0.777  15.443  20.133  0.00  0.00    +0.000 C 
ATOM     37  N   UNL     1       0.154  14.313  20.297  0.00  0.00    +0.000 NA
ATOM     38  C   UNL     1       1.515  14.864  20.489  0.00  0.00    +0.000 C 
ATOM     39  C   UNL     1       1.999  15.769  19.342  0.00  0.00    +0.000 C 
ATOM     40  F   UNL     1       3.189  16.330  19.698  0.00  0.00    +0.000 F 
ENDBRANCH  32  37
ENDBRANCH   1  32
TORSDOF 7
ENDMDL
