MODEL 1
REMARK VINA RESULT:      -8.2      0.000      0.000
REMARK  Name = 
REMARK  10 active torsions:
REMARK  status: ('A' for Active; 'I' for Inactive)
REMARK    1  A    between atoms: C_1  and  O_2
REMARK    2  A    between atoms: O_2  and  C_3
REMARK    3  A    between atoms: C_3  and  C_5
REMARK    4  A    between atoms: C_5  and  C_6
REMARK    5  A    between atoms: N_15  and  C_16
REMARK    6  A    between atoms: C_20  and  C_21
REMARK    7  A    between atoms: C_21  and  C_22
REMARK    8  A    between atoms: C_21  and  C_23
REMARK    9  A    between atoms: C_23  and  C_24
REMARK   10  A    between atoms: N_28  and  C_29
REMARK                            x       y       z     vdW  Elec       q    Type
REMARK                         _______ _______ _______ _____ _____    ______ ____
ROOT
ATOM      1  C   UNL     1       9.898  11.697  19.163  0.00  0.00    +0.000 C 
ATOM      2  C   UNL     1       9.329  11.969  17.747  0.00  0.00    +0.000 C 
ATOM      3  C   UNL     1       8.112  11.060  17.654  0.00  0.00    +0.000 C 
ATOM      4  N   UNL     1       8.546   9.880  18.369  0.00  0.00    +0.000 N 
ATOM      5  C   UNL     1       8.180   8.557  18.224  0.00  0.00    +0.000 C 
ATOM      6  O   UNL     1       8.686   7.714  18.967  0.00  0.00    +0.000 OA
ATOM      7  N   UNL     1       7.283   8.288  17.219  0.00  0.00    +0.000 N 
ATOM      8  C   UNL     1       9.547  10.222  19.377  0.00  0.00    +0.000 C 
ATOM      9  H   UNL     1       7.129   9.004  16.529  0.00  0.00    +0.000 HD
ENDROOT
BRANCH   7  10
ATOM     10  C   UNL     1       6.768   7.004  16.901  0.00  0.00    +0.000 A 
ATOM     11  C   UNL     1       7.486   6.073  16.147  0.00  0.00    +0.000 A 
ATOM     12  C   UNL     1       6.925   4.849  15.800  0.00  0.00    +0.000 A 
ATOM     13  C   UNL     1       5.641   4.527  16.225  0.00  0.00    +0.000 A 
ATOM     14  C   UNL     1       4.908   5.414  17.030  0.00  0.00    +0.000 A 
ATOM     15  C   UNL     1       5.486   6.656  17.366  0.00  0.00    +0.000 A 
BRANCH  14  16
ATOM     16  C   UNL     1       3.532   5.022  17.565  0.00  0.00    +0.000 C 
ATOM     17  C   UNL     1       2.843   6.269  18.144  0.00  0.00    +0.000 C 
BRANCH  16  18
ATOM     18  C   UNL     1       3.617   3.868  18.595  0.00  0.00    +0.000 C 
BRANCH  18  19
ATOM     19  C   UNL     1       2.280   3.263  18.888  0.00  0.00    +0.000 A 
ATOM     20  N   UNL     1       1.496   2.666  18.011  0.00  0.00    +0.000 NA
ATOM     21  N   UNL     1       0.338   2.292  18.649  0.00  0.00    +0.000 NA
ATOM     22  C   UNL     1       0.443   2.654  19.904  0.00  0.00    +0.000 A 
ATOM     23  N   UNL     1       1.652   3.244  20.108  0.00  0.00    +0.000 N 
ATOM     24  C   UNL     1       2.139   3.728  21.372  0.00  0.00    +0.000 C 
ENDBRANCH  18  19
ENDBRANCH  16  18
ENDBRANCH  14  16
ENDBRANCH   7  10
BRANCH   1  25
ATOM     25  C   UNL     1      11.389  11.958  19.271  0.00  0.00    +0.000 C 
ATOM     26  F   UNL     1      12.119  11.312  18.335  0.00  0.00    +0.000 F 
ATOM     27  F   UNL     1      11.693  13.270  19.144  0.00  0.00    +0.000 F 
ATOM     28  F   UNL     1      11.879  11.569  20.473  0.00  0.00    +0.000 F 
ENDBRANCH   1  25
BRANCH   1  29
ATOM     29  C   UNL     1       9.236  12.625  20.152  0.00  0.00    +0.000 C 
ATOM     30  O   UNL     1       9.066  12.340  21.333  0.00  0.00    +0.000 OA
BRANCH  29  32
ATOM     31  C   UNL     1       7.884  14.520  20.391  0.00  0.00    +0.000 C 
ATOM     32  O   UNL     1       8.826  13.794  19.593  0.00  0.00    +0.000 OA
ENDBRANCH  29  32
ENDBRANCH   1  29
TORSDOF 7
ENDMDL
MODEL 2
REMARK VINA RESULT:      -8.1      5.747      7.943
REMARK  Name = 
REMARK  10 active torsions:
REMARK  status: ('A' for Active; 'I' for Inactive)
REMARK    1  A    between atoms: C_1  and  O_2
REMARK    2  A    between atoms: O_2  and  C_3
REMARK    3  A    between atoms: C_3  and  C_5
REMARK    4  A    between atoms: C_5  and  C_6
REMARK    5  A    between atoms: N_15  and  C_16
REMARK    6  A    between atoms: C_20  and  C_21
REMARK    7  A    between atoms: C_21  and  C_22
REMARK    8  A    between atoms: C_21  and  C_23
REMARK    9  A    between atoms: C_23  and  C_24
REMARK   10  A    between atoms: N_28  and  C_29
REMARK                            x       y       z     vdW  Elec       q    Type
REMARK                         _______ _______ _______ _____ _____    ______ ____
ROOT
ATOM      1  C   UNL     1       0.171  11.132  20.068  0.00  0.00    +0.000 C 
ATOM      2  C   UNL     1      -0.026   9.981  21.088  0.00  0.00    +0.000 C 
ATOM      3  C   UNL     1       1.163   9.063  20.847  0.00  0.00    +0.000 C 
ATOM      4  N   UNL     1       1.331   9.136  19.412  0.00  0.00    +0.000 N 
ATOM      5  C   UNL     1       1.833   8.211  18.519  0.00  0.00    +0.000 C 
ATOM      6  O   UNL     1       1.888   8.506  17.324  0.00  0.00    +0.000 OA
ATOM      7  N   UNL     1       2.209   7.002  19.052  0.00  0.00    +0.000 N 
ATOM      8  C   UNL     1       0.852  10.417  18.897  0.00  0.00    +0.000 C 
ATOM      9  H   UNL     1       1.896   6.787  19.983  0.00  0.00    +0.000 HD
ENDROOT
BRANCH   7  10
ATOM     10  C   UNL     1       2.755   5.917  18.318  0.00  0.00    +0.000 A 
ATOM     11  C   UNL     1       2.185   4.642  18.328  0.00  0.00    +0.000 A 
ATOM     12  C   UNL     1       2.783   3.586  17.648  0.00  0.00    +0.000 A 
ATOM     13  C   UNL     1       3.952   3.797  16.927  0.00  0.00    +0.000 A 
ATOM     14  C   UNL     1       4.527   5.076  16.848  0.00  0.00    +0.000 A 
ATOM     15  C   UNL     1       3.915   6.135  17.550  0.00  0.00    +0.000 A 
BRANCH  14  16
ATOM     16  C   UNL     1       5.764   5.322  15.986  0.00  0.00    +0.000 C 
ATOM     17  C   UNL     1       5.710   4.405  14.753  0.00  0.00    +0.000 C 
BRANCH  16  18
ATOM     18  C   UNL     1       7.075   5.145  16.791  0.00  0.00    +0.000 C 
BRANCH  18  19
ATOM     19  C   UNL     1       7.524   6.416  17.442  0.00  0.00    +0.000 A 
ATOM     20  N   UNL     1       7.580   7.599  16.862  0.00  0.00    +0.000 NA
ATOM     21  N   UNL     1       8.090   8.500  17.765  0.00  0.00    +0.000 NA
ATOM     22  C   UNL     1       8.321   7.853  18.882  0.00  0.00    +0.000 A 
ATOM     23  N   UNL     1       7.959   6.550  18.736  0.00  0.00    +0.000 N 
ATOM     24  C   UNL     1       8.026   5.548  19.766  0.00  0.00    +0.000 C 
ENDBRANCH  18  19
ENDBRANCH  16  18
ENDBRANCH  14  16
ENDBRANCH   7  10
BRANCH   1  25
ATOM     25  C   UNL     1      -1.127  11.802  19.660  0.00  0.00    +0.000 C 
ATOM     26  F   UNL     1      -1.983  11.993  20.690  0.00  0.00    +0.000 F 
ATOM     27  F   UNL     1      -0.928  13.021  19.108  0.00  0.00    +0.000 F 
ATOM     28  F   UNL     1      -1.799  11.072  18.737  0.00  0.00    +0.000 F 
ENDBRANCH   1  25
BRANCH   1  29
ATOM     29  C   UNL     1       1.022  12.210  20.693  0.00  0.00    +0.000 C 
ATOM     30  O   UNL     1       0.779  12.712  21.786  0.00  0.00    +0.000 OA
BRANCH  29  32
ATOM     31  C   UNL     1       2.183  14.004  19.738  0.00  0.00    +0.000 C 
ATOM     32  O   UNL     1       2.066  12.587  19.909  0.00  0.00    +0.000 OA
ENDBRANCH  29  32
ENDBRANCH   1  29
TORSDOF 7
ENDMDL
MODEL 3
REMARK VINA RESULT:      -8.1      5.840      7.858
REMARK  Name = 
REMARK  10 active torsions:
REMARK  status: ('A' for Active; 'I' for Inactive)
REMARK    1  A    between atoms: C_1  and  O_2
REMARK    2  A    between atoms: O_2  and  C_3
REMARK    3  A    between atoms: C_3  and  C_5
REMARK    4  A    between atoms: C_5  and  C_6
REMARK    5  A    between atoms: N_15  and  C_16
REMARK    6  A    between atoms: C_20  and  C_21
REMARK    7  A    between atoms: C_21  and  C_22
REMARK    8  A    between atoms: C_21  and  C_23
REMARK    9  A    between atoms: C_23  and  C_24
REMARK   10  A    between atoms: N_28  and  C_29
REMARK                            x       y       z     vdW  Elec       q    Type
REMARK                         _______ _______ _______ _____ _____    ______ ____
ROOT
ATOM      1  C   UNL     1       0.209  10.893  19.848  0.00  0.00    +0.000 C 
ATOM      2  C   UNL     1       0.043   9.763  20.897  0.00  0.00    +0.000 C 
ATOM      3  C   UNL     1       1.280   8.897  20.710  0.00  0.00    +0.000 C 
ATOM      4  N   UNL     1       1.480   8.938  19.278  0.00  0.00    +0.000 N 
ATOM      5  C   UNL     1       2.048   8.014  18.425  0.00  0.00    +0.000 C 
ATOM      6  O   UNL     1       2.118   8.278  17.223  0.00  0.00    +0.000 OA
ATOM      7  N   UNL     1       2.469   6.841  19.002  0.00  0.00    +0.000 N 
ATOM      8  C   UNL     1       0.952  10.179  18.715  0.00  0.00    +0.000 C 
ATOM      9  H   UNL     1       2.143   6.637  19.932  0.00  0.00    +0.000 HD
ENDROOT
BRANCH   7  10
ATOM     10  C   UNL     1       3.085   5.763  18.313  0.00  0.00    +0.000 A 
ATOM     11  C   UNL     1       2.753   4.429  18.558  0.00  0.00    +0.000 A 
ATOM     12  C   UNL     1       3.422   3.395  17.911  0.00  0.00    +0.000 A 
ATOM     13  C   UNL     1       4.421   3.684  16.988  0.00  0.00    +0.000 A 
ATOM     14  C   UNL     1       4.746   5.014  16.675  0.00  0.00    +0.000 A 
ATOM     15  C   UNL     1       4.066   6.051  17.346  0.00  0.00    +0.000 A 
BRANCH  14  16
ATOM     16  C   UNL     1       5.784   5.328  15.600  0.00  0.00    +0.000 C 
ATOM     17  C   UNL     1       5.351   4.679  14.275  0.00  0.00    +0.000 C 
BRANCH  16  18
ATOM     18  C   UNL     1       7.209   4.896  16.026  0.00  0.00    +0.000 C 
BRANCH  18  19
ATOM     19  C   UNL     1       7.521   5.268  17.442  0.00  0.00    +0.000 A 
ATOM     20  N   UNL     1       7.714   4.423  18.435  0.00  0.00    +0.000 NA
ATOM     21  N   UNL     1       7.921   5.145  19.585  0.00  0.00    +0.000 NA
ATOM     22  C   UNL     1       7.866   6.416  19.269  0.00  0.00    +0.000 A 
ATOM     23  N   UNL     1       7.642   6.544  17.933  0.00  0.00    +0.000 N 
ATOM     24  C   UNL     1       7.565   7.789  17.217  0.00  0.00    +0.000 C 
ENDBRANCH  18  19
ENDBRANCH  16  18
ENDBRANCH  14  16
ENDBRANCH   7  10
BRANCH   1  25
ATOM     25  C   UNL     1      -1.110  11.486  19.390  0.00  0.00    +0.000 C 
ATOM     26  F   UNL     1      -0.979  12.689  18.786  0.00  0.00    +0.000 F 
ATOM     27  F   UNL     1      -1.754  10.691  18.506  0.00  0.00    +0.000 F 
ATOM     28  F   UNL     1      -1.962  11.671  20.427  0.00  0.00    +0.000 F 
ENDBRANCH   1  25
BRANCH   1  29
ATOM     29  C   UNL     1       0.991  12.029  20.461  0.00  0.00    +0.000 C 
ATOM     30  O   UNL     1       1.920  12.592  19.891  0.00  0.00    +0.000 OA
BRANCH  29  32
ATOM     31  C   UNL     1       0.281  13.731  21.901  0.00  0.00    +0.000 C 
ATOM     32  O   UNL     1       0.578  12.343  21.717  0.00  0.00    +0.000 OA
ENDBRANCH  29  32
ENDBRANCH   1  29
TORSDOF 7
ENDMDL
MODEL 4
REMARK VINA RESULT:      -8.1      0.859      1.441
REMARK  Name = 
REMARK  10 active torsions:
REMARK  status: ('A' for Active; 'I' for Inactive)
REMARK    1  A    between atoms: C_1  and  O_2
REMARK    2  A    between atoms: O_2  and  C_3
REMARK    3  A    between atoms: C_3  and  C_5
REMARK    4  A    between atoms: C_5  and  C_6
REMARK    5  A    between atoms: N_15  and  C_16
REMARK    6  A    between atoms: C_20  and  C_21
REMARK    7  A    between atoms: C_21  and  C_22
REMARK    8  A    between atoms: C_21  and  C_23
REMARK    9  A    between atoms: C_23  and  C_24
REMARK   10  A    between atoms: N_28  and  C_29
REMARK                            x       y       z     vdW  Elec       q    Type
REMARK                         _______ _______ _______ _____ _____    ______ ____
ROOT
ATOM      1  C   UNL     1       9.860  11.587  19.110  0.00  0.00    +0.000 C 
ATOM      2  C   UNL     1       9.216  11.838  17.722  0.00  0.00    +0.000 C 
ATOM      3  C   UNL     1       8.010  10.910  17.700  0.00  0.00    +0.000 C 
ATOM      4  N   UNL     1       8.497   9.743  18.402  0.00  0.00    +0.000 N 
ATOM      5  C   UNL     1       8.143   8.415  18.287  0.00  0.00    +0.000 C 
ATOM      6  O   UNL     1       8.698   7.586  19.011  0.00  0.00    +0.000 OA
ATOM      7  N   UNL     1       7.200   8.123  17.331  0.00  0.00    +0.000 N 
ATOM      8  C   UNL     1       9.542  10.109  19.355  0.00  0.00    +0.000 C 
ATOM      9  H   UNL     1       7.001   8.830  16.643  0.00  0.00    +0.000 HD
ENDROOT
BRANCH   7  10
ATOM     10  C   UNL     1       6.689   6.828  17.051  0.00  0.00    +0.000 A 
ATOM     11  C   UNL     1       7.300   5.961  16.144  0.00  0.00    +0.000 A 
ATOM     12  C   UNL     1       6.736   4.725  15.846  0.00  0.00    +0.000 A 
ATOM     13  C   UNL     1       5.560   4.328  16.472  0.00  0.00    +0.000 A 
ATOM     14  C   UNL     1       4.945   5.149  17.431  0.00  0.00    +0.000 A 
ATOM     15  C   UNL     1       5.523   6.404  17.716  0.00  0.00    +0.000 A 
BRANCH  14  16
ATOM     16  C   UNL     1       3.700   4.675  18.179  0.00  0.00    +0.000 C 
ATOM     17  C   UNL     1       3.224   5.791  19.123  0.00  0.00    +0.000 C 
BRANCH  16  18
ATOM     18  C   UNL     1       3.946   3.341  18.926  0.00  0.00    +0.000 C 
BRANCH  18  19
ATOM     19  C   UNL     1       2.972   3.120  20.039  0.00  0.00    +0.000 A 
ATOM     20  N   UNL     1       3.260   3.118  21.326  0.00  0.00    +0.000 NA
ATOM     21  N   UNL     1       2.114   2.828  22.027  0.00  0.00    +0.000 NA
ATOM     22  C   UNL     1       1.147   2.674  21.157  0.00  0.00    +0.000 A 
ATOM     23  N   UNL     1       1.629   2.871  19.899  0.00  0.00    +0.000 N 
ATOM     24  C   UNL     1       0.848   2.828  18.692  0.00  0.00    +0.000 C 
ENDBRANCH  18  19
ENDBRANCH  16  18
ENDBRANCH  14  16
ENDBRANCH   7  10
BRANCH   1  25
ATOM     25  C   UNL     1      11.350  11.870  19.140  0.00  0.00    +0.000 C 
ATOM     26  F   UNL     1      12.039  11.240  18.163  0.00  0.00    +0.000 F 
ATOM     27  F   UNL     1      11.628  13.188  19.005  0.00  0.00    +0.000 F 
ATOM     28  F   UNL     1      11.910  11.483  20.312  0.00  0.00    +0.000 F 
ENDBRANCH   1  25
BRANCH   1  29
ATOM     29  C   UNL     1       9.236  12.515  20.123  0.00  0.00    +0.000 C 
ATOM     30  O   UNL     1       8.757  13.606  19.832  0.00  0.00    +0.000 OA
BRANCH  29  32
ATOM     31  C   UNL     1       8.239  12.515  22.241  0.00  0.00    +0.000 C 
ATOM     32  O   UNL     1       9.285  12.029  21.392  0.00  0.00    +0.000 OA
ENDBRANCH  29  32
ENDBRANCH   1  29
TORSDOF 7
ENDMDL
MODEL 5
REMARK VINA RESULT:      -8.0      7.383      9.794
REMARK  Name = 
REMARK  10 active torsions:
REMARK  status: ('A' for Active; 'I' for Inactive)
REMARK    1  A    between atoms: C_1  and  O_2
REMARK    2  A    between atoms: O_2  and  C_3
REMARK    3  A    between atoms: C_3  and  C_5
REMARK    4  A    between atoms: C_5  and  C_6
REMARK    5  A    between atoms: N_15  and  C_16
REMARK    6  A    between atoms: C_20  and  C_21
REMARK    7  A    between atoms: C_21  and  C_22
REMARK    8  A    between atoms: C_21  and  C_23
REMARK    9  A    between atoms: C_23  and  C_24
REMARK   10  A    between atoms: N_28  and  C_29
REMARK                            x       y       z     vdW  Elec       q    Type
REMARK                         _______ _______ _______ _____ _____    ______ ____
ROOT
ATOM      1  C   UNL     1       4.314   4.587  18.706  0.00  0.00    +0.000 C 
ATOM      2  C   UNL     1       3.898   5.167  17.329  0.00  0.00    +0.000 C 
ATOM      3  C   UNL     1       3.647   6.642  17.609  0.00  0.00    +0.000 C 
ATOM      4  N   UNL     1       3.051   6.616  18.926  0.00  0.00    +0.000 N 
ATOM      5  C   UNL     1       2.151   7.477  19.521  0.00  0.00    +0.000 C 
ATOM      6  O   UNL     1       1.787   7.252  20.677  0.00  0.00    +0.000 OA
ATOM      7  N   UNL     1       1.709   8.518  18.742  0.00  0.00    +0.000 N 
ATOM      8  C   UNL     1       3.509   5.451  19.680  0.00  0.00    +0.000 C 
ATOM      9  H   UNL     1       1.879   8.464  17.752  0.00  0.00    +0.000 HD
ENDROOT
BRANCH   7  10
ATOM     10  C   UNL     1       0.792   9.520  19.156  0.00  0.00    +0.000 A 
ATOM     11  C   UNL     1       0.056  10.285  18.248  0.00  0.00    +0.000 A 
ATOM     12  C   UNL     1      -0.785  11.302  18.687  0.00  0.00    +0.000 A 
ATOM     13  C   UNL     1      -0.921  11.554  20.048  0.00  0.00    +0.000 A 
ATOM     14  C   UNL     1      -0.239  10.771  20.994  0.00  0.00    +0.000 A 
ATOM     15  C   UNL     1       0.618   9.750  20.534  0.00  0.00    +0.000 A 
BRANCH  14  16
ATOM     16  C   UNL     1      -0.454  10.995  22.489  0.00  0.00    +0.000 C 
ATOM     17  C   UNL     1      -0.296   9.656  23.228  0.00  0.00    +0.000 C 
BRANCH  16  18
ATOM     18  C   UNL     1      -1.817  11.669  22.784  0.00  0.00    +0.000 C 
BRANCH  18  19
ATOM     19  C   UNL     1      -1.665  13.026  23.396  0.00  0.00    +0.000 A 
ATOM     20  N   UNL     1      -0.548  13.725  23.450  0.00  0.00    +0.000 NA
ATOM     21  N   UNL     1      -0.799  14.891  24.134  0.00  0.00    +0.000 NA
ATOM     22  C   UNL     1      -2.066  14.887  24.470  0.00  0.00    +0.000 A 
ATOM     23  N   UNL     1      -2.656  13.751  24.008  0.00  0.00    +0.000 N 
ATOM     24  C   UNL     1      -4.049  13.422  24.148  0.00  0.00    +0.000 C 
ENDBRANCH  18  19
ENDBRANCH  16  18
ENDBRANCH  14  16
ENDBRANCH   7  10
BRANCH   1  25
ATOM     25  C   UNL     1       4.004   3.109  18.852  0.00  0.00    +0.000 C 
ATOM     26  F   UNL     1       4.072   2.426  17.688  0.00  0.00    +0.000 F 
ATOM     27  F   UNL     1       4.853   2.486  19.702  0.00  0.00    +0.000 F 
ATOM     28  F   UNL     1       2.758   2.905  19.342  0.00  0.00    +0.000 F 
ENDBRANCH   1  25
BRANCH   1  29
ATOM     29  C   UNL     1       5.808   4.722  18.872  0.00  0.00    +0.000 C 
ATOM     30  O   UNL     1       6.337   5.123  19.903  0.00  0.00    +0.000 OA
BRANCH  29  32
ATOM     31  C   UNL     1       7.458   5.362  17.341  0.00  0.00    +0.000 C 
ATOM     32  O   UNL     1       6.501   4.380  17.754  0.00  0.00    +0.000 OA
ENDBRANCH  29  32
ENDBRANCH   1  29
TORSDOF 7
ENDMDL
MODEL 6
REMARK VINA RESULT:      -8.0      0.796      1.440
REMARK  Name = 
REMARK  10 active torsions:
REMARK  status: ('A' for Active; 'I' for Inactive)
REMARK    1  A    between atoms: C_1  and  O_2
REMARK    2  A    between atoms: O_2  and  C_3
REMARK    3  A    between atoms: C_3  and  C_5
REMARK    4  A    between atoms: C_5  and  C_6
REMARK    5  A    between atoms: N_15  and  C_16
REMARK    6  A    between atoms: C_20  and  C_21
REMARK    7  A    between atoms: C_21  and  C_22
REMARK    8  A    between atoms: C_21  and  C_23
REMARK    9  A    between atoms: C_23  and  C_24
REMARK   10  A    between atoms: N_28  and  C_29
REMARK                            x       y       z     vdW  Elec       q    Type
REMARK                         _______ _______ _______ _____ _____    ______ ____
ROOT
ATOM      1  C   UNL     1       9.786  11.648  18.955  0.00  0.00    +0.000 C 
ATOM      2  C   UNL     1       9.075  11.878  17.597  0.00  0.00    +0.000 C 
ATOM      3  C   UNL     1       7.890  10.924  17.632  0.00  0.00    +0.000 C 
ATOM      4  N   UNL     1       8.434   9.771  18.316  0.00  0.00    +0.000 N 
ATOM      5  C   UNL     1       8.106   8.434  18.221  0.00  0.00    +0.000 C 
ATOM      6  O   UNL     1       8.712   7.621  18.922  0.00  0.00    +0.000 OA
ATOM      7  N   UNL     1       7.128   8.117  17.310  0.00  0.00    +0.000 N 
ATOM      8  C   UNL     1       9.513  10.165  19.219  0.00  0.00    +0.000 C 
ATOM      9  H   UNL     1       6.882   8.817  16.629  0.00  0.00    +0.000 HD
ENDROOT
BRANCH   7  10
ATOM     10  C   UNL     1       6.634   6.811  17.057  0.00  0.00    +0.000 A 
ATOM     11  C   UNL     1       7.312   5.896  16.248  0.00  0.00    +0.000 A 
ATOM     12  C   UNL     1       6.767   4.646  15.971  0.00  0.00    +0.000 A 
ATOM     13  C   UNL     1       5.542   4.284  16.520  0.00  0.00    +0.000 A 
ATOM     14  C   UNL     1       4.856   5.156  17.382  0.00  0.00    +0.000 A 
ATOM     15  C   UNL     1       5.416   6.423  17.647  0.00  0.00    +0.000 A 
BRANCH  14  16
ATOM     16  C   UNL     1       3.553   4.723  18.051  0.00  0.00    +0.000 C 
ATOM     17  C   UNL     1       3.279   5.634  19.259  0.00  0.00    +0.000 C 
BRANCH  16  18
ATOM     18  C   UNL     1       3.571   3.224  18.439  0.00  0.00    +0.000 C 
BRANCH  18  19
ATOM     19  C   UNL     1       2.903   2.964  19.753  0.00  0.00    +0.000 A 
ATOM     20  N   UNL     1       3.509   2.880  20.921  0.00  0.00    +0.000 NA
ATOM     21  N   UNL     1       2.568   2.581  21.877  0.00  0.00    +0.000 NA
ATOM     22  C   UNL     1       1.405   2.503  21.276  0.00  0.00    +0.000 A 
ATOM     23  N   UNL     1       1.560   2.760  19.949  0.00  0.00    +0.000 N 
ATOM     24  C   UNL     1       0.497   2.808  18.982  0.00  0.00    +0.000 C 
ENDBRANCH  18  19
ENDBRANCH  16  18
ENDBRANCH  14  16
ENDBRANCH   7  10
BRANCH   1  25
ATOM     25  C   UNL     1      11.270  11.965  18.918  0.00  0.00    +0.000 C 
ATOM     26  F   UNL     1      11.580  13.162  19.463  0.00  0.00    +0.000 F 
ATOM     27  F   UNL     1      12.010  11.047  19.582  0.00  0.00    +0.000 F 
ATOM     28  F   UNL     1      11.744  11.989  17.649  0.00  0.00    +0.000 F 
ENDBRANCH   1  25
BRANCH   1  29
ATOM     29  C   UNL     1       9.187  12.566  19.993  0.00  0.00    +0.000 C 
ATOM     30  O   UNL     1       9.121  12.284  21.185  0.00  0.00    +0.000 OA
BRANCH  29  32
ATOM     31  C   UNL     1       8.448  14.741  20.439  0.00  0.00    +0.000 C 
ATOM     32  O   UNL     1       8.706  13.722  19.466  0.00  0.00    +0.000 OA
ENDBRANCH  29  32
ENDBRANCH   1  29
TORSDOF 7
ENDMDL
MODEL 7
REMARK VINA RESULT:      -7.9      4.391      9.570
REMARK  Name = 
REMARK  10 active torsions:
REMARK  status: ('A' for Active; 'I' for Inactive)
REMARK    1  A    between atoms: C_1  and  O_2
REMARK    2  A    between atoms: O_2  and  C_3
REMARK    3  A    between atoms: C_3  and  C_5
REMARK    4  A    between atoms: C_5  and  C_6
REMARK    5  A    between atoms: N_15  and  C_16
REMARK    6  A    between atoms: C_20  and  C_21
REMARK    7  A    between atoms: C_21  and  C_22
REMARK    8  A    between atoms: C_21  and  C_23
REMARK    9  A    between atoms: C_23  and  C_24
REMARK   10  A    between atoms: N_28  and  C_29
REMARK                            x       y       z     vdW  Elec       q    Type
REMARK                         _______ _______ _______ _____ _____    ______ ____
ROOT
ATOM      1  C   UNL     1       6.392   5.217  17.186  0.00  0.00    +0.000 C 
ATOM      2  C   UNL     1       7.691   4.875  17.961  0.00  0.00    +0.000 C 
ATOM      3  C   UNL     1       7.910   6.077  18.868  0.00  0.00    +0.000 C 
ATOM      4  N   UNL     1       7.477   7.181  18.039  0.00  0.00    +0.000 N 
ATOM      5  C   UNL     1       7.876   8.502  18.025  0.00  0.00    +0.000 C 
ATOM      6  O   UNL     1       7.350   9.274  17.221  0.00  0.00    +0.000 OA
ATOM      7  N   UNL     1       8.869   8.841  18.911  0.00  0.00    +0.000 N 
ATOM      8  C   UNL     1       6.471   6.743  17.074  0.00  0.00    +0.000 C 
ATOM      9  H   UNL     1       9.387   8.092  19.338  0.00  0.00    +0.000 HD
ENDROOT
BRANCH   7  10
ATOM     10  C   UNL     1       9.421  10.140  19.068  0.00  0.00    +0.000 A 
ATOM     11  C   UNL     1      10.090  10.800  18.036  0.00  0.00    +0.000 A 
ATOM     12  C   UNL     1      10.674  12.045  18.244  0.00  0.00    +0.000 A 
ATOM     13  C   UNL     1      10.575  12.661  19.487  0.00  0.00    +0.000 A 
ATOM     14  C   UNL     1       9.863  12.053  20.534  0.00  0.00    +0.000 A 
ATOM     15  C   UNL     1       9.285  10.786  20.311  0.00  0.00    +0.000 A 
BRANCH  14  16
ATOM     16  C   UNL     1       9.684  12.769  21.871  0.00  0.00    +0.000 C 
ATOM     17  C   UNL     1       8.520  12.121  22.638  0.00  0.00    +0.000 C 
BRANCH  16  18
ATOM     18  C   UNL     1       9.490  14.295  21.691  0.00  0.00    +0.000 C 
BRANCH  18  19
ATOM     19  C   UNL     1       8.076  14.657  21.364  0.00  0.00    +0.000 A 
ATOM     20  N   UNL     1       7.495  14.513  20.189  0.00  0.00    +0.000 NA
ATOM     21  N   UNL     1       6.216  15.007  20.273  0.00  0.00    +0.000 NA
ATOM     22  C   UNL     1       6.035  15.429  21.501  0.00  0.00    +0.000 A 
ATOM     23  N   UNL     1       7.164  15.209  22.229  0.00  0.00    +0.000 N 
ATOM     24  C   UNL     1       7.321  15.501  23.628  0.00  0.00    +0.000 C 
ENDBRANCH  18  19
ENDBRANCH  16  18
ENDBRANCH  14  16
ENDBRANCH   7  10
BRANCH   1  25
ATOM     25  C   UNL     1       6.306   4.542  15.830  0.00  0.00    +0.000 C 
ATOM     26  F   UNL     1       7.477   4.536  15.155  0.00  0.00    +0.000 F 
ATOM     27  F   UNL     1       5.920   3.248  15.922  0.00  0.00    +0.000 F 
ATOM     28  F   UNL     1       5.404   5.152  15.024  0.00  0.00    +0.000 F 
ENDBRANCH   1  25
BRANCH   1  29
ATOM     29  C   UNL     1       5.200   4.731  17.974  0.00  0.00    +0.000 C 
ATOM     30  O   UNL     1       4.063   5.160  17.809  0.00  0.00    +0.000 OA
BRANCH  29  32
ATOM     31  C   UNL     1       4.390   3.123  19.469  0.00  0.00    +0.000 C 
ATOM     32  O   UNL     1       5.522   3.791  18.901  0.00  0.00    +0.000 OA
ENDBRANCH  29  32
ENDBRANCH   1  29
TORSDOF 7
ENDMDL
MODEL 8
REMARK VINA RESULT:      -7.9      4.395      9.573
REMARK  Name = 
REMARK  10 active torsions:
REMARK  status: ('A' for Active; 'I' for Inactive)
REMARK    1  A    between atoms: C_1  and  O_2
REMARK    2  A    between atoms: O_2  and  C_3
REMARK    3  A    between atoms: C_3  and  C_5
REMARK    4  A    between atoms: C_5  and  C_6
REMARK    5  A    between atoms: N_15  and  C_16
REMARK    6  A    between atoms: C_20  and  C_21
REMARK    7  A    between atoms: C_21  and  C_22
REMARK    8  A    between atoms: C_21  and  C_23
REMARK    9  A    between atoms: C_23  and  C_24
REMARK   10  A    between atoms: N_28  and  C_29
REMARK                            x       y       z     vdW  Elec       q    Type
REMARK                         _______ _______ _______ _____ _____    ______ ____
ROOT
ATOM      1  C   UNL     1       6.396   5.120  17.187  0.00  0.00    +0.000 C 
ATOM      2  C   UNL     1       7.723   4.794  17.919  0.00  0.00    +0.000 C 
ATOM      3  C   UNL     1       7.944   5.987  18.837  0.00  0.00    +0.000 C 
ATOM      4  N   UNL     1       7.466   7.093  18.037  0.00  0.00    +0.000 N 
ATOM      5  C   UNL     1       7.838   8.422  18.030  0.00  0.00    +0.000 C 
ATOM      6  O   UNL     1       7.274   9.194  17.253  0.00  0.00    +0.000 OA
ATOM      7  N   UNL     1       8.849   8.769  18.893  0.00  0.00    +0.000 N 
ATOM      8  C   UNL     1       6.442   6.648  17.095  0.00  0.00    +0.000 C 
ATOM      9  H   UNL     1       9.395   8.024  19.294  0.00  0.00    +0.000 HD
ENDROOT
BRANCH   7  10
ATOM     10  C   UNL     1       9.379  10.076  19.053  0.00  0.00    +0.000 A 
ATOM     11  C   UNL     1      10.015  10.760  18.015  0.00  0.00    +0.000 A 
ATOM     12  C   UNL     1      10.579  12.014  18.225  0.00  0.00    +0.000 A 
ATOM     13  C   UNL     1      10.494  12.614  19.476  0.00  0.00    +0.000 A 
ATOM     14  C   UNL     1       9.815  11.982  20.531  0.00  0.00    +0.000 A 
ATOM     15  C   UNL     1       9.257  10.706  20.306  0.00  0.00    +0.000 A 
BRANCH  14  16
ATOM     16  C   UNL     1       9.650  12.680  21.879  0.00  0.00    +0.000 C 
ATOM     17  C   UNL     1       8.449  12.069  22.619  0.00  0.00    +0.000 C 
BRANCH  16  18
ATOM     18  C   UNL     1       9.525  14.216  21.725  0.00  0.00    +0.000 C 
BRANCH  18  19
ATOM     19  C   UNL     1       8.119  14.652  21.462  0.00  0.00    +0.000 A 
ATOM     20  N   UNL     1       7.481  14.544  20.312  0.00  0.00    +0.000 NA
ATOM     21  N   UNL     1       6.234  15.103  20.454  0.00  0.00    +0.000 NA
ATOM     22  C   UNL     1       6.129  15.528  21.689  0.00  0.00    +0.000 A 
ATOM     23  N   UNL     1       7.275  15.247  22.367  0.00  0.00    +0.000 N 
ATOM     24  C   UNL     1       7.508  15.524  23.758  0.00  0.00    +0.000 C 
ENDBRANCH  18  19
ENDBRANCH  16  18
ENDBRANCH  14  16
ENDBRANCH   7  10
BRANCH   1  25
ATOM     25  C   UNL     1       6.285   4.463  15.824  0.00  0.00    +0.000 C 
ATOM     26  F   UNL     1       5.418   5.085  14.994  0.00  0.00    +0.000 F 
ATOM     27  F   UNL     1       7.469   4.426  15.170  0.00  0.00    +0.000 F 
ATOM     28  F   UNL     1       5.864   3.178  15.921  0.00  0.00    +0.000 F 
ENDBRANCH   1  25
BRANCH   1  29
ATOM     29  C   UNL     1       5.238   4.599  18.001  0.00  0.00    +0.000 C 
ATOM     30  O   UNL     1       5.361   3.763  18.890  0.00  0.00    +0.000 OA
BRANCH  29  32
ATOM     31  C   UNL     1       2.980   4.174  17.554  0.00  0.00    +0.000 C 
ATOM     32  O   UNL     1       4.043   5.130  17.629  0.00  0.00    +0.000 OA
ENDBRANCH  29  32
ENDBRANCH   1  29
TORSDOF 7
ENDMDL
MODEL 9
REMARK VINA RESULT:      -7.8      4.385      9.533
REMARK  Name = 
REMARK  10 active torsions:
REMARK  status: ('A' for Active; 'I' for Inactive)
REMARK    1  A    between atoms: C_1  and  O_2
REMARK    2  A    between atoms: O_2  and  C_3
REMARK    3  A    between atoms: C_3  and  C_5
REMARK    4  A    between atoms: C_5  and  C_6
REMARK    5  A    between atoms: N_15  and  C_16
REMARK    6  A    between atoms: C_20  and  C_21
REMARK    7  A    between atoms: C_21  and  C_22
REMARK    8  A    between atoms: C_21  and  C_23
REMARK    9  A    between atoms: C_23  and  C_24
REMARK   10  A    between atoms: N_28  and  C_29
REMARK                            x       y       z     vdW  Elec       q    Type
REMARK                         _______ _______ _______ _____ _____    ______ ____
ROOT
ATOM      1  C   UNL     1       6.386   5.261  17.196  0.00  0.00    +0.000 C 
ATOM      2  C   UNL     1       7.685   4.916  17.968  0.00  0.00    +0.000 C 
ATOM      3  C   UNL     1       7.913   6.121  18.869  0.00  0.00    +0.000 C 
ATOM      4  N   UNL     1       7.485   7.223  18.035  0.00  0.00    +0.000 N 
ATOM      5  C   UNL     1       7.890   8.542  18.013  0.00  0.00    +0.000 C 
ATOM      6  O   UNL     1       7.366   9.312  17.206  0.00  0.00    +0.000 OA
ATOM      7  N   UNL     1       8.888   8.880  18.894  0.00  0.00    +0.000 N 
ATOM      8  C   UNL     1       6.473   6.785  17.076  0.00  0.00    +0.000 C 
ATOM      9  H   UNL     1       9.404   8.130  19.324  0.00  0.00    +0.000 HD
ENDROOT
BRANCH   7  10
ATOM     10  C   UNL     1       9.447  10.177  19.042  0.00  0.00    +0.000 A 
ATOM     11  C   UNL     1      10.125  10.824  18.007  0.00  0.00    +0.000 A 
ATOM     12  C   UNL     1      10.716  12.068  18.208  0.00  0.00    +0.000 A 
ATOM     13  C   UNL     1      10.616  12.694  19.445  0.00  0.00    +0.000 A 
ATOM     14  C   UNL     1       9.897  12.099  20.494  0.00  0.00    +0.000 A 
ATOM     15  C   UNL     1       9.311  10.834  20.280  0.00  0.00    +0.000 A 
BRANCH  14  16
ATOM     16  C   UNL     1       9.718  12.827  21.825  0.00  0.00    +0.000 C 
ATOM     17  C   UNL     1       8.609  12.133  22.634  0.00  0.00    +0.000 C 
BRANCH  16  18
ATOM     18  C   UNL     1       9.441  14.337  21.627  0.00  0.00    +0.000 C 
BRANCH  18  19
ATOM     19  C   UNL     1       7.979  14.643  21.526  0.00  0.00    +0.000 A 
ATOM     20  N   UNL     1       7.155  14.808  22.543  0.00  0.00    +0.000 NA
ATOM     21  N   UNL     1       5.892  15.020  22.046  0.00  0.00    +0.000 NA
ATOM     22  C   UNL     1       5.971  14.996  20.738  0.00  0.00    +0.000 A 
ATOM     23  N   UNL     1       7.263  14.787  20.364  0.00  0.00    +0.000 N 
ATOM     24  C   UNL     1       7.741  14.745  19.008  0.00  0.00    +0.000 C 
ENDBRANCH  18  19
ENDBRANCH  16  18
ENDBRANCH  14  16
ENDBRANCH   7  10
BRANCH   1  25
ATOM     25  C   UNL     1       6.292   4.579  15.844  0.00  0.00    +0.000 C 
ATOM     26  F   UNL     1       5.925   3.281  15.919  0.00  0.00    +0.000 F 
ATOM     27  F   UNL     1       5.394   5.176  15.027  0.00  0.00    +0.000 F 
ATOM     28  F   UNL     1       7.477   4.603  15.188  0.00  0.00    +0.000 F 
ENDBRANCH   1  25
BRANCH   1  29
ATOM     29  C   UNL     1       5.194   4.786  17.990  0.00  0.00    +0.000 C 
ATOM     30  O   UNL     1       4.055   5.202  17.809  0.00  0.00    +0.000 OA
BRANCH  29  32
ATOM     31  C   UNL     1       4.424   3.044  19.350  0.00  0.00    +0.000 C 
ATOM     32  O   UNL     1       5.519   3.872  18.942  0.00  0.00    +0.000 OA
ENDBRANCH  29  32
ENDBRANCH   1  29
TORSDOF 7
ENDMDL
