MODEL 1
REMARK VINA RESULT:      -8.2      0.000      0.000
REMARK  Name = 
REMARK  8 active torsions:
REMARK  status: ('A' for Active; 'I' for Inactive)
REMARK    1  A    between atoms: C_1  and  C_2
REMARK    2  A    between atoms: C_2  and  C_3
REMARK    3  A    between atoms: C_2  and  C_10
REMARK    4  A    between atoms: C_3  and  C_4
REMARK    5  A    between atoms: N_8  and  C_9
REMARK    6  A    between atoms: C_12  and  O_13
REMARK    7  A    between atoms: O_13  and  C_14
REMARK    8  A    between atoms: C_27  and  C_28
REMARK                            x       y       z     vdW  Elec       q    Type
REMARK                         _______ _______ _______ _____ _____    ______ ____
ROOT
ATOM      1  C   UNL     1      -0.192  11.374  18.717  0.00  0.00    +0.000 A 
ATOM      2  C   UNL     1       0.698  12.432  18.496  0.00  0.00    +0.000 A 
ATOM      3  C   UNL     1       2.026  12.144  18.211  0.00  0.00    +0.000 A 
ATOM      4  N   UNL     1       2.541  10.902  18.161  0.00  0.00    +0.000 NA
ATOM      5  C   UNL     1       1.711   9.898  18.500  0.00  0.00    +0.000 A 
ATOM      6  N   UNL     1       2.242   8.608  18.529  0.00  0.00    +0.000 N 
ATOM      7  C   UNL     1       3.203   8.175  17.541  0.00  0.00    +0.000 C 
ATOM      8  C   UNL     1       3.516   6.779  17.990  0.00  0.00    +0.000 A 
ATOM      9  C   UNL     1       2.810   6.498  19.161  0.00  0.00    +0.000 A 
ATOM     10  C   UNL     1       2.931   5.303  19.849  0.00  0.00    +0.000 A 
ATOM     11  C   UNL     1       3.772   4.338  19.305  0.00  0.00    +0.000 A 
ATOM     12  C   UNL     1       4.472   4.593  18.107  0.00  0.00    +0.000 A 
ATOM     13  C   UNL     1       4.357   5.822  17.430  0.00  0.00    +0.000 A 
ATOM     14  C   UNL     1       1.978   7.658  19.498  0.00  0.00    +0.000 C 
ATOM     15  O   UNL     1       1.258   7.710  20.477  0.00  0.00    +0.000 OA
ATOM     16  C   UNL     1       0.361  10.090  18.782  0.00  0.00    +0.000 A 
ENDROOT
BRANCH  13  17
ATOM     17  C   UNL     1       5.115   6.050  16.148  0.00  0.00    +0.000 C 
ATOM     18  F   UNL     1       4.609   7.053  15.380  0.00  0.00    +0.000 F 
ATOM     19  F   UNL     1       6.420   6.370  16.367  0.00  0.00    +0.000 F 
ATOM     20  F   UNL     1       5.130   4.945  15.351  0.00  0.00    +0.000 F 
ENDBRANCH  13  17
BRANCH   1  22
ATOM     21  C   UNL     1      -2.150  12.116  20.239  0.00  0.00    +0.000 C 
ATOM     22  C   UNL     1      -1.691  11.626  18.851  0.00  0.00    +0.000 C 
BRANCH  22  23
ATOM     23  C   UNL     1      -2.570  10.421  18.414  0.00  0.00    +0.000 C 
BRANCH  23  24
ATOM     24  C   UNL     1      -2.885  10.391  16.952  0.00  0.00    +0.000 A 
ATOM     25  N   UNL     1      -2.166   9.809  16.011  0.00  0.00    +0.000 NA
ATOM     26  N   UNL     1      -2.799   9.988  14.805  0.00  0.00    +0.000 NA
ATOM     27  C   UNL     1      -3.880  10.695  15.028  0.00  0.00    +0.000 A 
ATOM     28  N   UNL     1      -3.966  10.990  16.354  0.00  0.00    +0.000 N 
ATOM     29  C   UNL     1      -4.989  11.789  16.973  0.00  0.00    +0.000 C 
ENDBRANCH  23  24
ENDBRANCH  22  23
ENDBRANCH   1  22
BRANCH   3  30
ATOM     30  O   UNL     1       2.874  13.209  17.970  0.00  0.00    +0.000 OA
BRANCH  30  31
ATOM     31  C   UNL     1       2.487  14.444  18.617  0.00  0.00    +0.000 C 
ATOM     32  C   UNL     1       3.344  14.890  19.808  0.00  0.00    +0.000 C 
ATOM     33  O   UNL     1       3.392  16.253  19.309  0.00  0.00    +0.000 OA
ATOM     34  C   UNL     1       2.949  15.778  18.007  0.00  0.00    +0.000 C 
ENDBRANCH  30  31
ENDBRANCH   3  30
TORSDOF 6
ENDMDL
MODEL 2
REMARK VINA RESULT:      -8.1      1.929      2.958
REMARK  Name = 
REMARK  8 active torsions:
REMARK  status: ('A' for Active; 'I' for Inactive)
REMARK    1  A    between atoms: C_1  and  C_2
REMARK    2  A    between atoms: C_2  and  C_3
REMARK    3  A    between atoms: C_2  and  C_10
REMARK    4  A    between atoms: C_3  and  C_4
REMARK    5  A    between atoms: N_8  and  C_9
REMARK    6  A    between atoms: C_12  and  O_13
REMARK    7  A    between atoms: O_13  and  C_14
REMARK    8  A    between atoms: C_27  and  C_28
REMARK                            x       y       z     vdW  Elec       q    Type
REMARK                         _______ _______ _______ _____ _____    ______ ____
ROOT
ATOM      1  C   UNL     1      -0.182  10.824  18.881  0.00  0.00    +0.000 A 
ATOM      2  C   UNL     1       0.631  11.931  18.608  0.00  0.00    +0.000 A 
ATOM      3  C   UNL     1       1.953  11.718  18.243  0.00  0.00    +0.000 A 
ATOM      4  N   UNL     1       2.534  10.508  18.158  0.00  0.00    +0.000 NA
ATOM      5  C   UNL     1       1.785   9.458  18.545  0.00  0.00    +0.000 A 
ATOM      6  N   UNL     1       2.389   8.200  18.539  0.00  0.00    +0.000 N 
ATOM      7  C   UNL     1       3.311   7.821  17.492  0.00  0.00    +0.000 C 
ATOM      8  C   UNL     1       3.730   6.446  17.917  0.00  0.00    +0.000 A 
ATOM      9  C   UNL     1       3.114   6.127  19.129  0.00  0.00    +0.000 A 
ATOM     10  C   UNL     1       3.344   4.942  19.806  0.00  0.00    +0.000 A 
ATOM     11  C   UNL     1       4.204   4.025  19.209  0.00  0.00    +0.000 A 
ATOM     12  C   UNL     1       4.814   4.318  17.971  0.00  0.00    +0.000 A 
ATOM     13  C   UNL     1       4.588   5.539  17.305  0.00  0.00    +0.000 A 
ATOM     14  C   UNL     1       2.240   7.238  19.520  0.00  0.00    +0.000 C 
ATOM     15  O   UNL     1       1.579   7.250  20.541  0.00  0.00    +0.000 OA
ATOM     16  C   UNL     1       0.446   9.573  18.909  0.00  0.00    +0.000 A 
ENDROOT
BRANCH  13  17
ATOM     17  C   UNL     1       5.252   5.808  15.979  0.00  0.00    +0.000 C 
ATOM     18  F   UNL     1       4.776   6.910  15.339  0.00  0.00    +0.000 F 
ATOM     19  F   UNL     1       6.594   5.997  16.102  0.00  0.00    +0.000 F 
ATOM     20  F   UNL     1       5.098   4.776  15.104  0.00  0.00    +0.000 F 
ENDBRANCH  13  17
BRANCH   1  22
ATOM     21  C   UNL     1      -2.572  10.581  17.916  0.00  0.00    +0.000 C 
ATOM     22  C   UNL     1      -1.682  10.990  19.107  0.00  0.00    +0.000 C 
BRANCH  22  23
ATOM     23  C   UNL     1      -2.089  12.410  19.589  0.00  0.00    +0.000 C 
BRANCH  23  24
ATOM     24  C   UNL     1      -2.789  12.431  20.912  0.00  0.00    +0.000 A 
ATOM     25  N   UNL     1      -4.088  12.562  21.105  0.00  0.00    +0.000 NA
ATOM     26  N   UNL     1      -4.335  12.512  22.455  0.00  0.00    +0.000 NA
ATOM     27  C   UNL     1      -3.181  12.374  23.062  0.00  0.00    +0.000 A 
ATOM     28  N   UNL     1      -2.181  12.340  22.139  0.00  0.00    +0.000 N 
ATOM     29  C   UNL     1      -0.776  12.247  22.427  0.00  0.00    +0.000 C 
ENDBRANCH  23  24
ENDBRANCH  22  23
ENDBRANCH   1  22
BRANCH   3  30
ATOM     30  O   UNL     1       2.723  12.830  17.952  0.00  0.00    +0.000 OA
BRANCH  30  31
ATOM     31  C   UNL     1       2.309  14.041  18.628  0.00  0.00    +0.000 C 
ATOM     32  C   UNL     1       3.087  14.416  19.895  0.00  0.00    +0.000 C 
ATOM     33  O   UNL     1       3.189  15.800  19.464  0.00  0.00    +0.000 OA
ATOM     34  C   UNL     1       2.832  15.392  18.114  0.00  0.00    +0.000 C 
ENDBRANCH  30  31
ENDBRANCH   3  30
TORSDOF 6
ENDMDL
MODEL 3
REMARK VINA RESULT:      -8.0      1.972      2.961
REMARK  Name = 
REMARK  8 active torsions:
REMARK  status: ('A' for Active; 'I' for Inactive)
REMARK    1  A    between atoms: C_1  and  C_2
REMARK    2  A    between atoms: C_2  and  C_3
REMARK    3  A    between atoms: C_2  and  C_10
REMARK    4  A    between atoms: C_3  and  C_4
REMARK    5  A    between atoms: N_8  and  C_9
REMARK    6  A    between atoms: C_12  and  O_13
REMARK    7  A    between atoms: O_13  and  C_14
REMARK    8  A    between atoms: C_27  and  C_28
REMARK                            x       y       z     vdW  Elec       q    Type
REMARK                         _______ _______ _______ _____ _____    ______ ____
ROOT
ATOM      1  C   UNL     1      -0.171  10.908  18.852  0.00  0.00    +0.000 A 
ATOM      2  C   UNL     1       0.653  12.010  18.592  0.00  0.00    +0.000 A 
ATOM      3  C   UNL     1       1.977  11.789  18.238  0.00  0.00    +0.000 A 
ATOM      4  N   UNL     1       2.550  10.574  18.155  0.00  0.00    +0.000 NA
ATOM      5  C   UNL     1       1.789   9.529  18.530  0.00  0.00    +0.000 A 
ATOM      6  N   UNL     1       2.384   8.266  18.525  0.00  0.00    +0.000 N 
ATOM      7  C   UNL     1       3.313   7.885  17.487  0.00  0.00    +0.000 C 
ATOM      8  C   UNL     1       3.718   6.505  17.911  0.00  0.00    +0.000 A 
ATOM      9  C   UNL     1       3.087   6.186  19.115  0.00  0.00    +0.000 A 
ATOM     10  C   UNL     1       3.302   4.996  19.790  0.00  0.00    +0.000 A 
ATOM     11  C   UNL     1       4.161   4.076  19.198  0.00  0.00    +0.000 A 
ATOM     12  C   UNL     1       4.785   4.368  17.968  0.00  0.00    +0.000 A 
ATOM     13  C   UNL     1       4.575   5.593  17.304  0.00  0.00    +0.000 A 
ATOM     14  C   UNL     1       2.218   7.302  19.501  0.00  0.00    +0.000 C 
ATOM     15  O   UNL     1       1.547   7.315  20.516  0.00  0.00    +0.000 OA
ATOM     16  C   UNL     1       0.448   9.653  18.882  0.00  0.00    +0.000 A 
ENDROOT
BRANCH  13  17
ATOM     17  C   UNL     1       5.254   5.862  15.986  0.00  0.00    +0.000 C 
ATOM     18  F   UNL     1       4.783   6.962  15.338  0.00  0.00    +0.000 F 
ATOM     19  F   UNL     1       6.594   6.056  16.124  0.00  0.00    +0.000 F 
ATOM     20  F   UNL     1       5.114   4.828  15.110  0.00  0.00    +0.000 F 
ENDBRANCH  13  17
BRANCH   1  22
ATOM     21  C   UNL     1      -2.533  10.932  17.794  0.00  0.00    +0.000 C 
ATOM     22  C   UNL     1      -1.672  11.085  19.064  0.00  0.00    +0.000 C 
BRANCH  22  23
ATOM     23  C   UNL     1      -2.051  12.408  19.786  0.00  0.00    +0.000 C 
BRANCH  23  24
ATOM     24  C   UNL     1      -2.004  12.324  21.280  0.00  0.00    +0.000 A 
ATOM     25  N   UNL     1      -0.942  12.046  22.012  0.00  0.00    +0.000 NA
ATOM     26  N   UNL     1      -1.304  12.086  23.337  0.00  0.00    +0.000 NA
ATOM     27  C   UNL     1      -2.584  12.365  23.388  0.00  0.00    +0.000 A 
ATOM     28  N   UNL     1      -3.072  12.501  22.124  0.00  0.00    +0.000 N 
ATOM     29  C   UNL     1      -4.442  12.761  21.776  0.00  0.00    +0.000 C 
ENDBRANCH  23  24
ENDBRANCH  22  23
ENDBRANCH   1  22
BRANCH   3  30
ATOM     30  O   UNL     1       2.758  12.896  17.959  0.00  0.00    +0.000 OA
BRANCH  30  31
ATOM     31  C   UNL     1       2.396  14.087  18.696  0.00  0.00    +0.000 C 
ATOM     32  C   UNL     1       3.269  14.434  19.908  0.00  0.00    +0.000 C 
ATOM     33  O   UNL     1       3.335  15.829  19.506  0.00  0.00    +0.000 OA
ATOM     34  C   UNL     1       2.875  15.453  18.178  0.00  0.00    +0.000 C 
ENDBRANCH  30  31
ENDBRANCH   3  30
TORSDOF 6
ENDMDL
MODEL 4
REMARK VINA RESULT:      -7.9      2.215      3.300
REMARK  Name = 
REMARK  8 active torsions:
REMARK  status: ('A' for Active; 'I' for Inactive)
REMARK    1  A    between atoms: C_1  and  C_2
REMARK    2  A    between atoms: C_2  and  C_3
REMARK    3  A    between atoms: C_2  and  C_10
REMARK    4  A    between atoms: C_3  and  C_4
REMARK    5  A    between atoms: N_8  and  C_9
REMARK    6  A    between atoms: C_12  and  O_13
REMARK    7  A    between atoms: O_13  and  C_14
REMARK    8  A    between atoms: C_27  and  C_28
REMARK                            x       y       z     vdW  Elec       q    Type
REMARK                         _______ _______ _______ _____ _____    ______ ____
ROOT
ATOM      1  C   UNL     1      -0.828  11.463  19.165  0.00  0.00    +0.000 A 
ATOM      2  C   UNL     1      -0.018  12.580  18.927  0.00  0.00    +0.000 A 
ATOM      3  C   UNL     1       1.318  12.384  18.610  0.00  0.00    +0.000 A 
ATOM      4  N   UNL     1       1.915  11.181  18.541  0.00  0.00    +0.000 NA
ATOM      5  C   UNL     1       1.165  10.121  18.896  0.00  0.00    +0.000 A 
ATOM      6  N   UNL     1       1.783   8.870  18.906  0.00  0.00    +0.000 N 
ATOM      7  C   UNL     1       2.747   8.506  17.893  0.00  0.00    +0.000 C 
ATOM      8  C   UNL     1       3.165   7.134  18.327  0.00  0.00    +0.000 A 
ATOM      9  C   UNL     1       2.508   6.802  19.514  0.00  0.00    +0.000 A 
ATOM     10  C   UNL     1       2.727   5.616  20.194  0.00  0.00    +0.000 A 
ATOM     11  C   UNL     1       3.619   4.712  19.625  0.00  0.00    +0.000 A 
ATOM     12  C   UNL     1       4.271   5.018  18.412  0.00  0.00    +0.000 A 
ATOM     13  C   UNL     1       4.055   6.239  17.743  0.00  0.00    +0.000 A 
ATOM     14  C   UNL     1       1.608   7.901  19.877  0.00  0.00    +0.000 C 
ATOM     15  O   UNL     1       0.910   7.901  20.873  0.00  0.00    +0.000 OA
ATOM     16  C   UNL     1      -0.188  10.220  19.211  0.00  0.00    +0.000 A 
ENDROOT
BRANCH  13  17
ATOM     17  C   UNL     1       4.764   6.522  16.444  0.00  0.00    +0.000 C 
ATOM     18  F   UNL     1       4.990   5.414  15.687  0.00  0.00    +0.000 F 
ATOM     19  F   UNL     1       4.068   7.380  15.650  0.00  0.00    +0.000 F 
ATOM     20  F   UNL     1       5.985   7.095  16.635  0.00  0.00    +0.000 F 
ENDBRANCH  13  17
BRANCH   1  22
ATOM     21  C   UNL     1      -3.157  11.504  18.035  0.00  0.00    +0.000 C 
ATOM     22  C   UNL     1      -2.338  11.612  19.336  0.00  0.00    +0.000 C 
BRANCH  22  23
ATOM     23  C   UNL     1      -2.758  12.897  20.103  0.00  0.00    +0.000 C 
BRANCH  23  24
ATOM     24  C   UNL     1      -3.246  12.647  21.495  0.00  0.00    +0.000 A 
ATOM     25  N   UNL     1      -4.504  12.501  21.866  0.00  0.00    +0.000 NA
ATOM     26  N   UNL     1      -4.536  12.268  23.219  0.00  0.00    +0.000 NA
ATOM     27  C   UNL     1      -3.299  12.298  23.653  0.00  0.00    +0.000 A 
ATOM     28  N   UNL     1      -2.457  12.554  22.615  0.00  0.00    +0.000 N 
ATOM     29  C   UNL     1      -1.031  12.710  22.708  0.00  0.00    +0.000 C 
ENDBRANCH  23  24
ENDBRANCH  22  23
ENDBRANCH   1  22
BRANCH   3  30
ATOM     30  O   UNL     1       2.085  13.506  18.353  0.00  0.00    +0.000 OA
BRANCH  30  31
ATOM     31  C   UNL     1       2.641  14.136  19.530  0.00  0.00    +0.000 C 
ATOM     32  C   UNL     1       4.027  14.775  19.375  0.00  0.00    +0.000 C 
ATOM     33  O   UNL     1       3.594  15.970  20.078  0.00  0.00    +0.000 OA
ATOM     34  C   UNL     1       2.209  15.571  19.877  0.00  0.00    +0.000 C 
ENDBRANCH  30  31
ENDBRANCH   3  30
TORSDOF 6
ENDMDL
MODEL 5
REMARK VINA RESULT:      -7.9      1.897      2.587
REMARK  Name = 
REMARK  8 active torsions:
REMARK  status: ('A' for Active; 'I' for Inactive)
REMARK    1  A    between atoms: C_1  and  C_2
REMARK    2  A    between atoms: C_2  and  C_3
REMARK    3  A    between atoms: C_2  and  C_10
REMARK    4  A    between atoms: C_3  and  C_4
REMARK    5  A    between atoms: N_8  and  C_9
REMARK    6  A    between atoms: C_12  and  O_13
REMARK    7  A    between atoms: O_13  and  C_14
REMARK    8  A    between atoms: C_27  and  C_28
REMARK                            x       y       z     vdW  Elec       q    Type
REMARK                         _______ _______ _______ _____ _____    ______ ____
ROOT
ATOM      1  C   UNL     1      -0.222  10.802  18.902  0.00  0.00    +0.000 A 
ATOM      2  C   UNL     1       0.578  11.922  18.645  0.00  0.00    +0.000 A 
ATOM      3  C   UNL     1       1.903  11.732  18.283  0.00  0.00    +0.000 A 
ATOM      4  N   UNL     1       2.500  10.529  18.187  0.00  0.00    +0.000 NA
ATOM      5  C   UNL     1       1.764   9.466  18.559  0.00  0.00    +0.000 A 
ATOM      6  N   UNL     1       2.384   8.216  18.541  0.00  0.00    +0.000 N 
ATOM      7  C   UNL     1       3.315   7.861  17.494  0.00  0.00    +0.000 C 
ATOM      8  C   UNL     1       3.750   6.487  17.906  0.00  0.00    +0.000 A 
ATOM      9  C   UNL     1       3.133   6.146  19.111  0.00  0.00    +0.000 A 
ATOM     10  C   UNL     1       3.376   4.956  19.776  0.00  0.00    +0.000 A 
ATOM     11  C   UNL     1       4.250   4.058  19.173  0.00  0.00    +0.000 A 
ATOM     12  C   UNL     1       4.861   4.372  17.941  0.00  0.00    +0.000 A 
ATOM     13  C   UNL     1       4.622   5.597  17.287  0.00  0.00    +0.000 A 
ATOM     14  C   UNL     1       2.243   7.241  19.511  0.00  0.00    +0.000 C 
ATOM     15  O   UNL     1       1.579   7.233  20.529  0.00  0.00    +0.000 OA
ATOM     16  C   UNL     1       0.422   9.560  18.919  0.00  0.00    +0.000 A 
ENDROOT
BRANCH  13  17
ATOM     17  C   UNL     1       5.287   5.890  15.967  0.00  0.00    +0.000 C 
ATOM     18  F   UNL     1       4.789   6.983  15.330  0.00  0.00    +0.000 F 
ATOM     19  F   UNL     1       6.624   6.112  16.099  0.00  0.00    +0.000 F 
ATOM     20  F   UNL     1       5.165   4.859  15.085  0.00  0.00    +0.000 F 
ENDBRANCH  13  17
BRANCH   1  22
ATOM     21  C   UNL     1      -2.610  10.350  18.012  0.00  0.00    +0.000 C 
ATOM     22  C   UNL     1      -1.725  10.946  19.124  0.00  0.00    +0.000 C 
BRANCH  22  23
ATOM     23  C   UNL     1      -2.178  12.404  19.415  0.00  0.00    +0.000 C 
BRANCH  23  24
ATOM     24  C   UNL     1      -3.106  12.536  20.581  0.00  0.00    +0.000 A 
ATOM     25  N   UNL     1      -2.761  12.541  21.855  0.00  0.00    +0.000 NA
ATOM     26  N   UNL     1      -3.895  12.702  22.613  0.00  0.00    +0.000 NA
ATOM     27  C   UNL     1      -4.913  12.769  21.790  0.00  0.00    +0.000 A 
ATOM     28  N   UNL     1      -4.472  12.648  20.508  0.00  0.00    +0.000 N 
ATOM     29  C   UNL     1      -5.300  12.626  19.333  0.00  0.00    +0.000 C 
ENDBRANCH  23  24
ENDBRANCH  22  23
ENDBRANCH   1  22
BRANCH   3  30
ATOM     30  O   UNL     1       2.659  12.856  18.007  0.00  0.00    +0.000 OA
BRANCH  30  31
ATOM     31  C   UNL     1       2.568  13.901  19.005  0.00  0.00    +0.000 C 
ATOM     32  C   UNL     1       3.884  14.572  19.415  0.00  0.00    +0.000 C 
ATOM     33  O   UNL     1       3.281  15.890  19.324  0.00  0.00    +0.000 OA
ATOM     34  C   UNL     1       2.183  15.320  18.557  0.00  0.00    +0.000 C 
ENDBRANCH  30  31
ENDBRANCH   3  30
TORSDOF 6
ENDMDL
MODEL 6
REMARK VINA RESULT:      -7.5      0.688      1.228
REMARK  Name = 
REMARK  8 active torsions:
REMARK  status: ('A' for Active; 'I' for Inactive)
REMARK    1  A    between atoms: C_1  and  C_2
REMARK    2  A    between atoms: C_2  and  C_3
REMARK    3  A    between atoms: C_2  and  C_10
REMARK    4  A    between atoms: C_3  and  C_4
REMARK    5  A    between atoms: N_8  and  C_9
REMARK    6  A    between atoms: C_12  and  O_13
REMARK    7  A    between atoms: O_13  and  C_14
REMARK    8  A    between atoms: C_27  and  C_28
REMARK                            x       y       z     vdW  Elec       q    Type
REMARK                         _______ _______ _______ _____ _____    ______ ____
ROOT
ATOM      1  C   UNL     1      -0.081  11.472  18.792  0.00  0.00    +0.000 A 
ATOM      2  C   UNL     1       0.828  12.509  18.546  0.00  0.00    +0.000 A 
ATOM      3  C   UNL     1       2.140  12.190  18.228  0.00  0.00    +0.000 A 
ATOM      4  N   UNL     1       2.625  10.937  18.167  0.00  0.00    +0.000 NA
ATOM      5  C   UNL     1       1.781   9.952  18.529  0.00  0.00    +0.000 A 
ATOM      6  N   UNL     1       2.282   8.650  18.547  0.00  0.00    +0.000 N 
ATOM      7  C   UNL     1       3.208   8.194  17.535  0.00  0.00    +0.000 C 
ATOM      8  C   UNL     1       3.500   6.791  17.978  0.00  0.00    +0.000 A 
ATOM      9  C   UNL     1       2.818   6.528  19.167  0.00  0.00    +0.000 A 
ATOM     10  C   UNL     1       2.929   5.332  19.854  0.00  0.00    +0.000 A 
ATOM     11  C   UNL     1       3.733   4.347  19.290  0.00  0.00    +0.000 A 
ATOM     12  C   UNL     1       4.408   4.584  18.075  0.00  0.00    +0.000 A 
ATOM     13  C   UNL     1       4.303   5.815  17.398  0.00  0.00    +0.000 A 
ATOM     14  C   UNL     1       2.022   7.707  19.524  0.00  0.00    +0.000 C 
ATOM     15  O   UNL     1       1.329   7.777  20.521  0.00  0.00    +0.000 OA
ATOM     16  C   UNL     1       0.444  10.176  18.845  0.00  0.00    +0.000 A 
ENDROOT
BRANCH  13  17
ATOM     17  C   UNL     1       5.033   6.024  16.096  0.00  0.00    +0.000 C 
ATOM     18  F   UNL     1       4.584   7.089  15.378  0.00  0.00    +0.000 F 
ATOM     19  F   UNL     1       6.366   6.231  16.278  0.00  0.00    +0.000 F 
ATOM     20  F   UNL     1       4.931   4.948  15.267  0.00  0.00    +0.000 F 
ENDBRANCH  13  17
BRANCH   1  22
ATOM     21  C   UNL     1      -1.993  12.188  20.384  0.00  0.00    +0.000 C 
ATOM     22  C   UNL     1      -1.570  11.759  18.965  0.00  0.00    +0.000 C 
BRANCH  22  23
ATOM     23  C   UNL     1      -2.490  10.603  18.481  0.00  0.00    +0.000 C 
BRANCH  23  24
ATOM     24  C   UNL     1      -3.790  11.060  17.898  0.00  0.00    +0.000 A 
ATOM     25  N   UNL     1      -4.892  11.337  18.570  0.00  0.00    +0.000 NA
ATOM     26  N   UNL     1      -5.856  11.741  17.679  0.00  0.00    +0.000 NA
ATOM     27  C   UNL     1      -5.333  11.681  16.478  0.00  0.00    +0.000 A 
ATOM     28  N   UNL     1      -4.048  11.239  16.561  0.00  0.00    +0.000 N 
ATOM     29  C   UNL     1      -3.168  11.000  15.450  0.00  0.00    +0.000 C 
ENDBRANCH  23  24
ENDBRANCH  22  23
ENDBRANCH   1  22
BRANCH   3  30
ATOM     30  O   UNL     1       3.006  13.235  17.963  0.00  0.00    +0.000 OA
BRANCH  30  31
ATOM     31  C   UNL     1       2.655  14.484  18.604  0.00  0.00    +0.000 C 
ATOM     32  C   UNL     1       3.451  14.855  19.861  0.00  0.00    +0.000 C 
ATOM     33  O   UNL     1       3.624  16.219  19.392  0.00  0.00    +0.000 OA
ATOM     34  C   UNL     1       3.246  15.792  18.053  0.00  0.00    +0.000 C 
ENDBRANCH  30  31
ENDBRANCH   3  30
TORSDOF 6
ENDMDL
MODEL 7
REMARK VINA RESULT:      -7.5      2.199      3.006
REMARK  Name = 
REMARK  8 active torsions:
REMARK  status: ('A' for Active; 'I' for Inactive)
REMARK    1  A    between atoms: C_1  and  C_2
REMARK    2  A    between atoms: C_2  and  C_3
REMARK    3  A    between atoms: C_2  and  C_10
REMARK    4  A    between atoms: C_3  and  C_4
REMARK    5  A    between atoms: N_8  and  C_9
REMARK    6  A    between atoms: C_12  and  O_13
REMARK    7  A    between atoms: O_13  and  C_14
REMARK    8  A    between atoms: C_27  and  C_28
REMARK                            x       y       z     vdW  Elec       q    Type
REMARK                         _______ _______ _______ _____ _____    ______ ____
ROOT
ATOM      1  C   UNL     1      -0.620  11.346  19.097  0.00  0.00    +0.000 A 
ATOM      2  C   UNL     1       0.226  12.426  18.814  0.00  0.00    +0.000 A 
ATOM      3  C   UNL     1       1.553  12.173  18.495  0.00  0.00    +0.000 A 
ATOM      4  N   UNL     1       2.107  10.947  18.466  0.00  0.00    +0.000 NA
ATOM      5  C   UNL     1       1.323   9.927  18.863  0.00  0.00    +0.000 A 
ATOM      6  N   UNL     1       1.898   8.657  18.914  0.00  0.00    +0.000 N 
ATOM      7  C   UNL     1       2.841   8.225  17.908  0.00  0.00    +0.000 C 
ATOM      8  C   UNL     1       3.215   6.854  18.388  0.00  0.00    +0.000 A 
ATOM      9  C   UNL     1       2.556   6.588  19.590  0.00  0.00    +0.000 A 
ATOM     10  C   UNL     1       2.740   5.420  20.310  0.00  0.00    +0.000 A 
ATOM     11  C   UNL     1       3.595   4.466  19.768  0.00  0.00    +0.000 A 
ATOM     12  C   UNL     1       4.248   4.706  18.541  0.00  0.00    +0.000 A 
ATOM     13  C   UNL     1       4.070   5.909  17.830  0.00  0.00    +0.000 A 
ATOM     14  C   UNL     1       1.698   7.730  19.919  0.00  0.00    +0.000 C 
ATOM     15  O   UNL     1       1.008   7.789  20.919  0.00  0.00    +0.000 OA
ATOM     16  C   UNL     1      -0.023  10.084  19.182  0.00  0.00    +0.000 A 
ENDROOT
BRANCH  13  17
ATOM     17  C   UNL     1       4.778   6.121  16.517  0.00  0.00    +0.000 C 
ATOM     18  F   UNL     1       6.125   6.271  16.637  0.00  0.00    +0.000 F 
ATOM     19  F   UNL     1       4.593   5.084  15.656  0.00  0.00    +0.000 F 
ATOM     20  F   UNL     1       4.338   7.233  15.865  0.00  0.00    +0.000 F 
ENDBRANCH  13  17
BRANCH   1  22
ATOM     21  C   UNL     1      -2.951  11.458  17.976  0.00  0.00    +0.000 C 
ATOM     22  C   UNL     1      -2.122  11.553  19.272  0.00  0.00    +0.000 C 
BRANCH  22  23
ATOM     23  C   UNL     1      -2.491  12.864  20.022  0.00  0.00    +0.000 C 
BRANCH  23  24
ATOM     24  C   UNL     1      -3.104  12.646  21.370  0.00  0.00    +0.000 A 
ATOM     25  N   UNL     1      -2.482  12.208  22.448  0.00  0.00    +0.000 NA
ATOM     26  N   UNL     1      -3.383  12.165  23.484  0.00  0.00    +0.000 NA
ATOM     27  C   UNL     1      -4.543  12.555  23.014  0.00  0.00    +0.000 A 
ATOM     28  N   UNL     1      -4.424  12.846  21.689  0.00  0.00    +0.000 N 
ATOM     29  C   UNL     1      -5.492  13.260  20.821  0.00  0.00    +0.000 C 
ENDBRANCH  23  24
ENDBRANCH  22  23
ENDBRANCH   1  22
BRANCH   3  30
ATOM     30  O   UNL     1       2.356  13.257  18.193  0.00  0.00    +0.000 OA
BRANCH  30  31
ATOM     31  C   UNL     1       2.300  14.333  19.160  0.00  0.00    +0.000 C 
ATOM     32  C   UNL     1       3.645  14.863  19.671  0.00  0.00    +0.000 C 
ATOM     33  O   UNL     1       3.208  16.238  19.503  0.00  0.00    +0.000 OA
ATOM     34  C   UNL     1       2.121  15.774  18.654  0.00  0.00    +0.000 C 
ENDBRANCH  30  31
ENDBRANCH   3  30
TORSDOF 6
ENDMDL
MODEL 8
REMARK VINA RESULT:      -7.4      2.274      2.972
REMARK  Name = 
REMARK  8 active torsions:
REMARK  status: ('A' for Active; 'I' for Inactive)
REMARK    1  A    between atoms: C_1  and  C_2
REMARK    2  A    between atoms: C_2  and  C_3
REMARK    3  A    between atoms: C_2  and  C_10
REMARK    4  A    between atoms: C_3  and  C_4
REMARK    5  A    between atoms: N_8  and  C_9
REMARK    6  A    between atoms: C_12  and  O_13
REMARK    7  A    between atoms: O_13  and  C_14
REMARK    8  A    between atoms: C_27  and  C_28
REMARK                            x       y       z     vdW  Elec       q    Type
REMARK                         _______ _______ _______ _____ _____    ______ ____
ROOT
ATOM      1  C   UNL     1      -1.127  11.554  19.240  0.00  0.00    +0.000 A 
ATOM      2  C   UNL     1      -0.322  12.666  18.967  0.00  0.00    +0.000 A 
ATOM      3  C   UNL     1       1.019  12.468  18.673  0.00  0.00    +0.000 A 
ATOM      4  N   UNL     1       1.625  11.267  18.660  0.00  0.00    +0.000 NA
ATOM      5  C   UNL     1       0.878  10.216  19.048  0.00  0.00    +0.000 A 
ATOM      6  N   UNL     1       1.504   8.971  19.117  0.00  0.00    +0.000 N 
ATOM      7  C   UNL     1       2.483   8.575  18.130  0.00  0.00    +0.000 C 
ATOM      8  C   UNL     1       2.905   7.224  18.624  0.00  0.00    +0.000 A 
ATOM      9  C   UNL     1       2.237   6.935  19.816  0.00  0.00    +0.000 A 
ATOM     10  C   UNL     1       2.456   5.779  20.545  0.00  0.00    +0.000 A 
ATOM     11  C   UNL     1       3.360   4.860  20.024  0.00  0.00    +0.000 A 
ATOM     12  C   UNL     1       4.024   5.121  18.807  0.00  0.00    +0.000 A 
ATOM     13  C   UNL     1       3.808   6.312  18.087  0.00  0.00    +0.000 A 
ATOM     14  C   UNL     1       1.325   8.042  20.123  0.00  0.00    +0.000 C 
ATOM     15  O   UNL     1       0.616   8.077  21.111  0.00  0.00    +0.000 OA
ATOM     16  C   UNL     1      -0.479  10.318  19.344  0.00  0.00    +0.000 A 
ENDROOT
BRANCH  13  17
ATOM     17  C   UNL     1       4.531   6.548  16.786  0.00  0.00    +0.000 C 
ATOM     18  F   UNL     1       3.945   7.485  15.992  0.00  0.00    +0.000 F 
ATOM     19  F   UNL     1       5.812   6.966  16.974  0.00  0.00    +0.000 F 
ATOM     20  F   UNL     1       4.613   5.419  16.027  0.00  0.00    +0.000 F 
ENDBRANCH  13  17
BRANCH   1  22
ATOM     21  C   UNL     1      -3.443  11.522  18.084  0.00  0.00    +0.000 C 
ATOM     22  C   UNL     1      -2.640  11.698  19.388  0.00  0.00    +0.000 C 
BRANCH  22  23
ATOM     23  C   UNL     1      -3.078  13.014  20.089  0.00  0.00    +0.000 C 
BRANCH  23  24
ATOM     24  C   UNL     1      -4.172  12.838  21.093  0.00  0.00    +0.000 A 
ATOM     25  N   UNL     1      -4.034  12.394  22.328  0.00  0.00    +0.000 NA
ATOM     26  N   UNL     1      -5.267  12.398  22.933  0.00  0.00    +0.000 NA
ATOM     27  C   UNL     1      -6.138  12.823  22.050  0.00  0.00    +0.000 A 
ATOM     28  N   UNL     1      -5.505  13.090  20.876  0.00  0.00    +0.000 N 
ATOM     29  C   UNL     1      -6.136  13.529  19.661  0.00  0.00    +0.000 C 
ENDBRANCH  23  24
ENDBRANCH  22  23
ENDBRANCH   1  22
BRANCH   3  30
ATOM     30  O   UNL     1       1.782  13.583  18.379  0.00  0.00    +0.000 OA
BRANCH  30  31
ATOM     31  C   UNL     1       2.764  13.922  19.387  0.00  0.00    +0.000 C 
ATOM     32  C   UNL     1       3.886  14.873  18.956  0.00  0.00    +0.000 C 
ATOM     33  O   UNL     1       3.736  15.657  20.170  0.00  0.00    +0.000 OA
ATOM     34  C   UNL     1       2.439  15.039  20.393  0.00  0.00    +0.000 C 
ENDBRANCH  30  31
ENDBRANCH   3  30
TORSDOF 6
ENDMDL
MODEL 9
REMARK VINA RESULT:      -7.3      4.299      5.665
REMARK  Name = 
REMARK  8 active torsions:
REMARK  status: ('A' for Active; 'I' for Inactive)
REMARK    1  A    between atoms: C_1  and  C_2
REMARK    2  A    between atoms: C_2  and  C_3
REMARK    3  A    between atoms: C_2  and  C_10
REMARK    4  A    between atoms: C_3  and  C_4
REMARK    5  A    between atoms: N_8  and  C_9
REMARK    6  A    between atoms: C_12  and  O_13
REMARK    7  A    between atoms: O_13  and  C_14
REMARK    8  A    between atoms: C_27  and  C_28
REMARK                            x       y       z     vdW  Elec       q    Type
REMARK                         _______ _______ _______ _____ _____    ______ ____
ROOT
ATOM      1  C   UNL     1      -2.459  13.751  23.429  0.00  0.00    +0.000 A 
ATOM      2  C   UNL     1      -1.794  14.934  23.083  0.00  0.00    +0.000 A 
ATOM      3  C   UNL     1      -0.697  14.863  22.236  0.00  0.00    +0.000 A 
ATOM      4  N   UNL     1      -0.196  13.719  21.735  0.00  0.00    +0.000 NA
ATOM      5  C   UNL     1      -0.760  12.577  22.173  0.00  0.00    +0.000 A 
ATOM      6  N   UNL     1      -0.208  11.376  21.727  0.00  0.00    +0.000 N 
ATOM      7  C   UNL     1       0.267  11.232  20.370  0.00  0.00    +0.000 C 
ATOM      8  C   UNL     1       0.802   9.831  20.365  0.00  0.00    +0.000 A 
ATOM      9  C   UNL     1       0.667   9.278  21.641  0.00  0.00    +0.000 A 
ATOM     10  C   UNL     1       1.119   8.012  21.968  0.00  0.00    +0.000 A 
ATOM     11  C   UNL     1       1.697   7.260  20.950  0.00  0.00    +0.000 A 
ATOM     12  C   UNL     1       1.816   7.791  19.648  0.00  0.00    +0.000 A 
ATOM     13  C   UNL     1       1.372   9.090  19.335  0.00  0.00    +0.000 A 
ATOM     14  C   UNL     1       0.003  10.256  22.509  0.00  0.00    +0.000 C 
ATOM     15  O   UNL     1      -0.240  10.059  23.685  0.00  0.00    +0.000 OA
ATOM     16  C   UNL     1      -1.873  12.552  23.008  0.00  0.00    +0.000 A 
ENDROOT
BRANCH  13  17
ATOM     17  C   UNL     1       1.509   9.616  17.930  0.00  0.00    +0.000 C 
ATOM     18  F   UNL     1       2.146  10.816  17.851  0.00  0.00    +0.000 F 
ATOM     19  F   UNL     1       2.209   8.768  17.127  0.00  0.00    +0.000 F 
ATOM     20  F   UNL     1       0.303   9.795  17.323  0.00  0.00    +0.000 F 
ENDBRANCH  13  17
BRANCH   1  22
ATOM     21  C   UNL     1      -4.200  12.450  24.836  0.00  0.00    +0.000 C 
ATOM     22  C   UNL     1      -3.773  13.790  24.205  0.00  0.00    +0.000 C 
BRANCH  22  23
ATOM     23  C   UNL     1      -4.962  14.378  23.395  0.00  0.00    +0.000 C 
BRANCH  23  24
ATOM     24  C   UNL     1      -5.835  13.346  22.753  0.00  0.00    +0.000 A 
ATOM     25  N   UNL     1      -5.523  12.600  21.710  0.00  0.00    +0.000 NA
ATOM     26  N   UNL     1      -6.579  11.765  21.440  0.00  0.00    +0.000 NA
ATOM     27  C   UNL     1      -7.525  12.033  22.307  0.00  0.00    +0.000 A 
ATOM     28  N   UNL     1      -7.115  13.031  23.136  0.00  0.00    +0.000 N 
ATOM     29  C   UNL     1      -7.897  13.628  24.184  0.00  0.00    +0.000 C 
ENDBRANCH  23  24
ENDBRANCH  22  23
ENDBRANCH   1  22
BRANCH   3  30
ATOM     30  O   UNL     1      -0.078  16.050  21.889  0.00  0.00    +0.000 OA
BRANCH  30  31
ATOM     31  C   UNL     1      -0.825  16.866  20.957  0.00  0.00    +0.000 C 
ATOM     32  C   UNL     1      -0.131  18.137  20.452  0.00  0.00    +0.000 C 
ATOM     33  O   UNL     1      -0.529  17.853  19.084  0.00  0.00    +0.000 OA
ATOM     34  C   UNL     1      -0.824  16.481  19.468  0.00  0.00    +0.000 C 
ENDBRANCH  30  31
ENDBRANCH   3  30
TORSDOF 6
ENDMDL
