MODEL 1
REMARK VINA RESULT:      -8.5      0.000      0.000
REMARK  Name = 
REMARK  7 active torsions:
REMARK  status: ('A' for Active; 'I' for Inactive)
REMARK    1  A    between atoms: C_1  and  C_2
REMARK    2  A    between atoms: C_2  and  C_3
REMARK    3  A    between atoms: C_2  and  C_10
REMARK    4  A    between atoms: C_3  and  N_4
REMARK    5  A    between atoms: C_14  and  N_15
REMARK    6  A    between atoms: C_16  and  C_18
REMARK    7  A    between atoms: C_22  and  C_23
REMARK                            x       y       z     vdW  Elec       q    Type
REMARK                         _______ _______ _______ _____ _____    ______ ____
ROOT
ATOM      1  C   UNL     1       4.941   5.490  16.933  0.00  0.00    +0.000 A 
ATOM      2  C   UNL     1       4.330   4.235  16.792  0.00  0.00    +0.000 A 
ATOM      3  C   UNL     1       3.058   4.002  17.298  0.00  0.00    +0.000 A 
ATOM      4  C   UNL     1       2.373   5.013  17.964  0.00  0.00    +0.000 A 
ATOM      5  C   UNL     1       2.966   6.258  18.171  0.00  0.00    +0.000 A 
ATOM      6  C   UNL     1       4.256   6.483  17.670  0.00  0.00    +0.000 A 
ENDROOT
BRANCH   5   7
ATOM      7  N   UNL     1       2.310   7.315  18.836  0.00  0.00    +0.000 N 
ATOM      8  C   UNL     1       1.803   7.281  20.125  0.00  0.00    +0.000 C 
ATOM      9  O   UNL     1       1.858   6.339  20.911  0.00  0.00    +0.000 OA
ATOM     10  H   UNL     1       2.233   8.214  18.368  0.00  0.00    +0.000 HD
BRANCH   8  11
ATOM     11  C   UNL     1       1.157   8.548  20.580  0.00  0.00    +0.000 A 
ATOM     12  C   UNL     1       0.893   8.716  21.934  0.00  0.00    +0.000 A 
ATOM     13  C   UNL     1       0.316   9.905  22.352  0.00  0.00    +0.000 A 
ATOM     14  C   UNL     1       0.020  10.883  21.406  0.00  0.00    +0.000 A 
ATOM     15  C   UNL     1       0.309  10.650  20.056  0.00  0.00    +0.000 A 
ATOM     16  N   UNL     1       0.878   9.481  19.627  0.00  0.00    +0.000 NA
BRANCH  15  17
ATOM     17  C   UNL     1      -0.007  11.732  19.029  0.00  0.00    +0.000 C 
ATOM     18  F   UNL     1       1.101  12.233  18.409  0.00  0.00    +0.000 F 
ATOM     19  F   UNL     1      -0.815  11.284  18.027  0.00  0.00    +0.000 F 
ATOM     20  F   UNL     1      -0.642  12.809  19.574  0.00  0.00    +0.000 F 
ENDBRANCH  15  17
ENDBRANCH   8  11
ENDBRANCH   5   7
BRANCH   1  22
ATOM     21  C   UNL     1       7.293   6.543  17.150  0.00  0.00    +0.000 C 
ATOM     22  C   UNL     1       6.274   5.815  16.255  0.00  0.00    +0.000 C 
BRANCH  22  23
ATOM     23  C   UNL     1       6.940   4.567  15.615  0.00  0.00    +0.000 C 
BRANCH  23  24
ATOM     24  N   UNL     1       6.801   4.443  14.177  0.00  0.00    +0.000 N 
ATOM     25  N   UNL     1       6.124   3.370  13.594  0.00  0.00    +0.000 N 
ATOM     26  C   UNL     1       6.440   3.519  12.279  0.00  0.00    +0.000 A 
ATOM     27  N   UNL     1       7.314   4.432  11.990  0.00  0.00    +0.000 NA
ATOM     28  C   UNL     1       7.618   5.009  13.210  0.00  0.00    +0.000 A 
ATOM     29  O   UNL     1       8.465   5.867  13.404  0.00  0.00    +0.000 OA
ATOM     30  H   UNL     1       5.145   3.240  13.837  0.00  0.00    +0.000 HD
ENDBRANCH  23  24
ENDBRANCH  22  23
ENDBRANCH   1  22
TORSDOF 6
ENDMDL
MODEL 2
REMARK VINA RESULT:      -8.5      1.618      2.099
REMARK  Name = 
REMARK  7 active torsions:
REMARK  status: ('A' for Active; 'I' for Inactive)
REMARK    1  A    between atoms: C_1  and  C_2
REMARK    2  A    between atoms: C_2  and  C_3
REMARK    3  A    between atoms: C_2  and  C_10
REMARK    4  A    between atoms: C_3  and  N_4
REMARK    5  A    between atoms: C_14  and  N_15
REMARK    6  A    between atoms: C_16  and  C_18
REMARK    7  A    between atoms: C_22  and  C_23
REMARK                            x       y       z     vdW  Elec       q    Type
REMARK                         _______ _______ _______ _____ _____    ______ ____
ROOT
ATOM      1  C   UNL     1       4.982   5.826  17.064  0.00  0.00    +0.000 A 
ATOM      2  C   UNL     1       4.430   4.542  17.186  0.00  0.00    +0.000 A 
ATOM      3  C   UNL     1       3.142   4.363  17.673  0.00  0.00    +0.000 A 
ATOM      4  C   UNL     1       2.381   5.462  18.058  0.00  0.00    +0.000 A 
ATOM      5  C   UNL     1       2.911   6.751  18.003  0.00  0.00    +0.000 A 
ATOM      6  C   UNL     1       4.217   6.923  17.522  0.00  0.00    +0.000 A 
ENDROOT
BRANCH   5   7
ATOM      7  N   UNL     1       2.177   7.895  18.378  0.00  0.00    +0.000 N 
ATOM      8  C   UNL     1       1.726   8.196  19.653  0.00  0.00    +0.000 C 
ATOM      9  O   UNL     1       1.906   7.533  20.671  0.00  0.00    +0.000 OA
ATOM     10  H   UNL     1       1.992   8.609  17.677  0.00  0.00    +0.000 HD
BRANCH   8  11
ATOM     11  C   UNL     1       0.972   9.480  19.766  0.00  0.00    +0.000 A 
ATOM     12  C   UNL     1       0.853  10.288  18.641  0.00  0.00    +0.000 A 
ATOM     13  C   UNL     1       0.131  11.466  18.749  0.00  0.00    +0.000 A 
ATOM     14  C   UNL     1      -0.444  11.800  19.972  0.00  0.00    +0.000 A 
ATOM     15  C   UNL     1      -0.284  10.943  21.068  0.00  0.00    +0.000 A 
ATOM     16  N   UNL     1       0.426   9.776  20.979  0.00  0.00    +0.000 NA
BRANCH  15  17
ATOM     17  C   UNL     1      -0.928  11.310  22.401  0.00  0.00    +0.000 C 
ATOM     18  F   UNL     1      -0.755  10.361  23.367  0.00  0.00    +0.000 F 
ATOM     19  F   UNL     1      -0.426  12.463  22.926  0.00  0.00    +0.000 F 
ATOM     20  F   UNL     1      -2.276  11.494  22.304  0.00  0.00    +0.000 F 
ENDBRANCH  15  17
ENDBRANCH   8  11
ENDBRANCH   5   7
BRANCH   1  22
ATOM     21  C   UNL     1       7.381   6.768  17.270  0.00  0.00    +0.000 C 
ATOM     22  C   UNL     1       6.337   6.057  16.391  0.00  0.00    +0.000 C 
BRANCH  22  23
ATOM     23  C   UNL     1       6.946   4.753  15.808  0.00  0.00    +0.000 C 
BRANCH  23  24
ATOM     24  N   UNL     1       6.780   4.561  14.381  0.00  0.00    +0.000 N 
ATOM     25  N   UNL     1       6.047   3.491  13.863  0.00  0.00    +0.000 N 
ATOM     26  C   UNL     1       6.351   3.556  12.538  0.00  0.00    +0.000 A 
ATOM     27  N   UNL     1       7.262   4.411  12.191  0.00  0.00    +0.000 NA
ATOM     28  C   UNL     1       7.608   5.037  13.375  0.00  0.00    +0.000 A 
ATOM     29  O   UNL     1       8.496   5.865  13.514  0.00  0.00    +0.000 OA
ATOM     30  H   UNL     1       5.068   3.419  14.125  0.00  0.00    +0.000 HD
ENDBRANCH  23  24
ENDBRANCH  22  23
ENDBRANCH   1  22
TORSDOF 6
ENDMDL
MODEL 3
REMARK VINA RESULT:      -8.5      2.173      2.671
REMARK  Name = 
REMARK  7 active torsions:
REMARK  status: ('A' for Active; 'I' for Inactive)
REMARK    1  A    between atoms: C_1  and  C_2
REMARK    2  A    between atoms: C_2  and  C_3
REMARK    3  A    between atoms: C_2  and  C_10
REMARK    4  A    between atoms: C_3  and  N_4
REMARK    5  A    between atoms: C_14  and  N_15
REMARK    6  A    between atoms: C_16  and  C_18
REMARK    7  A    between atoms: C_22  and  C_23
REMARK                            x       y       z     vdW  Elec       q    Type
REMARK                         _______ _______ _______ _____ _____    ______ ____
ROOT
ATOM      1  C   UNL     1       4.690   5.269  17.060  0.00  0.00    +0.000 A 
ATOM      2  C   UNL     1       4.006   4.048  16.973  0.00  0.00    +0.000 A 
ATOM      3  C   UNL     1       2.723   3.911  17.488  0.00  0.00    +0.000 A 
ATOM      4  C   UNL     1       2.101   4.989  18.110  0.00  0.00    +0.000 A 
ATOM      5  C   UNL     1       2.767   6.205  18.264  0.00  0.00    +0.000 A 
ATOM      6  C   UNL     1       4.066   6.331  17.754  0.00  0.00    +0.000 A 
ENDROOT
BRANCH   5   7
ATOM      7  N   UNL     1       2.175   7.325  18.883  0.00  0.00    +0.000 N 
ATOM      8  C   UNL     1       1.982   8.570  18.307  0.00  0.00    +0.000 C 
ATOM      9  O   UNL     1       2.269   8.902  17.161  0.00  0.00    +0.000 OA
ATOM     10  H   UNL     1       1.800   7.223  19.823  0.00  0.00    +0.000 HD
BRANCH   8  11
ATOM     11  C   UNL     1       1.326   9.578  19.194  0.00  0.00    +0.000 A 
ATOM     12  C   UNL     1       1.096  10.856  18.699  0.00  0.00    +0.000 A 
ATOM     13  C   UNL     1       0.464  11.777  19.519  0.00  0.00    +0.000 A 
ATOM     14  C   UNL     1       0.087  11.395  20.803  0.00  0.00    +0.000 A 
ATOM     15  C   UNL     1       0.350  10.092  21.242  0.00  0.00    +0.000 A 
ATOM     16  N   UNL     1       0.973   9.170  20.445  0.00  0.00    +0.000 NA
BRANCH  15  17
ATOM     17  C   UNL     1      -0.078   9.677  22.646  0.00  0.00    +0.000 C 
ATOM     18  F   UNL     1      -0.948   8.624  22.660  0.00  0.00    +0.000 F 
ATOM     19  F   UNL     1       0.973   9.293  23.424  0.00  0.00    +0.000 F 
ATOM     20  F   UNL     1      -0.704  10.680  23.325  0.00  0.00    +0.000 F 
ENDBRANCH  15  17
ENDBRANCH   8  11
ENDBRANCH   5   7
BRANCH   1  22
ATOM     21  C   UNL     1       7.158   6.005  17.287  0.00  0.00    +0.000 C 
ATOM     22  C   UNL     1       6.039   5.486  16.369  0.00  0.00    +0.000 C 
BRANCH  22  23
ATOM     23  C   UNL     1       6.531   4.225  15.608  0.00  0.00    +0.000 C 
BRANCH  23  24
ATOM     24  N   UNL     1       7.106   4.460  14.298  0.00  0.00    +0.000 N 
ATOM     25  N   UNL     1       7.973   5.528  14.057  0.00  0.00    +0.000 N 
ATOM     26  C   UNL     1       8.066   5.514  12.700  0.00  0.00    +0.000 A 
ATOM     27  N   UNL     1       7.283   4.693  12.071  0.00  0.00    +0.000 NA
ATOM     28  C   UNL     1       6.599   4.038  13.078  0.00  0.00    +0.000 A 
ATOM     29  O   UNL     1       5.698   3.228  12.922  0.00  0.00    +0.000 OA
ATOM     30  H   UNL     1       8.835   5.567  14.594  0.00  0.00    +0.000 HD
ENDBRANCH  23  24
ENDBRANCH  22  23
ENDBRANCH   1  22
TORSDOF 6
ENDMDL
MODEL 4
REMARK VINA RESULT:      -8.2      2.674      3.694
REMARK  Name = 
REMARK  7 active torsions:
REMARK  status: ('A' for Active; 'I' for Inactive)
REMARK    1  A    between atoms: C_1  and  C_2
REMARK    2  A    between atoms: C_2  and  C_3
REMARK    3  A    between atoms: C_2  and  C_10
REMARK    4  A    between atoms: C_3  and  N_4
REMARK    5  A    between atoms: C_14  and  N_15
REMARK    6  A    between atoms: C_16  and  C_18
REMARK    7  A    between atoms: C_22  and  C_23
REMARK                            x       y       z     vdW  Elec       q    Type
REMARK                         _______ _______ _______ _____ _____    ______ ____
ROOT
ATOM      1  C   UNL     1       4.557   3.977  16.785  0.00  0.00    +0.000 A 
ATOM      2  C   UNL     1       3.941   2.734  16.990  0.00  0.00    +0.000 A 
ATOM      3  C   UNL     1       2.714   2.644  17.636  0.00  0.00    +0.000 A 
ATOM      4  C   UNL     1       2.082   3.794  18.099  0.00  0.00    +0.000 A 
ATOM      5  C   UNL     1       2.686   5.044  17.963  0.00  0.00    +0.000 A 
ATOM      6  C   UNL     1       3.930   5.125  17.322  0.00  0.00    +0.000 A 
ENDROOT
BRANCH   5   7
ATOM      7  N   UNL     1       2.082   6.236  18.412  0.00  0.00    +0.000 N 
ATOM      8  C   UNL     1       2.600   7.514  18.283  0.00  0.00    +0.000 C 
ATOM      9  O   UNL     1       3.656   7.827  17.738  0.00  0.00    +0.000 OA
ATOM     10  H   UNL     1       1.155   6.188  18.828  0.00  0.00    +0.000 HD
BRANCH   8  11
ATOM     11  C   UNL     1       1.745   8.600  18.849  0.00  0.00    +0.000 A 
ATOM     12  C   UNL     1       1.291   9.605  18.003  0.00  0.00    +0.000 A 
ATOM     13  C   UNL     1       0.478  10.595  18.532  0.00  0.00    +0.000 A 
ATOM     14  C   UNL     1       0.147  10.550  19.883  0.00  0.00    +0.000 A 
ATOM     15  C   UNL     1       0.639   9.511  20.682  0.00  0.00    +0.000 A 
ATOM     16  N   UNL     1       1.444   8.526  20.176  0.00  0.00    +0.000 NA
BRANCH  15  17
ATOM     17  C   UNL     1       0.261   9.463  22.158  0.00  0.00    +0.000 C 
ATOM     18  F   UNL     1      -0.686   8.522  22.447  0.00  0.00    +0.000 F 
ATOM     19  F   UNL     1       1.322   9.171  22.963  0.00  0.00    +0.000 F 
ATOM     20  F   UNL     1      -0.244  10.645  22.614  0.00  0.00    +0.000 F 
ENDBRANCH  15  17
ENDBRANCH   8  11
ENDBRANCH   5   7
BRANCH   1  22
ATOM     21  C   UNL     1       5.681   3.696  14.474  0.00  0.00    +0.000 C 
ATOM     22  C   UNL     1       5.830   4.114  15.947  0.00  0.00    +0.000 C 
BRANCH  22  23
ATOM     23  C   UNL     1       6.449   5.535  16.027  0.00  0.00    +0.000 C 
BRANCH  23  24
ATOM     24  N   UNL     1       7.285   5.798  17.182  0.00  0.00    +0.000 N 
ATOM     25  N   UNL     1       7.484   4.840  18.178  0.00  0.00    +0.000 N 
ATOM     26  C   UNL     1       8.103   5.567  19.148  0.00  0.00    +0.000 A 
ATOM     27  N   UNL     1       8.187   6.846  18.952  0.00  0.00    +0.000 NA
ATOM     28  C   UNL     1       7.607   7.039  17.712  0.00  0.00    +0.000 A 
ATOM     29  O   UNL     1       7.407   8.117  17.175  0.00  0.00    +0.000 OA
ATOM     30  H   UNL     1       7.902   3.955  17.906  0.00  0.00    +0.000 HD
ENDBRANCH  23  24
ENDBRANCH  22  23
ENDBRANCH   1  22
TORSDOF 6
ENDMDL
MODEL 5
REMARK VINA RESULT:      -8.2      2.706      3.550
REMARK  Name = 
REMARK  7 active torsions:
REMARK  status: ('A' for Active; 'I' for Inactive)
REMARK    1  A    between atoms: C_1  and  C_2
REMARK    2  A    between atoms: C_2  and  C_3
REMARK    3  A    between atoms: C_2  and  C_10
REMARK    4  A    between atoms: C_3  and  N_4
REMARK    5  A    between atoms: C_14  and  N_15
REMARK    6  A    between atoms: C_16  and  C_18
REMARK    7  A    between atoms: C_22  and  C_23
REMARK                            x       y       z     vdW  Elec       q    Type
REMARK                         _______ _______ _______ _____ _____    ______ ____
ROOT
ATOM      1  C   UNL     1       4.402   4.889  17.009  0.00  0.00    +0.000 A 
ATOM      2  C   UNL     1       4.099   3.630  17.547  0.00  0.00    +0.000 A 
ATOM      3  C   UNL     1       3.195   3.502  18.595  0.00  0.00    +0.000 A 
ATOM      4  C   UNL     1       2.584   4.629  19.134  0.00  0.00    +0.000 A 
ATOM      5  C   UNL     1       2.899   5.904  18.663  0.00  0.00    +0.000 A 
ATOM      6  C   UNL     1       3.821   6.027  17.614  0.00  0.00    +0.000 A 
ENDROOT
BRANCH   5   7
ATOM      7  N   UNL     1       2.303   7.075  19.175  0.00  0.00    +0.000 N 
ATOM      8  C   UNL     1       2.115   8.264  18.489  0.00  0.00    +0.000 C 
ATOM      9  O   UNL     1       2.413   8.492  17.320  0.00  0.00    +0.000 OA
ATOM     10  H   UNL     1       1.919   7.056  20.117  0.00  0.00    +0.000 HD
BRANCH   8  11
ATOM     11  C   UNL     1       1.452   9.346  19.276  0.00  0.00    +0.000 A 
ATOM     12  C   UNL     1       1.309  10.602  18.699  0.00  0.00    +0.000 A 
ATOM     13  C   UNL     1       0.670  11.594  19.427  0.00  0.00    +0.000 A 
ATOM     14  C   UNL     1       0.199  11.300  20.704  0.00  0.00    +0.000 A 
ATOM     15  C   UNL     1       0.377  10.015  21.228  0.00  0.00    +0.000 A 
ATOM     16  N   UNL     1       1.006   9.024  20.523  0.00  0.00    +0.000 NA
BRANCH  15  17
ATOM     17  C   UNL     1      -0.154   9.698  22.622  0.00  0.00    +0.000 C 
ATOM     18  F   UNL     1      -0.895  10.709  23.164  0.00  0.00    +0.000 F 
ATOM     19  F   UNL     1      -0.964   8.602  22.640  0.00  0.00    +0.000 F 
ATOM     20  F   UNL     1       0.839   9.447  23.522  0.00  0.00    +0.000 F 
ENDBRANCH  15  17
ENDBRANCH   8  11
ENDBRANCH   5   7
BRANCH   1  22
ATOM     21  C   UNL     1       5.207   6.422  15.089  0.00  0.00    +0.000 C 
ATOM     22  C   UNL     1       5.275   5.040  15.761  0.00  0.00    +0.000 C 
BRANCH  22  23
ATOM     23  C   UNL     1       6.758   4.658  16.018  0.00  0.00    +0.000 C 
BRANCH  23  24
ATOM     24  N   UNL     1       7.344   5.178  17.238  0.00  0.00    +0.000 N 
ATOM     25  N   UNL     1       7.298   4.466  18.438  0.00  0.00    +0.000 N 
ATOM     26  C   UNL     1       7.726   5.396  19.334  0.00  0.00    +0.000 A 
ATOM     27  N   UNL     1       7.892   6.602  18.887  0.00  0.00    +0.000 NA
ATOM     28  C   UNL     1       7.591   6.509  17.541  0.00  0.00    +0.000 A 
ATOM     29  O   UNL     1       7.543   7.441  16.752  0.00  0.00    +0.000 OA
ATOM     30  H   UNL     1       7.733   3.548  18.459  0.00  0.00    +0.000 HD
ENDBRANCH  23  24
ENDBRANCH  22  23
ENDBRANCH   1  22
TORSDOF 6
ENDMDL
MODEL 6
REMARK VINA RESULT:      -8.2      6.616     10.395
REMARK  Name = 
REMARK  7 active torsions:
REMARK  status: ('A' for Active; 'I' for Inactive)
REMARK    1  A    between atoms: C_1  and  C_2
REMARK    2  A    between atoms: C_2  and  C_3
REMARK    3  A    between atoms: C_2  and  C_10
REMARK    4  A    between atoms: C_3  and  N_4
REMARK    5  A    between atoms: C_14  and  N_15
REMARK    6  A    between atoms: C_16  and  C_18
REMARK    7  A    between atoms: C_22  and  C_23
REMARK                            x       y       z     vdW  Elec       q    Type
REMARK                         _______ _______ _______ _____ _____    ______ ____
ROOT
ATOM      1  C   UNL     1       9.719  12.439  20.881  0.00  0.00    +0.000 A 
ATOM      2  C   UNL     1      10.610  13.098  20.020  0.00  0.00    +0.000 A 
ATOM      3  C   UNL     1      11.004  12.517  18.822  0.00  0.00    +0.000 A 
ATOM      4  C   UNL     1      10.526  11.261  18.462  0.00  0.00    +0.000 A 
ATOM      5  C   UNL     1       9.681  10.549  19.314  0.00  0.00    +0.000 A 
ATOM      6  C   UNL     1       9.297  11.136  20.528  0.00  0.00    +0.000 A 
ENDROOT
BRANCH   5   7
ATOM      7  N   UNL     1       9.167   9.276  18.991  0.00  0.00    +0.000 N 
ATOM      8  C   UNL     1       8.156   9.009  18.083  0.00  0.00    +0.000 C 
ATOM      9  O   UNL     1       7.553   9.827  17.393  0.00  0.00    +0.000 OA
ATOM     10  H   UNL     1       9.597   8.455  19.410  0.00  0.00    +0.000 HD
BRANCH   8  11
ATOM     11  C   UNL     1       7.811   7.563  17.934  0.00  0.00    +0.000 A 
ATOM     12  C   UNL     1       8.170   6.682  18.947  0.00  0.00    +0.000 A 
ATOM     13  C   UNL     1       7.824   5.346  18.812  0.00  0.00    +0.000 A 
ATOM     14  C   UNL     1       7.136   4.936  17.674  0.00  0.00    +0.000 A 
ATOM     15  C   UNL     1       6.806   5.875  16.689  0.00  0.00    +0.000 A 
ATOM     16  N   UNL     1       7.140   7.197  16.806  0.00  0.00    +0.000 NA
BRANCH  15  17
ATOM     17  C   UNL     1       6.041   5.419  15.451  0.00  0.00    +0.000 C 
ATOM     18  F   UNL     1       5.082   6.304  15.047  0.00  0.00    +0.000 F 
ATOM     19  F   UNL     1       6.851   5.239  14.370  0.00  0.00    +0.000 F 
ATOM     20  F   UNL     1       5.392   4.234  15.637  0.00  0.00    +0.000 F 
ENDBRANCH  15  17
ENDBRANCH   8  11
ENDBRANCH   5   7
BRANCH   1  22
ATOM     21  C   UNL     1       9.605  14.579  22.327  0.00  0.00    +0.000 C 
ATOM     22  C   UNL     1       9.155  13.121  22.129  0.00  0.00    +0.000 C 
BRANCH  22  23
ATOM     23  C   UNL     1       7.606  13.038  22.208  0.00  0.00    +0.000 C 
BRANCH  23  24
ATOM     24  N   UNL     1       7.058  12.653  23.494  0.00  0.00    +0.000 N 
ATOM     25  N   UNL     1       7.503  11.517  24.172  0.00  0.00    +0.000 N 
ATOM     26  C   UNL     1       6.583  11.405  25.169  0.00  0.00    +0.000 A 
ATOM     27  N   UNL     1       5.570  12.214  25.119  0.00  0.00    +0.000 NA
ATOM     28  C   UNL     1       5.816  12.997  24.006  0.00  0.00    +0.000 A 
ATOM     29  O   UNL     1       5.065  13.843  23.547  0.00  0.00    +0.000 OA
ATOM     30  H   UNL     1       8.486  11.472  24.425  0.00  0.00    +0.000 HD
ENDBRANCH  23  24
ENDBRANCH  22  23
ENDBRANCH   1  22
TORSDOF 6
ENDMDL
MODEL 7
REMARK VINA RESULT:      -8.1      6.792     10.584
REMARK  Name = 
REMARK  7 active torsions:
REMARK  status: ('A' for Active; 'I' for Inactive)
REMARK    1  A    between atoms: C_1  and  C_2
REMARK    2  A    between atoms: C_2  and  C_3
REMARK    3  A    between atoms: C_2  and  C_10
REMARK    4  A    between atoms: C_3  and  N_4
REMARK    5  A    between atoms: C_14  and  N_15
REMARK    6  A    between atoms: C_16  and  C_18
REMARK    7  A    between atoms: C_22  and  C_23
REMARK                            x       y       z     vdW  Elec       q    Type
REMARK                         _______ _______ _______ _____ _____    ______ ____
ROOT
ATOM      1  C   UNL     1       9.714  12.269  21.157  0.00  0.00    +0.000 A 
ATOM      2  C   UNL     1      10.654  12.934  20.356  0.00  0.00    +0.000 A 
ATOM      3  C   UNL     1      11.069  12.393  19.146  0.00  0.00    +0.000 A 
ATOM      4  C   UNL     1      10.563  11.170  18.716  0.00  0.00    +0.000 A 
ATOM      5  C   UNL     1       9.667  10.452  19.508  0.00  0.00    +0.000 A 
ATOM      6  C   UNL     1       9.263  10.998  20.734  0.00  0.00    +0.000 A 
ENDROOT
BRANCH   5   7
ATOM      7  N   UNL     1       9.124   9.212  19.112  0.00  0.00    +0.000 N 
ATOM      8  C   UNL     1       8.142   9.017  18.155  0.00  0.00    +0.000 C 
ATOM      9  O   UNL     1       7.596   9.883  17.477  0.00  0.00    +0.000 OA
ATOM     10  H   UNL     1       9.508   8.360  19.514  0.00  0.00    +0.000 HD
BRANCH   8  11
ATOM     11  C   UNL     1       7.754   7.592  17.933  0.00  0.00    +0.000 A 
ATOM     12  C   UNL     1       8.161   6.636  18.856  0.00  0.00    +0.000 A 
ATOM     13  C   UNL     1       7.777   5.320  18.656  0.00  0.00    +0.000 A 
ATOM     14  C   UNL     1       7.003   5.002  17.544  0.00  0.00    +0.000 A 
ATOM     15  C   UNL     1       6.627   6.012  16.650  0.00  0.00    +0.000 A 
ATOM     16  N   UNL     1       7.000   7.317  16.833  0.00  0.00    +0.000 NA
BRANCH  15  17
ATOM     17  C   UNL     1       5.769   5.657  15.441  0.00  0.00    +0.000 C 
ATOM     18  F   UNL     1       6.497   5.300  14.343  0.00  0.00    +0.000 F 
ATOM     19  F   UNL     1       4.933   4.607  15.681  0.00  0.00    +0.000 F 
ATOM     20  F   UNL     1       4.974   6.688  15.036  0.00  0.00    +0.000 F 
ENDBRANCH  15  17
ENDBRANCH   8  11
ENDBRANCH   5   7
BRANCH   1  22
ATOM     21  C   UNL     1       8.335  14.208  22.168  0.00  0.00    +0.000 C 
ATOM     22  C   UNL     1       9.131  12.915  22.416  0.00  0.00    +0.000 C 
BRANCH  22  23
ATOM     23  C   UNL     1       8.275  11.928  23.254  0.00  0.00    +0.000 C 
BRANCH  23  24
ATOM     24  N   UNL     1       7.724  12.456  24.487  0.00  0.00    +0.000 N 
ATOM     25  N   UNL     1       8.433  12.409  25.688  0.00  0.00    +0.000 N 
ATOM     26  C   UNL     1       7.482  12.771  26.592  0.00  0.00    +0.000 A 
ATOM     27  N   UNL     1       6.272  12.896  26.143  0.00  0.00    +0.000 NA
ATOM     28  C   UNL     1       6.383  12.636  24.789  0.00  0.00    +0.000 A 
ATOM     29  O   UNL     1       5.457  12.570  23.995  0.00  0.00    +0.000 OA
ATOM     30  H   UNL     1       9.331  12.883  25.726  0.00  0.00    +0.000 HD
ENDBRANCH  23  24
ENDBRANCH  22  23
ENDBRANCH   1  22
TORSDOF 6
ENDMDL
MODEL 8
REMARK VINA RESULT:      -8.1      2.200      2.716
REMARK  Name = 
REMARK  7 active torsions:
REMARK  status: ('A' for Active; 'I' for Inactive)
REMARK    1  A    between atoms: C_1  and  C_2
REMARK    2  A    between atoms: C_2  and  C_3
REMARK    3  A    between atoms: C_2  and  C_10
REMARK    4  A    between atoms: C_3  and  N_4
REMARK    5  A    between atoms: C_14  and  N_15
REMARK    6  A    between atoms: C_16  and  C_18
REMARK    7  A    between atoms: C_22  and  C_23
REMARK                            x       y       z     vdW  Elec       q    Type
REMARK                         _______ _______ _______ _____ _____    ______ ____
ROOT
ATOM      1  C   UNL     1       4.913   6.372  17.404  0.00  0.00    +0.000 A 
ATOM      2  C   UNL     1       4.463   5.112  17.826  0.00  0.00    +0.000 A 
ATOM      3  C   UNL     1       3.152   4.929  18.248  0.00  0.00    +0.000 A 
ATOM      4  C   UNL     1       2.266   6.002  18.266  0.00  0.00    +0.000 A 
ATOM      5  C   UNL     1       2.689   7.281  17.905  0.00  0.00    +0.000 A 
ATOM      6  C   UNL     1       4.016   7.462  17.493  0.00  0.00    +0.000 A 
ENDROOT
BRANCH   5   7
ATOM      7  N   UNL     1       1.827   8.397  17.904  0.00  0.00    +0.000 N 
ATOM      8  C   UNL     1       1.317   9.038  19.021  0.00  0.00    +0.000 C 
ATOM      9  O   UNL     1       1.545   8.760  20.195  0.00  0.00    +0.000 OA
ATOM     10  H   UNL     1       1.582   8.824  17.014  0.00  0.00    +0.000 HD
BRANCH   8  11
ATOM     11  C   UNL     1       0.426  10.201  18.727  0.00  0.00    +0.000 A 
ATOM     12  C   UNL     1       0.769  11.450  19.231  0.00  0.00    +0.000 A 
ATOM     13  C   UNL     1      -0.049  12.528  18.933  0.00  0.00    +0.000 A 
ATOM     14  C   UNL     1      -1.179  12.324  18.147  0.00  0.00    +0.000 A 
ATOM     15  C   UNL     1      -1.470  11.040  17.672  0.00  0.00    +0.000 A 
ATOM     16  N   UNL     1      -0.672   9.964  17.958  0.00  0.00    +0.000 NA
BRANCH  15  17
ATOM     17  C   UNL     1      -2.703  10.828  16.801  0.00  0.00    +0.000 C 
ATOM     18  F   UNL     1      -3.267   9.593  16.947  0.00  0.00    +0.000 F 
ATOM     19  F   UNL     1      -3.698  11.718  17.074  0.00  0.00    +0.000 F 
ATOM     20  F   UNL     1      -2.438  10.955  15.469  0.00  0.00    +0.000 F 
ENDBRANCH  15  17
ENDBRANCH   8  11
ENDBRANCH   5   7
BRANCH   1  22
ATOM     21  C   UNL     1       7.216   7.536  17.565  0.00  0.00    +0.000 C 
ATOM     22  C   UNL     1       6.304   6.565  16.795  0.00  0.00    +0.000 C 
BRANCH  22  23
ATOM     23  C   UNL     1       7.048   5.222  16.564  0.00  0.00    +0.000 C 
BRANCH  23  24
ATOM     24  N   UNL     1       7.111   4.762  15.191  0.00  0.00    +0.000 N 
ATOM     25  N   UNL     1       7.796   5.476  14.207  0.00  0.00    +0.000 N 
ATOM     26  C   UNL     1       7.401   4.840  13.070  0.00  0.00    +0.000 A 
ATOM     27  N   UNL     1       6.475   3.941  13.199  0.00  0.00    +0.000 NA
ATOM     28  C   UNL     1       6.218   3.909  14.557  0.00  0.00    +0.000 A 
ATOM     29  O   UNL     1       5.350   3.249  15.106  0.00  0.00    +0.000 OA
ATOM     30  H   UNL     1       8.791   5.633  14.343  0.00  0.00    +0.000 HD
ENDBRANCH  23  24
ENDBRANCH  22  23
ENDBRANCH   1  22
TORSDOF 6
ENDMDL
MODEL 9
REMARK VINA RESULT:      -8.0      2.525      3.434
REMARK  Name = 
REMARK  7 active torsions:
REMARK  status: ('A' for Active; 'I' for Inactive)
REMARK    1  A    between atoms: C_1  and  C_2
REMARK    2  A    between atoms: C_2  and  C_3
REMARK    3  A    between atoms: C_2  and  C_10
REMARK    4  A    between atoms: C_3  and  N_4
REMARK    5  A    between atoms: C_14  and  N_15
REMARK    6  A    between atoms: C_16  and  C_18
REMARK    7  A    between atoms: C_22  and  C_23
REMARK                            x       y       z     vdW  Elec       q    Type
REMARK                         _______ _______ _______ _____ _____    ______ ____
ROOT
ATOM      1  C   UNL     1       4.412   4.350  16.966  0.00  0.00    +0.000 A 
ATOM      2  C   UNL     1       3.614   3.243  17.291  0.00  0.00    +0.000 A 
ATOM      3  C   UNL     1       2.376   3.410  17.898  0.00  0.00    +0.000 A 
ATOM      4  C   UNL     1       1.913   4.686  18.203  0.00  0.00    +0.000 A 
ATOM      5  C   UNL     1       2.698   5.810  17.945  0.00  0.00    +0.000 A 
ATOM      6  C   UNL     1       3.952   5.633  17.344  0.00  0.00    +0.000 A 
ENDROOT
BRANCH   5   7
ATOM      7  N   UNL     1       2.270   7.122  18.233  0.00  0.00    +0.000 N 
ATOM      8  C   UNL     1       1.915   7.612  19.479  0.00  0.00    +0.000 C 
ATOM      9  O   UNL     1       1.935   6.998  20.542  0.00  0.00    +0.000 OA
ATOM     10  H   UNL     1       2.261   7.809  17.482  0.00  0.00    +0.000 HD
BRANCH   8  11
ATOM     11  C   UNL     1       1.501   9.047  19.496  0.00  0.00    +0.000 A 
ATOM     12  C   UNL     1       1.769   9.834  18.382  0.00  0.00    +0.000 A 
ATOM     13  C   UNL     1       1.359  11.158  18.395  0.00  0.00    +0.000 A 
ATOM     14  C   UNL     1       0.699  11.652  19.517  0.00  0.00    +0.000 A 
ATOM     15  C   UNL     1       0.462  10.807  20.608  0.00  0.00    +0.000 A 
ATOM     16  N   UNL     1       0.861   9.497  20.611  0.00  0.00    +0.000 NA
BRANCH  15  17
ATOM     17  C   UNL     1      -0.272  11.352  21.828  0.00  0.00    +0.000 C 
ATOM     18  F   UNL     1      -1.626  11.417  21.664  0.00  0.00    +0.000 F 
ATOM     19  F   UNL     1      -0.076  10.593  22.942  0.00  0.00    +0.000 F 
ATOM     20  F   UNL     1       0.119  12.616  22.159  0.00  0.00    +0.000 F 
ENDBRANCH  15  17
ENDBRANCH   8  11
ENDBRANCH   5   7
BRANCH   1  22
ATOM     21  C   UNL     1       5.802   5.101  14.919  0.00  0.00    +0.000 C 
ATOM     22  C   UNL     1       5.706   4.200  16.163  0.00  0.00    +0.000 C 
BRANCH  22  23
ATOM     23  C   UNL     1       6.977   4.380  17.037  0.00  0.00    +0.000 C 
BRANCH  23  24
ATOM     24  N   UNL     1       7.229   5.724  17.518  0.00  0.00    +0.000 N 
ATOM     25  N   UNL     1       7.370   6.803  16.643  0.00  0.00    +0.000 N 
ATOM     26  C   UNL     1       7.825   7.781  17.473  0.00  0.00    +0.000 A 
ATOM     27  N   UNL     1       8.113   7.426  18.687  0.00  0.00    +0.000 NA
ATOM     28  C   UNL     1       7.798   6.081  18.732  0.00  0.00    +0.000 A 
ATOM     29  O   UNL     1       7.992   5.331  19.676  0.00  0.00    +0.000 OA
ATOM     30  H   UNL     1       6.588   7.022  16.033  0.00  0.00    +0.000 HD
ENDBRANCH  23  24
ENDBRANCH  22  23
ENDBRANCH   1  22
TORSDOF 6
ENDMDL
