MODEL 1
REMARK VINA RESULT:      -8.6      0.000      0.000
REMARK  Name = 
REMARK  8 active torsions:
REMARK  status: ('A' for Active; 'I' for Inactive)
REMARK    1  A    between atoms: C_1  and  C_2
REMARK    2  A    between atoms: N_7  and  C_8
REMARK    3  A    between atoms: C_12  and  C_13
REMARK    4  A    between atoms: C_13  and  C_14
REMARK    5  A    between atoms: C_13  and  S_15
REMARK    6  A    between atoms: S_15  and  C_16
REMARK    7  A    between atoms: N_20  and  C_21
REMARK    8  A    between atoms: N_26  and  C_27
REMARK                            x       y       z     vdW  Elec       q    Type
REMARK                         _______ _______ _______ _____ _____    ______ ____
ROOT
ATOM      1  C   UNL     1       0.710   8.730  21.335  0.00  0.00    +0.000 A 
ATOM      2  C   UNL     1       0.301   9.227  22.573  0.00  0.00    +0.000 A 
ATOM      3  C   UNL     1      -0.427  10.413  22.663  0.00  0.00    +0.000 A 
ATOM      4  C   UNL     1      -0.741  11.127  21.512  0.00  0.00    +0.000 A 
ATOM      5  C   UNL     1      -0.331  10.665  20.251  0.00  0.00    +0.000 A 
ATOM      6  C   UNL     1       0.411   9.468  20.180  0.00  0.00    +0.000 A 
ENDROOT
BRANCH   1  13
ATOM      7  C   UNL     1       1.516   4.557  17.568  0.00  0.00    +0.000 C 
ATOM      8  C   UNL     1       2.829   4.193  18.273  0.00  0.00    +0.000 C 
ATOM      9  C   UNL     1       3.453   5.408  18.967  0.00  0.00    +0.000 C 
ATOM     10  N   UNL     1       2.617   5.836  20.086  0.00  0.00    +0.000 N 
ATOM     11  C   UNL     1       2.082   7.105  20.054  0.00  0.00    +0.000 C 
ATOM     12  O   UNL     1       2.230   7.816  19.061  0.00  0.00    +0.000 OA
ATOM     13  N   UNL     1       1.417   7.510  21.186  0.00  0.00    +0.000 N 
ATOM     14  C   UNL     1       2.321   4.791  21.067  0.00  0.00    +0.000 C 
ATOM     15  C   UNL     1       2.059   3.381  20.495  0.00  0.00    +0.000 C 
ATOM     16  O   UNL     1       1.561   2.504  21.202  0.00  0.00    +0.000 OA
ATOM     17  N   UNL     1       2.620   3.117  19.250  0.00  0.00    +0.000 N 
ATOM     18  C   UNL     1       2.947   1.758  18.865  0.00  0.00    +0.000 C 
ATOM     19  H   UNL     1       1.668   7.046  22.043  0.00  0.00    +0.000 HD
ENDBRANCH   1  13
BRANCH   5  20
ATOM     20  C   UNL     1      -0.692  11.411  18.975  0.00  0.00    +0.000 C 
ATOM     21  C   UNL     1       0.051  12.747  18.892  0.00  0.00    +0.000 C 
BRANCH  20  22
ATOM     22  S   UNL     1      -2.490  11.746  18.838  0.00  0.00    +0.000 S 
BRANCH  22  23
ATOM     23  C   UNL     1      -2.822  11.078  17.282  0.00  0.00    +0.000 A 
ATOM     24  N   UNL     1      -2.025  10.321  16.564  0.00  0.00    +0.000 NA
ATOM     25  N   UNL     1      -2.697  10.001  15.401  0.00  0.00    +0.000 NA
ATOM     26  C   UNL     1      -3.882  10.568  15.457  0.00  0.00    +0.000 A 
ATOM     27  N   UNL     1      -4.003  11.261  16.624  0.00  0.00    +0.000 N 
ATOM     28  C   UNL     1      -5.159  11.994  17.060  0.00  0.00    +0.000 C 
ENDBRANCH  22  23
ENDBRANCH  20  22
ENDBRANCH   5  20
TORSDOF 4
ENDMDL
MODEL 2
REMARK VINA RESULT:      -8.3      7.929     10.851
REMARK  Name = 
REMARK  8 active torsions:
REMARK  status: ('A' for Active; 'I' for Inactive)
REMARK    1  A    between atoms: C_1  and  C_2
REMARK    2  A    between atoms: N_7  and  C_8
REMARK    3  A    between atoms: C_12  and  C_13
REMARK    4  A    between atoms: C_13  and  C_14
REMARK    5  A    between atoms: C_13  and  S_15
REMARK    6  A    between atoms: S_15  and  C_16
REMARK    7  A    between atoms: N_20  and  C_21
REMARK    8  A    between atoms: N_26  and  C_27
REMARK                            x       y       z     vdW  Elec       q    Type
REMARK                         _______ _______ _______ _____ _____    ______ ____
ROOT
ATOM      1  C   UNL     1       7.724   8.204  17.938  0.00  0.00    +0.000 A 
ATOM      2  C   UNL     1       8.395   7.413  18.872  0.00  0.00    +0.000 A 
ATOM      3  C   UNL     1       8.077   6.065  19.028  0.00  0.00    +0.000 A 
ATOM      4  C   UNL     1       7.070   5.493  18.259  0.00  0.00    +0.000 A 
ATOM      5  C   UNL     1       6.363   6.263  17.322  0.00  0.00    +0.000 A 
ATOM      6  C   UNL     1       6.692   7.626  17.183  0.00  0.00    +0.000 A 
ENDROOT
BRANCH   1  13
ATOM      7  C   UNL     1       8.699  13.011  20.801  0.00  0.00    +0.000 C 
ATOM      8  C   UNL     1       9.445  13.569  19.582  0.00  0.00    +0.000 C 
ATOM      9  C   UNL     1      10.067  12.451  18.740  0.00  0.00    +0.000 C 
ATOM     10  N   UNL     1       9.020  11.648  18.112  0.00  0.00    +0.000 N 
ATOM     11  C   UNL     1       8.946  10.309  18.427  0.00  0.00    +0.000 C 
ATOM     12  O   UNL     1       9.685   9.832  19.288  0.00  0.00    +0.000 OA
ATOM     13  N   UNL     1       8.035   9.569  17.713  0.00  0.00    +0.000 N 
ATOM     14  C   UNL     1       8.058  12.409  17.312  0.00  0.00    +0.000 C 
ATOM     15  C   UNL     1       7.643  13.783  17.880  0.00  0.00    +0.000 C 
ATOM     16  O   UNL     1       6.668  14.379  17.421  0.00  0.00    +0.000 OA
ATOM     17  N   UNL     1       8.552  14.381  18.747  0.00  0.00    +0.000 N 
ATOM     18  C   UNL     1       8.587  15.823  18.894  0.00  0.00    +0.000 C 
ATOM     19  H   UNL     1       7.770   9.932  16.813  0.00  0.00    +0.000 HD
ENDBRANCH   1  13
BRANCH   5  20
ATOM     20  C   UNL     1       5.280   5.650  16.445  0.00  0.00    +0.000 C 
ATOM     21  C   UNL     1       4.009   5.379  17.253  0.00  0.00    +0.000 C 
BRANCH  20  22
ATOM     22  S   UNL     1       5.809   4.077  15.665  0.00  0.00    +0.000 S 
BRANCH  22  23
ATOM     23  C   UNL     1       6.812   4.673  14.393  0.00  0.00    +0.000 A 
ATOM     24  N   UNL     1       7.802   5.527  14.506  0.00  0.00    +0.000 NA
ATOM     25  N   UNL     1       8.336   5.709  13.246  0.00  0.00    +0.000 NA
ATOM     26  C   UNL     1       7.656   4.952  12.412  0.00  0.00    +0.000 A 
ATOM     27  N   UNL     1       6.682   4.285  13.092  0.00  0.00    +0.000 N 
ATOM     28  C   UNL     1       5.749   3.346  12.533  0.00  0.00    +0.000 C 
ENDBRANCH  22  23
ENDBRANCH  20  22
ENDBRANCH   5  20
TORSDOF 4
ENDMDL
MODEL 3
REMARK VINA RESULT:      -8.3      2.246      3.133
REMARK  Name = 
REMARK  8 active torsions:
REMARK  status: ('A' for Active; 'I' for Inactive)
REMARK    1  A    between atoms: C_1  and  C_2
REMARK    2  A    between atoms: N_7  and  C_8
REMARK    3  A    between atoms: C_12  and  C_13
REMARK    4  A    between atoms: C_13  and  C_14
REMARK    5  A    between atoms: C_13  and  S_15
REMARK    6  A    between atoms: S_15  and  C_16
REMARK    7  A    between atoms: N_20  and  C_21
REMARK    8  A    between atoms: N_26  and  C_27
REMARK                            x       y       z     vdW  Elec       q    Type
REMARK                         _______ _______ _______ _____ _____    ______ ____
ROOT
ATOM      1  C   UNL     1       1.553   8.833  19.214  0.00  0.00    +0.000 A 
ATOM      2  C   UNL     1       1.277   8.460  20.530  0.00  0.00    +0.000 A 
ATOM      3  C   UNL     1       0.346   9.164  21.293  0.00  0.00    +0.000 A 
ATOM      4  C   UNL     1      -0.309  10.265  20.751  0.00  0.00    +0.000 A 
ATOM      5  C   UNL     1      -0.042  10.678  19.436  0.00  0.00    +0.000 A 
ATOM      6  C   UNL     1       0.907   9.959  18.682  0.00  0.00    +0.000 A 
ENDROOT
BRANCH   1  13
ATOM      7  C   UNL     1       5.354   4.620  19.455  0.00  0.00    +0.000 C 
ATOM      8  C   UNL     1       5.214   4.425  17.940  0.00  0.00    +0.000 C 
ATOM      9  C   UNL     1       3.829   4.852  17.442  0.00  0.00    +0.000 C 
ATOM     10  N   UNL     1       3.666   6.297  17.578  0.00  0.00    +0.000 N 
ATOM     11  C   UNL     1       2.661   6.768  18.394  0.00  0.00    +0.000 C 
ATOM     12  O   UNL     1       1.986   5.985  19.061  0.00  0.00    +0.000 OA
ATOM     13  N   UNL     1       2.461   8.127  18.384  0.00  0.00    +0.000 N 
ATOM     14  C   UNL     1       4.706   7.097  16.927  0.00  0.00    +0.000 C 
ATOM     15  C   UNL     1       6.144   6.541  17.021  0.00  0.00    +0.000 C 
ATOM     16  O   UNL     1       7.107   7.252  16.731  0.00  0.00    +0.000 OA
ATOM     17  N   UNL     1       6.252   5.168  17.217  0.00  0.00    +0.000 N 
ATOM     18  C   UNL     1       7.431   4.453  16.769  0.00  0.00    +0.000 C 
ATOM     19  H   UNL     1       2.773   8.620  17.564  0.00  0.00    +0.000 HD
ENDBRANCH   1  13
BRANCH   5  20
ATOM     20  C   UNL     1      -0.771  11.859  18.811  0.00  0.00    +0.000 C 
ATOM     21  C   UNL     1      -0.419  13.164  19.528  0.00  0.00    +0.000 C 
BRANCH  20  22
ATOM     22  S   UNL     1      -2.595  11.660  18.846  0.00  0.00    +0.000 S 
BRANCH  22  23
ATOM     23  C   UNL     1      -2.882  11.070  17.250  0.00  0.00    +0.000 A 
ATOM     24  N   UNL     1      -2.062  10.356  16.515  0.00  0.00    +0.000 NA
ATOM     25  N   UNL     1      -2.702  10.091  15.321  0.00  0.00    +0.000 NA
ATOM     26  C   UNL     1      -3.892  10.648  15.375  0.00  0.00    +0.000 A 
ATOM     27  N   UNL     1      -4.047  11.279  16.572  0.00  0.00    +0.000 N 
ATOM     28  C   UNL     1      -5.220  11.982  17.015  0.00  0.00    +0.000 C 
ENDBRANCH  22  23
ENDBRANCH  20  22
ENDBRANCH   5  20
TORSDOF 4
ENDMDL
MODEL 4
REMARK VINA RESULT:      -8.2      3.763      8.345
REMARK  Name = 
REMARK  8 active torsions:
REMARK  status: ('A' for Active; 'I' for Inactive)
REMARK    1  A    between atoms: C_1  and  C_2
REMARK    2  A    between atoms: N_7  and  C_8
REMARK    3  A    between atoms: C_12  and  C_13
REMARK    4  A    between atoms: C_13  and  C_14
REMARK    5  A    between atoms: C_13  and  S_15
REMARK    6  A    between atoms: S_15  and  C_16
REMARK    7  A    between atoms: N_20  and  C_21
REMARK    8  A    between atoms: N_26  and  C_27
REMARK                            x       y       z     vdW  Elec       q    Type
REMARK                         _______ _______ _______ _____ _____    ______ ____
ROOT
ATOM      1  C   UNL     1       2.676   7.458  18.759  0.00  0.00    +0.000 A 
ATOM      2  C   UNL     1       3.028   7.867  17.472  0.00  0.00    +0.000 A 
ATOM      3  C   UNL     1       4.032   7.209  16.762  0.00  0.00    +0.000 A 
ATOM      4  C   UNL     1       4.709   6.141  17.340  0.00  0.00    +0.000 A 
ATOM      5  C   UNL     1       4.392   5.715  18.640  0.00  0.00    +0.000 A 
ATOM      6  C   UNL     1       3.380   6.397  19.346  0.00  0.00    +0.000 A 
ENDROOT
BRANCH   1  13
ATOM      7  C   UNL     1       1.072  12.550  20.699  0.00  0.00    +0.000 C 
ATOM      8  C   UNL     1      -0.370  12.038  20.808  0.00  0.00    +0.000 C 
ATOM      9  C   UNL     1      -0.653  10.925  19.794  0.00  0.00    +0.000 C 
ATOM     10  N   UNL     1       0.118   9.730  20.127  0.00  0.00    +0.000 N 
ATOM     11  C   UNL     1       1.036   9.267  19.210  0.00  0.00    +0.000 C 
ATOM     12  O   UNL     1       1.261   9.905  18.182  0.00  0.00    +0.000 OA
ATOM     13  N   UNL     1       1.638   8.068  19.508  0.00  0.00    +0.000 N 
ATOM     14  C   UNL     1      -0.076   9.232  21.491  0.00  0.00    +0.000 C 
ATOM     15  C   UNL     1      -0.211  10.309  22.590  0.00  0.00    +0.000 C 
ATOM     16  O   UNL     1      -0.126  10.000  23.779  0.00  0.00    +0.000 OA
ATOM     17  N   UNL     1      -0.655  11.557  22.165  0.00  0.00    +0.000 N 
ATOM     18  C   UNL     1      -1.351  12.439  23.082  0.00  0.00    +0.000 C 
ATOM     19  H   UNL     1       1.137   7.459  20.132  0.00  0.00    +0.000 HD
ENDBRANCH   1  13
BRANCH   5  20
ATOM     20  C   UNL     1       5.096   4.527  19.281  0.00  0.00    +0.000 C 
ATOM     21  C   UNL     1       6.560   4.455  18.841  0.00  0.00    +0.000 C 
BRANCH  20  22
ATOM     22  S   UNL     1       4.296   2.928  18.872  0.00  0.00    +0.000 S 
BRANCH  22  23
ATOM     23  C   UNL     1       3.099   2.844  20.112  0.00  0.00    +0.000 A 
ATOM     24  N   UNL     1       3.297   2.569  21.380  0.00  0.00    +0.000 NA
ATOM     25  N   UNL     1       2.071   2.625  22.011  0.00  0.00    +0.000 NA
ATOM     26  C   UNL     1       1.171   2.941  21.106  0.00  0.00    +0.000 A 
ATOM     27  N   UNL     1       1.774   3.084  19.892  0.00  0.00    +0.000 N 
ATOM     28  C   UNL     1       1.129   3.448  18.661  0.00  0.00    +0.000 C 
ENDBRANCH  22  23
ENDBRANCH  20  22
ENDBRANCH   5  20
TORSDOF 4
ENDMDL
MODEL 5
REMARK VINA RESULT:      -8.1      3.086      4.622
REMARK  Name = 
REMARK  8 active torsions:
REMARK  status: ('A' for Active; 'I' for Inactive)
REMARK    1  A    between atoms: C_1  and  C_2
REMARK    2  A    between atoms: N_7  and  C_8
REMARK    3  A    between atoms: C_12  and  C_13
REMARK    4  A    between atoms: C_13  and  C_14
REMARK    5  A    between atoms: C_13  and  S_15
REMARK    6  A    between atoms: S_15  and  C_16
REMARK    7  A    between atoms: N_20  and  C_21
REMARK    8  A    between atoms: N_26  and  C_27
REMARK                            x       y       z     vdW  Elec       q    Type
REMARK                         _______ _______ _______ _____ _____    ______ ____
ROOT
ATOM      1  C   UNL     1       1.504   8.656  19.509  0.00  0.00    +0.000 A 
ATOM      2  C   UNL     1       1.515   8.416  20.884  0.00  0.00    +0.000 A 
ATOM      3  C   UNL     1       0.599   9.044  21.726  0.00  0.00    +0.000 A 
ATOM      4  C   UNL     1      -0.331   9.936  21.204  0.00  0.00    +0.000 A 
ATOM      5  C   UNL     1      -0.359  10.213  19.828  0.00  0.00    +0.000 A 
ATOM      6  C   UNL     1       0.579   9.575  18.992  0.00  0.00    +0.000 A 
ENDROOT
BRANCH   1  13
ATOM      7  C   UNL     1       5.340   4.470  19.346  0.00  0.00    +0.000 C 
ATOM      8  C   UNL     1       5.148   4.373  17.827  0.00  0.00    +0.000 C 
ATOM      9  C   UNL     1       3.745   4.819  17.405  0.00  0.00    +0.000 C 
ATOM     10  N   UNL     1       3.577   6.250  17.640  0.00  0.00    +0.000 N 
ATOM     11  C   UNL     1       2.597   6.658  18.519  0.00  0.00    +0.000 C 
ATOM     12  O   UNL     1       1.951   5.828  19.156  0.00  0.00    +0.000 OA
ATOM     13  N   UNL     1       2.387   8.014  18.604  0.00  0.00    +0.000 N 
ATOM     14  C   UNL     1       4.588   7.100  17.008  0.00  0.00    +0.000 C 
ATOM     15  C   UNL     1       6.032   6.552  17.017  0.00  0.00    +0.000 C 
ATOM     16  O   UNL     1       6.980   7.289  16.741  0.00  0.00    +0.000 OA
ATOM     17  N   UNL     1       6.157   5.171  17.119  0.00  0.00    +0.000 N 
ATOM     18  C   UNL     1       7.324   4.497  16.586  0.00  0.00    +0.000 C 
ATOM     19  H   UNL     1       2.667   8.561  17.808  0.00  0.00    +0.000 HD
ENDBRANCH   1  13
BRANCH   5  20
ATOM     20  C   UNL     1      -1.390  11.159  19.229  0.00  0.00    +0.000 C 
ATOM     21  C   UNL     1      -2.236  10.449  18.170  0.00  0.00    +0.000 C 
BRANCH  20  22
ATOM     22  S   UNL     1      -0.626  12.636  18.454  0.00  0.00    +0.000 S 
BRANCH  22  23
ATOM     23  C   UNL     1       0.505  13.089  19.677  0.00  0.00    +0.000 A 
ATOM     24  N   UNL     1       0.229  13.477  20.900  0.00  0.00    +0.000 NA
ATOM     25  N   UNL     1       1.429  13.723  21.536  0.00  0.00    +0.000 NA
ATOM     26  C   UNL     1       2.393  13.467  20.679  0.00  0.00    +0.000 A 
ATOM     27  N   UNL     1       1.856  13.068  19.493  0.00  0.00    +0.000 N 
ATOM     28  C   UNL     1       2.587  12.678  18.319  0.00  0.00    +0.000 C 
ENDBRANCH  22  23
ENDBRANCH  20  22
ENDBRANCH   5  20
TORSDOF 4
ENDMDL
MODEL 6
REMARK VINA RESULT:      -8.1      0.923      1.009
REMARK  Name = 
REMARK  8 active torsions:
REMARK  status: ('A' for Active; 'I' for Inactive)
REMARK    1  A    between atoms: C_1  and  C_2
REMARK    2  A    between atoms: N_7  and  C_8
REMARK    3  A    between atoms: C_12  and  C_13
REMARK    4  A    between atoms: C_13  and  C_14
REMARK    5  A    between atoms: C_13  and  S_15
REMARK    6  A    between atoms: S_15  and  C_16
REMARK    7  A    between atoms: N_20  and  C_21
REMARK    8  A    between atoms: N_26  and  C_27
REMARK                            x       y       z     vdW  Elec       q    Type
REMARK                         _______ _______ _______ _____ _____    ______ ____
ROOT
ATOM      1  C   UNL     1       0.925   8.690  21.280  0.00  0.00    +0.000 A 
ATOM      2  C   UNL     1       0.239   9.072  22.434  0.00  0.00    +0.000 A 
ATOM      3  C   UNL     1      -0.415  10.302  22.502  0.00  0.00    +0.000 A 
ATOM      4  C   UNL     1      -0.377  11.173  21.420  0.00  0.00    +0.000 A 
ATOM      5  C   UNL     1       0.318  10.828  20.250  0.00  0.00    +0.000 A 
ATOM      6  C   UNL     1       0.981   9.585  20.201  0.00  0.00    +0.000 A 
ENDROOT
BRANCH   1  13
ATOM      7  C   UNL     1       1.536   4.446  17.556  0.00  0.00    +0.000 C 
ATOM      8  C   UNL     1       2.829   4.027  18.267  0.00  0.00    +0.000 C 
ATOM      9  C   UNL     1       3.509   5.217  18.950  0.00  0.00    +0.000 C 
ATOM     10  N   UNL     1       2.694   5.696  20.063  0.00  0.00    +0.000 N 
ATOM     11  C   UNL     1       2.220   6.989  20.017  0.00  0.00    +0.000 C 
ATOM     12  O   UNL     1       2.404   7.682  19.018  0.00  0.00    +0.000 OA
ATOM     13  N   UNL     1       1.574   7.437  21.144  0.00  0.00    +0.000 N 
ATOM     14  C   UNL     1       2.346   4.676  21.054  0.00  0.00    +0.000 C 
ATOM     15  C   UNL     1       2.018   3.275  20.495  0.00  0.00    +0.000 C 
ATOM     16  O   UNL     1       1.478   2.429  21.210  0.00  0.00    +0.000 OA
ATOM     17  N   UNL     1       2.567   2.972  19.254  0.00  0.00    +0.000 N 
ATOM     18  C   UNL     1       2.829   1.595  18.883  0.00  0.00    +0.000 C 
ATOM     19  H   UNL     1       1.801   6.970  22.006  0.00  0.00    +0.000 HD
ENDBRANCH   1  13
BRANCH   5  20
ATOM     20  C   UNL     1       0.346  11.751  19.040  0.00  0.00    +0.000 C 
ATOM     21  C   UNL     1       1.540  12.707  19.106  0.00  0.00    +0.000 C 
BRANCH  20  22
ATOM     22  S   UNL     1      -1.182  12.754  18.883  0.00  0.00    +0.000 S 
BRANCH  22  23
ATOM     23  C   UNL     1      -2.248  11.601  18.167  0.00  0.00    +0.000 A 
ATOM     24  N   UNL     1      -1.935  10.681  17.285  0.00  0.00    +0.000 NA
ATOM     25  N   UNL     1      -3.086   9.973  17.000  0.00  0.00    +0.000 NA
ATOM     26  C   UNL     1      -4.056  10.484  17.726  0.00  0.00    +0.000 A 
ATOM     27  N   UNL     1      -3.575  11.515  18.474  0.00  0.00    +0.000 N 
ATOM     28  C   UNL     1      -4.324  12.308  19.409  0.00  0.00    +0.000 C 
ENDBRANCH  22  23
ENDBRANCH  20  22
ENDBRANCH   5  20
TORSDOF 4
ENDMDL
MODEL 7
REMARK VINA RESULT:      -8.0      4.030      8.900
REMARK  Name = 
REMARK  8 active torsions:
REMARK  status: ('A' for Active; 'I' for Inactive)
REMARK    1  A    between atoms: C_1  and  C_2
REMARK    2  A    between atoms: N_7  and  C_8
REMARK    3  A    between atoms: C_12  and  C_13
REMARK    4  A    between atoms: C_13  and  C_14
REMARK    5  A    between atoms: C_13  and  S_15
REMARK    6  A    between atoms: S_15  and  C_16
REMARK    7  A    between atoms: N_20  and  C_21
REMARK    8  A    between atoms: N_26  and  C_27
REMARK                            x       y       z     vdW  Elec       q    Type
REMARK                         _______ _______ _______ _____ _____    ______ ____
ROOT
ATOM      1  C   UNL     1       2.657   6.097  17.867  0.00  0.00    +0.000 A 
ATOM      2  C   UNL     1       1.951   4.918  18.110  0.00  0.00    +0.000 A 
ATOM      3  C   UNL     1       2.451   3.686  17.690  0.00  0.00    +0.000 A 
ATOM      4  C   UNL     1       3.659   3.621  17.005  0.00  0.00    +0.000 A 
ATOM      5  C   UNL     1       4.387   4.789  16.729  0.00  0.00    +0.000 A 
ATOM      6  C   UNL     1       3.863   6.027  17.154  0.00  0.00    +0.000 A 
ENDROOT
BRANCH   1  13
ATOM      7  C   UNL     1      -0.746   8.454  21.755  0.00  0.00    +0.000 C 
ATOM      8  C   UNL     1       0.031   9.769  21.618  0.00  0.00    +0.000 C 
ATOM      9  C   UNL     1       1.481   9.526  21.188  0.00  0.00    +0.000 C 
ATOM     10  N   UNL     1       1.524   9.006  19.824  0.00  0.00    +0.000 N 
ATOM     11  C   UNL     1       2.071   7.758  19.616  0.00  0.00    +0.000 C 
ATOM     12  O   UNL     1       2.423   7.069  20.572  0.00  0.00    +0.000 OA
ATOM     13  N   UNL     1       2.212   7.370  18.306  0.00  0.00    +0.000 N 
ATOM     14  C   UNL     1       0.833   9.830  18.829  0.00  0.00    +0.000 C 
ATOM     15  C   UNL     1      -0.489  10.480  19.292  0.00  0.00    +0.000 C 
ATOM     16  O   UNL     1      -1.261  10.976  18.469  0.00  0.00    +0.000 OA
ATOM     17  N   UNL     1      -0.626  10.670  20.663  0.00  0.00    +0.000 N 
ATOM     18  C   UNL     1      -1.478  11.724  21.177  0.00  0.00    +0.000 C 
ATOM     19  H   UNL     1       2.261   8.107  17.623  0.00  0.00    +0.000 HD
ENDBRANCH   1  13
BRANCH   5  20
ATOM     20  C   UNL     1       5.728   4.740  16.011  0.00  0.00    +0.000 C 
ATOM     21  C   UNL     1       5.749   3.624  14.964  0.00  0.00    +0.000 C 
BRANCH  20  22
ATOM     22  S   UNL     1       7.134   4.473  17.160  0.00  0.00    +0.000 S 
BRANCH  22  23
ATOM     23  C   UNL     1       7.573   6.104  17.510  0.00  0.00    +0.000 A 
ATOM     24  N   UNL     1       7.538   7.124  16.685  0.00  0.00    +0.000 NA
ATOM     25  N   UNL     1       7.957   8.237  17.386  0.00  0.00    +0.000 NA
ATOM     26  C   UNL     1       8.225   7.855  18.615  0.00  0.00    +0.000 A 
ATOM     27  N   UNL     1       8.001   6.517  18.738  0.00  0.00    +0.000 N 
ATOM     28  C   UNL     1       8.158   5.736  19.934  0.00  0.00    +0.000 C 
ENDBRANCH  22  23
ENDBRANCH  20  22
ENDBRANCH   5  20
TORSDOF 4
ENDMDL
MODEL 8
REMARK VINA RESULT:      -8.0      2.404      3.334
REMARK  Name = 
REMARK  8 active torsions:
REMARK  status: ('A' for Active; 'I' for Inactive)
REMARK    1  A    between atoms: C_1  and  C_2
REMARK    2  A    between atoms: N_7  and  C_8
REMARK    3  A    between atoms: C_12  and  C_13
REMARK    4  A    between atoms: C_13  and  C_14
REMARK    5  A    between atoms: C_13  and  S_15
REMARK    6  A    between atoms: S_15  and  C_16
REMARK    7  A    between atoms: N_20  and  C_21
REMARK    8  A    between atoms: N_26  and  C_27
REMARK                            x       y       z     vdW  Elec       q    Type
REMARK                         _______ _______ _______ _____ _____    ______ ____
ROOT
ATOM      1  C   UNL     1       1.596   8.762  19.227  0.00  0.00    +0.000 A 
ATOM      2  C   UNL     1       1.354   8.398  20.553  0.00  0.00    +0.000 A 
ATOM      3  C   UNL     1       0.419   9.087  21.324  0.00  0.00    +0.000 A 
ATOM      4  C   UNL     1      -0.275  10.162  20.782  0.00  0.00    +0.000 A 
ATOM      5  C   UNL     1      -0.045  10.566  19.458  0.00  0.00    +0.000 A 
ATOM      6  C   UNL     1       0.910   9.863  18.694  0.00  0.00    +0.000 A 
ENDROOT
BRANCH   1  13
ATOM      7  C   UNL     1       5.369   4.521  19.402  0.00  0.00    +0.000 C 
ATOM      8  C   UNL     1       5.241   4.363  17.881  0.00  0.00    +0.000 C 
ATOM      9  C   UNL     1       3.864   4.811  17.381  0.00  0.00    +0.000 C 
ATOM     10  N   UNL     1       3.708   6.253  17.550  0.00  0.00    +0.000 N 
ATOM     11  C   UNL     1       2.699   6.711  18.368  0.00  0.00    +0.000 C 
ATOM     12  O   UNL     1       2.013   5.916  19.010  0.00  0.00    +0.000 OA
ATOM     13  N   UNL     1       2.507   8.071  18.389  0.00  0.00    +0.000 N 
ATOM     14  C   UNL     1       4.760   7.062  16.928  0.00  0.00    +0.000 C 
ATOM     15  C   UNL     1       6.192   6.495  17.021  0.00  0.00    +0.000 C 
ATOM     16  O   UNL     1       7.163   7.206  16.757  0.00  0.00    +0.000 OA
ATOM     17  N   UNL     1       6.291   5.117  17.185  0.00  0.00    +0.000 N 
ATOM     18  C   UNL     1       7.470   4.406  16.731  0.00  0.00    +0.000 C 
ATOM     19  H   UNL     1       2.829   8.581  17.584  0.00  0.00    +0.000 HD
ENDBRANCH   1  13
BRANCH   5  20
ATOM     20  C   UNL     1      -0.818  11.718  18.832  0.00  0.00    +0.000 C 
ATOM     21  C   UNL     1       0.028  12.993  18.800  0.00  0.00    +0.000 C 
BRANCH  20  22
ATOM     22  S   UNL     1      -2.378  12.088  19.723  0.00  0.00    +0.000 S 
BRANCH  22  23
ATOM     23  C   UNL     1      -3.535  11.788  18.480  0.00  0.00    +0.000 A 
ATOM     24  N   UNL     1      -3.286  11.426  17.243  0.00  0.00    +0.000 NA
ATOM     25  N   UNL     1      -4.500  11.281  16.602  0.00  0.00    +0.000 NA
ATOM     26  C   UNL     1      -5.446  11.553  17.475  0.00  0.00    +0.000 A 
ATOM     27  N   UNL     1      -4.883  11.881  18.671  0.00  0.00    +0.000 N 
ATOM     28  C   UNL     1      -5.587  12.218  19.877  0.00  0.00    +0.000 C 
ENDBRANCH  22  23
ENDBRANCH  20  22
ENDBRANCH   5  20
TORSDOF 4
ENDMDL
MODEL 9
REMARK VINA RESULT:      -8.0      2.754      3.663
REMARK  Name = 
REMARK  8 active torsions:
REMARK  status: ('A' for Active; 'I' for Inactive)
REMARK    1  A    between atoms: C_1  and  C_2
REMARK    2  A    between atoms: N_7  and  C_8
REMARK    3  A    between atoms: C_12  and  C_13
REMARK    4  A    between atoms: C_13  and  C_14
REMARK    5  A    between atoms: C_13  and  S_15
REMARK    6  A    between atoms: S_15  and  C_16
REMARK    7  A    between atoms: N_20  and  C_21
REMARK    8  A    between atoms: N_26  and  C_27
REMARK                            x       y       z     vdW  Elec       q    Type
REMARK                         _______ _______ _______ _____ _____    ______ ____
ROOT
ATOM      1  C   UNL     1       0.735   8.682  21.515  0.00  0.00    +0.000 A 
ATOM      2  C   UNL     1       0.208   9.042  22.756  0.00  0.00    +0.000 A 
ATOM      3  C   UNL     1      -0.523  10.220  22.908  0.00  0.00    +0.000 A 
ATOM      4  C   UNL     1      -0.721  11.062  21.820  0.00  0.00    +0.000 A 
ATOM      5  C   UNL     1      -0.191  10.739  20.561  0.00  0.00    +0.000 A 
ATOM      6  C   UNL     1       0.552   9.548  20.427  0.00  0.00    +0.000 A 
ENDROOT
BRANCH   1  13
ATOM      7  C   UNL     1       1.450   4.647  17.582  0.00  0.00    +0.000 C 
ATOM      8  C   UNL     1       2.793   4.279  18.225  0.00  0.00    +0.000 C 
ATOM      9  C   UNL     1       3.428   5.478  18.935  0.00  0.00    +0.000 C 
ATOM     10  N   UNL     1       2.630   5.858  20.098  0.00  0.00    +0.000 N 
ATOM     11  C   UNL     1       2.078   7.120  20.129  0.00  0.00    +0.000 C 
ATOM     12  O   UNL     1       2.180   7.865  19.156  0.00  0.00    +0.000 OA
ATOM     13  N   UNL     1       1.452   7.478  21.299  0.00  0.00    +0.000 N 
ATOM     14  C   UNL     1       2.384   4.776  21.055  0.00  0.00    +0.000 C 
ATOM     15  C   UNL     1       2.118   3.383  20.445  0.00  0.00    +0.000 C 
ATOM     16  O   UNL     1       1.659   2.475  21.141  0.00  0.00    +0.000 OA
ATOM     17  N   UNL     1       2.635   3.168  19.172  0.00  0.00    +0.000 N 
ATOM     18  C   UNL     1       2.964   1.827  18.729  0.00  0.00    +0.000 C 
ATOM     19  H   UNL     1       1.741   6.989  22.129  0.00  0.00    +0.000 HD
ENDBRANCH   1  13
BRANCH   5  20
ATOM     20  C   UNL     1      -0.424  11.628  19.348  0.00  0.00    +0.000 C 
ATOM     21  C   UNL     1      -0.995  10.822  18.179  0.00  0.00    +0.000 C 
BRANCH  20  22
ATOM     22  S   UNL     1       1.108  12.459  18.777  0.00  0.00    +0.000 S 
BRANCH  22  23
ATOM     23  C   UNL     1       1.442  13.476  20.130  0.00  0.00    +0.000 A 
ATOM     24  N   UNL     1       2.290  13.238  21.104  0.00  0.00    +0.000 NA
ATOM     25  N   UNL     1       2.250  14.321  21.960  0.00  0.00    +0.000 NA
ATOM     26  C   UNL     1       1.385  15.183  21.471  0.00  0.00    +0.000 A 
ATOM     27  N   UNL     1       0.849  14.690  20.320  0.00  0.00    +0.000 N 
ATOM     28  C   UNL     1      -0.115  15.349  19.483  0.00  0.00    +0.000 C 
ENDBRANCH  22  23
ENDBRANCH  20  22
ENDBRANCH   5  20
TORSDOF 4
ENDMDL
