MODEL 1
REMARK VINA RESULT:      -8.3      0.000      0.000
REMARK  Name = 
REMARK  11 active torsions:
REMARK  status: ('A' for Active; 'I' for Inactive)
REMARK    1  A    between atoms: C_1  and  C_2
REMARK    2  A    between atoms: C_2  and  C_3
REMARK    3  A    between atoms: C_2  and  C_10
REMARK    4  A    between atoms: C_3  and  C_4
REMARK    5  A    between atoms: N_8  and  C_9
REMARK    6  A    between atoms: C_14  and  N_15
REMARK    7  A    between atoms: C_16  and  C_18
REMARK    8  A    between atoms: C_20  and  C_21
REMARK    9  A    between atoms: C_21  and  C_22
REMARK   10  A    between atoms: C_21  and  C_23
REMARK   11  A    between atoms: C_21  and  O_24
REMARK                            x       y       z     vdW  Elec       q    Type
REMARK                         _______ _______ _______ _____ _____    ______ ____
ROOT
ATOM      1  N   UNL     1       1.665   8.000  19.679  0.00  0.00    +0.000 N 
ATOM      2  C   UNL     1       1.263   8.689  20.809  0.00  0.00    +0.000 C 
ATOM      3  O   UNL     1       1.394   8.327  21.976  0.00  0.00    +0.000 OA
ATOM      4  H   UNL     1       1.557   8.500  18.801  0.00  0.00    +0.000 HD
ENDROOT
BRANCH   2   5
ATOM      5  C   UNL     1       0.639  10.021  20.550  0.00  0.00    +0.000 A 
ATOM      6  C   UNL     1      -0.239  10.151  19.474  0.00  0.00    +0.000 A 
ATOM      7  C   UNL     1      -0.885  11.379  19.208  0.00  0.00    +0.000 A 
ATOM      8  C   UNL     1      -0.576  12.432  20.082  0.00  0.00    +0.000 A 
ATOM      9 CL   UNL     1      -1.232  14.021  19.964  0.00  0.00    +0.000 Cl
ATOM     10  C   UNL     1       0.328  12.208  21.130  0.00  0.00    +0.000 A 
ATOM     11  N   UNL     1       0.947  11.032  21.393  0.00  0.00    +0.000 NA
BRANCH   7  12
ATOM     12  C   UNL     1      -1.859  11.420  18.022  0.00  0.00    +0.000 C 
ATOM     13  C   UNL     1      -1.822  10.097  17.238  0.00  0.00    +0.000 C 
ATOM     14  C   UNL     1      -3.292  11.699  18.508  0.00  0.00    +0.000 C 
BRANCH  12  15
ATOM     15  O   UNL     1      -1.590  12.436  17.060  0.00  0.00    +0.000 OA
ATOM     16  H   UNL     1      -2.095  12.238  16.252  0.00  0.00    +0.000 HD
ENDBRANCH  12  15
ENDBRANCH   7  12
ENDBRANCH   2   5
BRANCH   1  21
ATOM     17  C   UNL     1       3.697   5.106  18.493  0.00  0.00    +0.000 A 
ATOM     18  C   UNL     1       3.478   4.199  19.542  0.00  0.00    +0.000 A 
ATOM     19  C   UNL     1       2.655   4.530  20.614  0.00  0.00    +0.000 A 
ATOM     20  C   UNL     1       2.048   5.779  20.667  0.00  0.00    +0.000 A 
ATOM     21  C   UNL     1       2.255   6.717  19.658  0.00  0.00    +0.000 A 
ATOM     22  C   UNL     1       3.068   6.370  18.567  0.00  0.00    +0.000 A 
BRANCH  17  24
ATOM     23  C   UNL     1       4.094   3.491  16.538  0.00  0.00    +0.000 C 
ATOM     24  C   UNL     1       4.565   4.757  17.280  0.00  0.00    +0.000 C 
BRANCH  24  25
ATOM     25  C   UNL     1       6.051   4.640  17.691  0.00  0.00    +0.000 C 
BRANCH  25  26
ATOM     26  C   UNL     1       6.760   5.954  17.682  0.00  0.00    +0.000 A 
ATOM     27  N   UNL     1       6.647   6.901  16.773  0.00  0.00    +0.000 NA
ATOM     28  N   UNL     1       7.500   7.925  17.110  0.00  0.00    +0.000 NA
ATOM     29  C   UNL     1       8.110   7.586  18.222  0.00  0.00    +0.000 A 
ATOM     30  N   UNL     1       7.665   6.366  18.626  0.00  0.00    +0.000 N 
ATOM     31  C   UNL     1       8.074   5.660  19.810  0.00  0.00    +0.000 C 
ENDBRANCH  25  26
ENDBRANCH  24  25
ENDBRANCH  17  24
ENDBRANCH   1  21
TORSDOF 7
ENDMDL
MODEL 2
REMARK VINA RESULT:      -8.2      3.717      9.097
REMARK  Name = 
REMARK  11 active torsions:
REMARK  status: ('A' for Active; 'I' for Inactive)
REMARK    1  A    between atoms: C_1  and  C_2
REMARK    2  A    between atoms: C_2  and  C_3
REMARK    3  A    between atoms: C_2  and  C_10
REMARK    4  A    between atoms: C_3  and  C_4
REMARK    5  A    between atoms: N_8  and  C_9
REMARK    6  A    between atoms: C_14  and  N_15
REMARK    7  A    between atoms: C_16  and  C_18
REMARK    8  A    between atoms: C_20  and  C_21
REMARK    9  A    between atoms: C_21  and  C_22
REMARK   10  A    between atoms: C_21  and  C_23
REMARK   11  A    between atoms: C_21  and  O_24
REMARK                            x       y       z     vdW  Elec       q    Type
REMARK                         _______ _______ _______ _____ _____    ______ ____
ROOT
ATOM      1  N   UNL     1       1.144   7.786  21.126  0.00  0.00    +0.000 N 
ATOM      2  C   UNL     1       1.845   7.553  19.957  0.00  0.00    +0.000 C 
ATOM      3  O   UNL     1       2.006   8.340  19.027  0.00  0.00    +0.000 OA
ATOM      4  H   UNL     1       1.199   7.047  21.823  0.00  0.00    +0.000 HD
ENDROOT
BRANCH   2   5
ATOM      5  C   UNL     1       2.486   6.208  19.860  0.00  0.00    +0.000 A 
ATOM      6  C   UNL     1       3.533   6.028  18.955  0.00  0.00    +0.000 A 
ATOM      7  C   UNL     1       4.198   4.787  18.852  0.00  0.00    +0.000 A 
ATOM      8  C   UNL     1       3.733   3.772  19.702  0.00  0.00    +0.000 A 
ATOM      9 CL   UNL     1       4.379   2.176  19.761  0.00  0.00    +0.000 Cl
ATOM     10  C   UNL     1       2.667   4.045  20.572  0.00  0.00    +0.000 A 
ATOM     11  N   UNL     1       2.027   5.235  20.679  0.00  0.00    +0.000 NA
BRANCH   7  12
ATOM     12  C   UNL     1       5.358   4.690  17.851  0.00  0.00    +0.000 C 
ATOM     13  C   UNL     1       4.958   3.844  16.630  0.00  0.00    +0.000 C 
ATOM     14  C   UNL     1       5.796   6.092  17.392  0.00  0.00    +0.000 C 
BRANCH  12  15
ATOM     15  O   UNL     1       6.541   4.081  18.360  0.00  0.00    +0.000 OA
ATOM     16  H   UNL     1       7.219   4.769  18.473  0.00  0.00    +0.000 HD
ENDBRANCH  12  15
ENDBRANCH   7  12
ENDBRANCH   2   5
BRANCH   1  21
ATOM     17  C   UNL     1      -0.669  11.011  20.654  0.00  0.00    +0.000 A 
ATOM     18  C   UNL     1      -0.992  11.314  21.986  0.00  0.00    +0.000 A 
ATOM     19  C   UNL     1      -0.599  10.478  23.026  0.00  0.00    +0.000 A 
ATOM     20  C   UNL     1       0.110   9.314  22.755  0.00  0.00    +0.000 A 
ATOM     21  C   UNL     1       0.434   8.964  21.445  0.00  0.00    +0.000 A 
ATOM     22  C   UNL     1       0.054   9.823  20.401  0.00  0.00    +0.000 A 
BRANCH  17  24
ATOM     23  C   UNL     1      -0.652  13.402  19.720  0.00  0.00    +0.000 C 
ATOM     24  C   UNL     1      -1.053  11.931  19.491  0.00  0.00    +0.000 C 
BRANCH  24  25
ATOM     25  C   UNL     1      -2.562  11.807  19.176  0.00  0.00    +0.000 C 
BRANCH  25  26
ATOM     26  C   UNL     1      -2.827  11.343  17.782  0.00  0.00    +0.000 A 
ATOM     27  N   UNL     1      -1.965  10.767  16.969  0.00  0.00    +0.000 NA
ATOM     28  N   UNL     1      -2.594  10.540  15.767  0.00  0.00    +0.000 NA
ATOM     29  C   UNL     1      -3.827  10.972  15.875  0.00  0.00    +0.000 A 
ATOM     30  N   UNL     1      -4.024  11.469  17.126  0.00  0.00    +0.000 N 
ATOM     31  C   UNL     1      -5.250  12.015  17.642  0.00  0.00    +0.000 C 
ENDBRANCH  25  26
ENDBRANCH  24  25
ENDBRANCH  17  24
ENDBRANCH   1  21
TORSDOF 7
ENDMDL
MODEL 3
REMARK VINA RESULT:      -8.2      1.214      2.103
REMARK  Name = 
REMARK  11 active torsions:
REMARK  status: ('A' for Active; 'I' for Inactive)
REMARK    1  A    between atoms: C_1  and  C_2
REMARK    2  A    between atoms: C_2  and  C_3
REMARK    3  A    between atoms: C_2  and  C_10
REMARK    4  A    between atoms: C_3  and  C_4
REMARK    5  A    between atoms: N_8  and  C_9
REMARK    6  A    between atoms: C_14  and  N_15
REMARK    7  A    between atoms: C_16  and  C_18
REMARK    8  A    between atoms: C_20  and  C_21
REMARK    9  A    between atoms: C_21  and  C_22
REMARK   10  A    between atoms: C_21  and  C_23
REMARK   11  A    between atoms: C_21  and  O_24
REMARK                            x       y       z     vdW  Elec       q    Type
REMARK                         _______ _______ _______ _____ _____    ______ ____
ROOT
ATOM      1  N   UNL     1       1.830   8.003  19.717  0.00  0.00    +0.000 N 
ATOM      2  C   UNL     1       1.296   8.664  20.809  0.00  0.00    +0.000 C 
ATOM      3  O   UNL     1       1.310   8.283  21.977  0.00  0.00    +0.000 OA
ATOM      4  H   UNL     1       1.806   8.517  18.840  0.00  0.00    +0.000 HD
ENDROOT
BRANCH   2   5
ATOM      5  C   UNL     1       0.676   9.988  20.506  0.00  0.00    +0.000 A 
ATOM      6  C   UNL     1      -0.211  10.083  19.432  0.00  0.00    +0.000 A 
ATOM      7  C   UNL     1      -0.853  11.303  19.127  0.00  0.00    +0.000 A 
ATOM      8  C   UNL     1      -0.533  12.386  19.960  0.00  0.00    +0.000 A 
ATOM      9 CL   UNL     1      -1.183  13.973  19.789  0.00  0.00    +0.000 Cl
ATOM     10  C   UNL     1       0.379  12.196  21.008  0.00  0.00    +0.000 A 
ATOM     11  N   UNL     1       0.995  11.028  21.309  0.00  0.00    +0.000 NA
BRANCH   7  12
ATOM     12  C   UNL     1      -1.836  11.306  17.948  0.00  0.00    +0.000 C 
ATOM     13  C   UNL     1      -1.783   9.969  17.189  0.00  0.00    +0.000 C 
ATOM     14  C   UNL     1      -3.270  11.570  18.439  0.00  0.00    +0.000 C 
BRANCH  12  15
ATOM     15  O   UNL     1      -1.591  12.308  16.965  0.00  0.00    +0.000 OA
ATOM     16  H   UNL     1      -2.419  12.477  16.484  0.00  0.00    +0.000 HD
ENDBRANCH  12  15
ENDBRANCH   7  12
ENDBRANCH   2   5
BRANCH   1  21
ATOM     17  C   UNL     1       4.405   5.357  19.190  0.00  0.00    +0.000 A 
ATOM     18  C   UNL     1       3.747   4.252  19.752  0.00  0.00    +0.000 A 
ATOM     19  C   UNL     1       2.465   4.373  20.278  0.00  0.00    +0.000 A 
ATOM     20  C   UNL     1       1.821   5.605  20.268  0.00  0.00    +0.000 A 
ATOM     21  C   UNL     1       2.446   6.732  19.738  0.00  0.00    +0.000 A 
ATOM     22  C   UNL     1       3.730   6.599  19.188  0.00  0.00    +0.000 A 
BRANCH  17  24
ATOM     23  C   UNL     1       6.940   5.452  19.583  0.00  0.00    +0.000 C 
ATOM     24  C   UNL     1       5.800   5.246  18.566  0.00  0.00    +0.000 C 
BRANCH  24  25
ATOM     25  C   UNL     1       5.938   6.217  17.370  0.00  0.00    +0.000 C 
BRANCH  25  26
ATOM     26  C   UNL     1       6.434   5.545  16.132  0.00  0.00    +0.000 A 
ATOM     27  N   UNL     1       7.530   5.842  15.463  0.00  0.00    +0.000 NA
ATOM     28  N   UNL     1       7.598   5.020  14.363  0.00  0.00    +0.000 NA
ATOM     29  C   UNL     1       6.548   4.234  14.388  0.00  0.00    +0.000 A 
ATOM     30  N   UNL     1       5.799   4.516  15.488  0.00  0.00    +0.000 N 
ATOM     31  C   UNL     1       4.584   3.856  15.882  0.00  0.00    +0.000 C 
ENDBRANCH  25  26
ENDBRANCH  24  25
ENDBRANCH  17  24
ENDBRANCH   1  21
TORSDOF 7
ENDMDL
MODEL 4
REMARK VINA RESULT:      -8.1      2.078      2.519
REMARK  Name = 
REMARK  11 active torsions:
REMARK  status: ('A' for Active; 'I' for Inactive)
REMARK    1  A    between atoms: C_1  and  C_2
REMARK    2  A    between atoms: C_2  and  C_3
REMARK    3  A    between atoms: C_2  and  C_10
REMARK    4  A    between atoms: C_3  and  C_4
REMARK    5  A    between atoms: N_8  and  C_9
REMARK    6  A    between atoms: C_14  and  N_15
REMARK    7  A    between atoms: C_16  and  C_18
REMARK    8  A    between atoms: C_20  and  C_21
REMARK    9  A    between atoms: C_21  and  C_22
REMARK   10  A    between atoms: C_21  and  C_23
REMARK   11  A    between atoms: C_21  and  O_24
REMARK                            x       y       z     vdW  Elec       q    Type
REMARK                         _______ _______ _______ _____ _____    ______ ____
ROOT
ATOM      1  N   UNL     1       2.163   7.082  18.882  0.00  0.00    +0.000 N 
ATOM      2  C   UNL     1       2.025   8.317  18.275  0.00  0.00    +0.000 C 
ATOM      3  O   UNL     1       2.254   8.587  17.098  0.00  0.00    +0.000 OA
ATOM      4  H   UNL     1       1.836   7.029  19.843  0.00  0.00    +0.000 HD
ENDROOT
BRANCH   2   5
ATOM      5  C   UNL     1       1.511   9.404  19.161  0.00  0.00    +0.000 A 
ATOM      6  C   UNL     1       1.572  10.722  18.709  0.00  0.00    +0.000 A 
ATOM      7  C   UNL     1       1.066  11.783  19.492  0.00  0.00    +0.000 A 
ATOM      8  C   UNL     1       0.517  11.419  20.731  0.00  0.00    +0.000 A 
ATOM      9 CL   UNL     1      -0.159  12.529  21.861  0.00  0.00    +0.000 Cl
ATOM     10  C   UNL     1       0.510  10.067  21.104  0.00  0.00    +0.000 A 
ATOM     11  N   UNL     1       0.990   9.044  20.356  0.00  0.00    +0.000 NA
BRANCH   7  12
ATOM     12  C   UNL     1       1.148  13.197  18.900  0.00  0.00    +0.000 C 
ATOM     13  C   UNL     1      -0.258  13.747  18.602  0.00  0.00    +0.000 C 
ATOM     14  C   UNL     1       1.886  14.145  19.861  0.00  0.00    +0.000 C 
BRANCH  12  15
ATOM     15  O   UNL     1       1.858  13.292  17.668  0.00  0.00    +0.000 OA
ATOM     16  H   UNL     1       2.789  13.064  17.830  0.00  0.00    +0.000 HD
ENDBRANCH  12  15
ENDBRANCH   7  12
ENDBRANCH   2   5
BRANCH   1  21
ATOM     17  C   UNL     1       4.376   4.841  16.884  0.00  0.00    +0.000 A 
ATOM     18  C   UNL     1       3.693   3.623  17.027  0.00  0.00    +0.000 A 
ATOM     19  C   UNL     1       2.510   3.546  17.754  0.00  0.00    +0.000 A 
ATOM     20  C   UNL     1       1.993   4.682  18.367  0.00  0.00    +0.000 A 
ATOM     21  C   UNL     1       2.649   5.907  18.268  0.00  0.00    +0.000 A 
ATOM     22  C   UNL     1       3.831   5.983  17.513  0.00  0.00    +0.000 A 
BRANCH  17  24
ATOM     23  C   UNL     1       5.747   3.938  14.911  0.00  0.00    +0.000 C 
ATOM     24  C   UNL     1       5.659   4.966  16.056  0.00  0.00    +0.000 C 
BRANCH  24  25
ATOM     25  C   UNL     1       6.904   4.889  16.971  0.00  0.00    +0.000 C 
BRANCH  25  26
ATOM     26  C   UNL     1       7.379   6.233  17.417  0.00  0.00    +0.000 A 
ATOM     27  N   UNL     1       7.381   7.341  16.705  0.00  0.00    +0.000 NA
ATOM     28  N   UNL     1       7.940   8.340  17.467  0.00  0.00    +0.000 NA
ATOM     29  C   UNL     1       8.259   7.823  18.630  0.00  0.00    +0.000 A 
ATOM     30  N   UNL     1       7.910   6.508  18.650  0.00  0.00    +0.000 N 
ATOM     31  C   UNL     1       8.075   5.601  19.753  0.00  0.00    +0.000 C 
ENDBRANCH  25  26
ENDBRANCH  24  25
ENDBRANCH  17  24
ENDBRANCH   1  21
TORSDOF 7
ENDMDL
MODEL 5
REMARK VINA RESULT:      -8.1      4.083      9.864
REMARK  Name = 
REMARK  11 active torsions:
REMARK  status: ('A' for Active; 'I' for Inactive)
REMARK    1  A    between atoms: C_1  and  C_2
REMARK    2  A    between atoms: C_2  and  C_3
REMARK    3  A    between atoms: C_2  and  C_10
REMARK    4  A    between atoms: C_3  and  C_4
REMARK    5  A    between atoms: N_8  and  C_9
REMARK    6  A    between atoms: C_14  and  N_15
REMARK    7  A    between atoms: C_16  and  C_18
REMARK    8  A    between atoms: C_20  and  C_21
REMARK    9  A    between atoms: C_21  and  C_22
REMARK   10  A    between atoms: C_21  and  C_23
REMARK   11  A    between atoms: C_21  and  O_24
REMARK                            x       y       z     vdW  Elec       q    Type
REMARK                         _______ _______ _______ _____ _____    ______ ____
ROOT
ATOM      1  N   UNL     1       0.909   9.081  19.314  0.00  0.00    +0.000 N 
ATOM      2  C   UNL     1       1.825   8.852  18.304  0.00  0.00    +0.000 C 
ATOM      3  O   UNL     1       2.033   9.565  17.325  0.00  0.00    +0.000 OA
ATOM      4  H   UNL     1       0.944   8.428  20.092  0.00  0.00    +0.000 HD
ENDROOT
BRANCH   2   5
ATOM      5  C   UNL     1       2.654   7.621  18.468  0.00  0.00    +0.000 A 
ATOM      6  C   UNL     1       3.592   7.308  17.484  0.00  0.00    +0.000 A 
ATOM      7  C   UNL     1       4.427   6.176  17.609  0.00  0.00    +0.000 A 
ATOM      8  C   UNL     1       4.239   5.406  18.767  0.00  0.00    +0.000 A 
ATOM      9 CL   UNL     1       5.132   3.981  19.144  0.00  0.00    +0.000 Cl
ATOM     10  C   UNL     1       3.263   5.793  19.695  0.00  0.00    +0.000 A 
ATOM     11  N   UNL     1       2.462   6.881  19.583  0.00  0.00    +0.000 NA
BRANCH   7  12
ATOM     12  C   UNL     1       5.451   5.928  16.493  0.00  0.00    +0.000 C 
ATOM     13  C   UNL     1       6.886   6.113  17.016  0.00  0.00    +0.000 C 
ATOM     14  C   UNL     1       5.286   4.513  15.911  0.00  0.00    +0.000 C 
BRANCH  12  15
ATOM     15  O   UNL     1       5.343   6.804  15.374  0.00  0.00    +0.000 OA
ATOM     16  H   UNL     1       4.480   6.658  14.949  0.00  0.00    +0.000 HD
ENDBRANCH  12  15
ENDBRANCH   7  12
ENDBRANCH   2   5
BRANCH   1  21
ATOM     17  C   UNL     1      -2.156  11.109  18.678  0.00  0.00    +0.000 A 
ATOM     18  C   UNL     1      -1.873  12.242  19.456  0.00  0.00    +0.000 A 
ATOM     19  C   UNL     1      -0.680  12.345  20.163  0.00  0.00    +0.000 A 
ATOM     20  C   UNL     1       0.247  11.310  20.120  0.00  0.00    +0.000 A 
ATOM     21  C   UNL     1      -0.003  10.158  19.377  0.00  0.00    +0.000 A 
ATOM     22  C   UNL     1      -1.198  10.070  18.647  0.00  0.00    +0.000 A 
BRANCH  17  24
ATOM     23  C   UNL     1      -3.199  11.008  16.334  0.00  0.00    +0.000 C 
ATOM     24  C   UNL     1      -3.443  10.984  17.855  0.00  0.00    +0.000 C 
BRANCH  24  25
ATOM     25  C   UNL     1      -4.462  12.070  18.274  0.00  0.00    +0.000 C 
BRANCH  25  26
ATOM     26  C   UNL     1      -5.607  11.519  19.058  0.00  0.00    +0.000 A 
ATOM     27  N   UNL     1      -6.470  10.608  18.653  0.00  0.00    +0.000 NA
ATOM     28  N   UNL     1      -7.392  10.416  19.655  0.00  0.00    +0.000 NA
ATOM     29  C   UNL     1      -7.069  11.205  20.652  0.00  0.00    +0.000 A 
ATOM     30  N   UNL     1      -5.947  11.904  20.328  0.00  0.00    +0.000 N 
ATOM     31  C   UNL     1      -5.266  12.854  21.165  0.00  0.00    +0.000 C 
ENDBRANCH  25  26
ENDBRANCH  24  25
ENDBRANCH  17  24
ENDBRANCH   1  21
TORSDOF 7
ENDMDL
MODEL 6
REMARK VINA RESULT:      -8.0      3.724      8.979
REMARK  Name = 
REMARK  11 active torsions:
REMARK  status: ('A' for Active; 'I' for Inactive)
REMARK    1  A    between atoms: C_1  and  C_2
REMARK    2  A    between atoms: C_2  and  C_3
REMARK    3  A    between atoms: C_2  and  C_10
REMARK    4  A    between atoms: C_3  and  C_4
REMARK    5  A    between atoms: N_8  and  C_9
REMARK    6  A    between atoms: C_14  and  N_15
REMARK    7  A    between atoms: C_16  and  C_18
REMARK    8  A    between atoms: C_20  and  C_21
REMARK    9  A    between atoms: C_21  and  C_22
REMARK   10  A    between atoms: C_21  and  C_23
REMARK   11  A    between atoms: C_21  and  O_24
REMARK                            x       y       z     vdW  Elec       q    Type
REMARK                         _______ _______ _______ _____ _____    ______ ____
ROOT
ATOM      1  N   UNL     1       1.580   8.164  19.886  0.00  0.00    +0.000 N 
ATOM      2  C   UNL     1       2.182   8.344  18.654  0.00  0.00    +0.000 C 
ATOM      3  O   UNL     1       2.183   9.371  17.979  0.00  0.00    +0.000 OA
ATOM      4  H   UNL     1       1.766   7.272  20.337  0.00  0.00    +0.000 HD
ENDROOT
BRANCH   2   5
ATOM      5  C   UNL     1       2.926   7.158  18.134  0.00  0.00    +0.000 A 
ATOM      6  C   UNL     1       2.473   5.882  18.469  0.00  0.00    +0.000 A 
ATOM      7  C   UNL     1       3.118   4.728  17.973  0.00  0.00    +0.000 A 
ATOM      8  C   UNL     1       4.226   4.958  17.144  0.00  0.00    +0.000 A 
ATOM      9 CL   UNL     1       5.177   3.716  16.421  0.00  0.00    +0.000 Cl
ATOM     10  C   UNL     1       4.614   6.278  16.872  0.00  0.00    +0.000 A 
ATOM     11  N   UNL     1       3.997   7.389  17.341  0.00  0.00    +0.000 NA
BRANCH   7  12
ATOM     12  C   UNL     1       2.530   3.367  18.370  0.00  0.00    +0.000 C 
ATOM     13  C   UNL     1       3.538   2.559  19.207  0.00  0.00    +0.000 C 
ATOM     14  C   UNL     1       1.224   3.551  19.162  0.00  0.00    +0.000 C 
BRANCH  12  15
ATOM     15  O   UNL     1       2.185   2.520  17.277  0.00  0.00    +0.000 OA
ATOM     16  H   UNL     1       1.666   1.772  17.618  0.00  0.00    +0.000 HD
ENDBRANCH  12  15
ENDBRANCH   7  12
ENDBRANCH   2   5
BRANCH   1  21
ATOM     17  C   UNL     1      -0.614  11.124  20.468  0.00  0.00    +0.000 A 
ATOM     18  C   UNL     1      -0.768  11.051  21.861  0.00  0.00    +0.000 A 
ATOM     19  C   UNL     1      -0.141  10.053  22.600  0.00  0.00    +0.000 A 
ATOM     20  C   UNL     1       0.640   9.098  21.959  0.00  0.00    +0.000 A 
ATOM     21  C   UNL     1       0.803   9.120  20.575  0.00  0.00    +0.000 A 
ATOM     22  C   UNL     1       0.186  10.143  19.838  0.00  0.00    +0.000 A 
BRANCH  17  24
ATOM     23  C   UNL     1      -1.128  13.631  20.269  0.00  0.00    +0.000 C 
ATOM     24  C   UNL     1      -1.258  12.234  19.631  0.00  0.00    +0.000 C 
BRANCH  24  25
ATOM     25  C   UNL     1      -2.737  11.896  19.328  0.00  0.00    +0.000 C 
BRANCH  25  26
ATOM     26  C   UNL     1      -2.958  11.484  17.910  0.00  0.00    +0.000 A 
ATOM     27  N   UNL     1      -2.031  11.154  17.034  0.00  0.00    +0.000 NA
ATOM     28  N   UNL     1      -2.648  10.885  15.836  0.00  0.00    +0.000 NA
ATOM     29  C   UNL     1      -3.939  11.048  16.006  0.00  0.00    +0.000 A 
ATOM     30  N   UNL     1      -4.181  11.407  17.296  0.00  0.00    +0.000 N 
ATOM     31  C   UNL     1      -5.470  11.654  17.883  0.00  0.00    +0.000 C 
ENDBRANCH  25  26
ENDBRANCH  24  25
ENDBRANCH  17  24
ENDBRANCH   1  21
TORSDOF 7
ENDMDL
MODEL 7
REMARK VINA RESULT:      -8.0      1.798      2.377
REMARK  Name = 
REMARK  11 active torsions:
REMARK  status: ('A' for Active; 'I' for Inactive)
REMARK    1  A    between atoms: C_1  and  C_2
REMARK    2  A    between atoms: C_2  and  C_3
REMARK    3  A    between atoms: C_2  and  C_10
REMARK    4  A    between atoms: C_3  and  C_4
REMARK    5  A    between atoms: N_8  and  C_9
REMARK    6  A    between atoms: C_14  and  N_15
REMARK    7  A    between atoms: C_16  and  C_18
REMARK    8  A    between atoms: C_20  and  C_21
REMARK    9  A    between atoms: C_21  and  C_22
REMARK   10  A    between atoms: C_21  and  C_23
REMARK   11  A    between atoms: C_21  and  O_24
REMARK                            x       y       z     vdW  Elec       q    Type
REMARK                         _______ _______ _______ _____ _____    ______ ____
ROOT
ATOM      1  N   UNL     1       2.000   6.348  19.098  0.00  0.00    +0.000 N 
ATOM      2  C   UNL     1       2.114   7.701  18.837  0.00  0.00    +0.000 C 
ATOM      3  O   UNL     1       2.688   8.220  17.882  0.00  0.00    +0.000 OA
ATOM      4  H   UNL     1       1.407   6.104  19.886  0.00  0.00    +0.000 HD
ENDROOT
BRANCH   2   5
ATOM      5  C   UNL     1       1.430   8.595  19.818  0.00  0.00    +0.000 A 
ATOM      6  C   UNL     1       0.704   9.686  19.338  0.00  0.00    +0.000 A 
ATOM      7  C   UNL     1       0.007  10.539  20.222  0.00  0.00    +0.000 A 
ATOM      8  C   UNL     1       0.105  10.219  21.584  0.00  0.00    +0.000 A 
ATOM      9 CL   UNL     1      -0.651  11.108  22.851  0.00  0.00    +0.000 Cl
ATOM     10  C   UNL     1       0.868   9.109  21.972  0.00  0.00    +0.000 A 
ATOM     11  N   UNL     1       1.535   8.283  21.129  0.00  0.00    +0.000 NA
BRANCH   7  12
ATOM     12  C   UNL     1      -0.790  11.695  19.602  0.00  0.00    +0.000 C 
ATOM     13  C   UNL     1       0.070  12.967  19.511  0.00  0.00    +0.000 C 
ATOM     14  C   UNL     1      -1.302  11.311  18.202  0.00  0.00    +0.000 C 
BRANCH  12  15
ATOM     15  O   UNL     1      -1.954  12.080  20.328  0.00  0.00    +0.000 OA
ATOM     16  H   UNL     1      -2.617  11.373  20.246  0.00  0.00    +0.000 HD
ENDBRANCH  12  15
ENDBRANCH   7  12
ENDBRANCH   2   5
BRANCH   1  21
ATOM     17  C   UNL     1       4.383   4.567  16.848  0.00  0.00    +0.000 A 
ATOM     18  C   UNL     1       3.790   3.295  16.812  0.00  0.00    +0.000 A 
ATOM     19  C   UNL     1       2.611   3.035  17.502  0.00  0.00    +0.000 A 
ATOM     20  C   UNL     1       2.009   4.036  18.256  0.00  0.00    +0.000 A 
ATOM     21  C   UNL     1       2.575   5.307  18.336  0.00  0.00    +0.000 A 
ATOM     22  C   UNL     1       3.752   5.570  17.619  0.00  0.00    +0.000 A 
BRANCH  17  24
ATOM     23  C   UNL     1       5.860   4.004  14.825  0.00  0.00    +0.000 C 
ATOM     24  C   UNL     1       5.659   4.896  16.066  0.00  0.00    +0.000 C 
BRANCH  24  25
ATOM     25  C   UNL     1       6.894   4.843  16.996  0.00  0.00    +0.000 C 
BRANCH  25  26
ATOM     26  C   UNL     1       7.361   6.196  17.417  0.00  0.00    +0.000 A 
ATOM     27  N   UNL     1       7.353   7.293  16.685  0.00  0.00    +0.000 NA
ATOM     28  N   UNL     1       7.909   8.308  17.427  0.00  0.00    +0.000 NA
ATOM     29  C   UNL     1       8.236   7.814  18.597  0.00  0.00    +0.000 A 
ATOM     30  N   UNL     1       7.897   6.498  18.642  0.00  0.00    +0.000 N 
ATOM     31  C   UNL     1       8.072   5.611  19.760  0.00  0.00    +0.000 C 
ENDBRANCH  25  26
ENDBRANCH  24  25
ENDBRANCH  17  24
ENDBRANCH   1  21
TORSDOF 7
ENDMDL
MODEL 8
REMARK VINA RESULT:      -8.0      3.852      9.226
REMARK  Name = 
REMARK  11 active torsions:
REMARK  status: ('A' for Active; 'I' for Inactive)
REMARK    1  A    between atoms: C_1  and  C_2
REMARK    2  A    between atoms: C_2  and  C_3
REMARK    3  A    between atoms: C_2  and  C_10
REMARK    4  A    between atoms: C_3  and  C_4
REMARK    5  A    between atoms: N_8  and  C_9
REMARK    6  A    between atoms: C_14  and  N_15
REMARK    7  A    between atoms: C_16  and  C_18
REMARK    8  A    between atoms: C_20  and  C_21
REMARK    9  A    between atoms: C_21  and  C_22
REMARK   10  A    between atoms: C_21  and  C_23
REMARK   11  A    between atoms: C_21  and  O_24
REMARK                            x       y       z     vdW  Elec       q    Type
REMARK                         _______ _______ _______ _____ _____    ______ ____
ROOT
ATOM      1  N   UNL     1       2.224   7.735  19.132  0.00  0.00    +0.000 N 
ATOM      2  C   UNL     1       2.388   6.382  19.366  0.00  0.00    +0.000 C 
ATOM      3  O   UNL     1       1.863   5.721  20.260  0.00  0.00    +0.000 OA
ATOM      4  H   UNL     1       2.666   8.089  18.287  0.00  0.00    +0.000 HD
ENDROOT
BRANCH   2   5
ATOM      5  C   UNL     1       3.275   5.674  18.395  0.00  0.00    +0.000 A 
ATOM      6  C   UNL     1       4.585   6.128  18.230  0.00  0.00    +0.000 A 
ATOM      7  C   UNL     1       5.475   5.472  17.353  0.00  0.00    +0.000 A 
ATOM      8  C   UNL     1       4.954   4.361  16.673  0.00  0.00    +0.000 A 
ATOM      9 CL   UNL     1       5.842   3.400  15.551  0.00  0.00    +0.000 Cl
ATOM     10  C   UNL     1       3.622   3.986  16.896  0.00  0.00    +0.000 A 
ATOM     11  N   UNL     1       2.763   4.609  17.739  0.00  0.00    +0.000 NA
BRANCH   7  12
ATOM     12  C   UNL     1       6.905   6.023  17.259  0.00  0.00    +0.000 C 
ATOM     13  C   UNL     1       6.930   7.533  17.551  0.00  0.00    +0.000 C 
ATOM     14  C   UNL     1       7.835   5.287  18.241  0.00  0.00    +0.000 C 
BRANCH  12  15
ATOM     15  O   UNL     1       7.523   5.875  15.984  0.00  0.00    +0.000 OA
ATOM     16  H   UNL     1       6.853   5.565  15.350  0.00  0.00    +0.000 HD
ENDBRANCH  12  15
ENDBRANCH   7  12
ENDBRANCH   2   5
BRANCH   1  21
ATOM     17  C   UNL     1       0.071  10.648  20.020  0.00  0.00    +0.000 A 
ATOM     18  C   UNL     1      -0.090  10.430  21.397  0.00  0.00    +0.000 A 
ATOM     19  C   UNL     1       0.519   9.350  22.027  0.00  0.00    +0.000 A 
ATOM     20  C   UNL     1       1.288   8.457  21.290  0.00  0.00    +0.000 A 
ATOM     21  C   UNL     1       1.458   8.624  19.917  0.00  0.00    +0.000 A 
ATOM     22  C   UNL     1       0.860   9.729  19.291  0.00  0.00    +0.000 A 
BRANCH  17  24
ATOM     23  C   UNL     1      -0.011  13.205  19.803  0.00  0.00    +0.000 C 
ATOM     24  C   UNL     1      -0.553  11.851  19.305  0.00  0.00    +0.000 C 
BRANCH  24  25
ATOM     25  C   UNL     1      -2.096  11.799  19.402  0.00  0.00    +0.000 C 
BRANCH  25  26
ATOM     26  C   UNL     1      -2.751  11.514  18.091  0.00  0.00    +0.000 A 
ATOM     27  N   UNL     1      -2.145  11.235  16.955  0.00  0.00    +0.000 NA
ATOM     28  N   UNL     1      -3.104  11.085  15.982  0.00  0.00    +0.000 NA
ATOM     29  C   UNL     1      -4.275  11.267  16.545  0.00  0.00    +0.000 A 
ATOM     30  N   UNL     1      -4.103  11.522  17.870  0.00  0.00    +0.000 N 
ATOM     31  C   UNL     1      -5.145  11.753  18.834  0.00  0.00    +0.000 C 
ENDBRANCH  25  26
ENDBRANCH  24  25
ENDBRANCH  17  24
ENDBRANCH   1  21
TORSDOF 7
ENDMDL
MODEL 9
REMARK VINA RESULT:      -7.9      1.715      2.321
REMARK  Name = 
REMARK  11 active torsions:
REMARK  status: ('A' for Active; 'I' for Inactive)
REMARK    1  A    between atoms: C_1  and  C_2
REMARK    2  A    between atoms: C_2  and  C_3
REMARK    3  A    between atoms: C_2  and  C_10
REMARK    4  A    between atoms: C_3  and  C_4
REMARK    5  A    between atoms: N_8  and  C_9
REMARK    6  A    between atoms: C_14  and  N_15
REMARK    7  A    between atoms: C_16  and  C_18
REMARK    8  A    between atoms: C_20  and  C_21
REMARK    9  A    between atoms: C_21  and  C_22
REMARK   10  A    between atoms: C_21  and  C_23
REMARK   11  A    between atoms: C_21  and  O_24
REMARK                            x       y       z     vdW  Elec       q    Type
REMARK                         _______ _______ _______ _____ _____    ______ ____
ROOT
ATOM      1  N   UNL     1       2.150   6.774  18.893  0.00  0.00    +0.000 N 
ATOM      2  C   UNL     1       1.830   6.823  20.237  0.00  0.00    +0.000 C 
ATOM      3  O   UNL     1       1.969   5.920  21.059  0.00  0.00    +0.000 OA
ATOM      4  H   UNL     1       2.052   7.651  18.388  0.00  0.00    +0.000 HD
ENDROOT
BRANCH   2   5
ATOM      5  C   UNL     1       1.292   8.132  20.713  0.00  0.00    +0.000 A 
ATOM      6  C   UNL     1       1.316   9.223  19.843  0.00  0.00    +0.000 A 
ATOM      7  C   UNL     1       0.785  10.472  20.230  0.00  0.00    +0.000 A 
ATOM      8  C   UNL     1       0.253  10.534  21.526  0.00  0.00    +0.000 A 
ATOM      9 CL   UNL     1      -0.448  11.944  22.227  0.00  0.00    +0.000 Cl
ATOM     10  C   UNL     1       0.283   9.387  22.333  0.00  0.00    +0.000 A 
ATOM     11  N   UNL     1       0.786   8.184  21.966  0.00  0.00    +0.000 NA
BRANCH   7  12
ATOM     12  C   UNL     1       0.827  11.606  19.196  0.00  0.00    +0.000 C 
ATOM     13  C   UNL     1       1.953  11.373  18.174  0.00  0.00    +0.000 C 
ATOM     14  C   UNL     1      -0.523  11.724  18.466  0.00  0.00    +0.000 C 
BRANCH  12  15
ATOM     15  O   UNL     1       1.070  12.902  19.735  0.00  0.00    +0.000 OA
ATOM     16  H   UNL     1       1.902  13.241  19.362  0.00  0.00    +0.000 HD
ENDBRANCH  12  15
ENDBRANCH   7  12
ENDBRANCH   2   5
BRANCH   1  21
ATOM     17  C   UNL     1       4.406   4.690  16.776  0.00  0.00    +0.000 A 
ATOM     18  C   UNL     1       3.722   3.465  16.812  0.00  0.00    +0.000 A 
ATOM     19  C   UNL     1       2.524   3.334  17.506  0.00  0.00    +0.000 A 
ATOM     20  C   UNL     1       1.993   4.420  18.193  0.00  0.00    +0.000 A 
ATOM     21  C   UNL     1       2.650   5.649  18.201  0.00  0.00    +0.000 A 
ATOM     22  C   UNL     1       3.848   5.782  17.479  0.00  0.00    +0.000 A 
BRANCH  17  24
ATOM     23  C   UNL     1       5.857   3.884  14.818  0.00  0.00    +0.000 C 
ATOM     24  C   UNL     1       5.706   4.877  15.987  0.00  0.00    +0.000 C 
BRANCH  24  25
ATOM     25  C   UNL     1       6.928   4.814  16.933  0.00  0.00    +0.000 C 
BRANCH  25  26
ATOM     26  C   UNL     1       7.388   6.164  17.377  0.00  0.00    +0.000 A 
ATOM     27  N   UNL     1       7.425   7.260  16.647  0.00  0.00    +0.000 NA
ATOM     28  N   UNL     1       7.954   8.270  17.415  0.00  0.00    +0.000 NA
ATOM     29  C   UNL     1       8.221   7.772  18.599  0.00  0.00    +0.000 A 
ATOM     30  N   UNL     1       7.867   6.459  18.626  0.00  0.00    +0.000 N 
ATOM     31  C   UNL     1       7.980   5.570  19.751  0.00  0.00    +0.000 C 
ENDBRANCH  25  26
ENDBRANCH  24  25
ENDBRANCH  17  24
ENDBRANCH   1  21
TORSDOF 7
ENDMDL
