MODEL 1
REMARK VINA RESULT:      -8.9      0.000      0.000
REMARK  Name = 
REMARK  9 active torsions:
REMARK  status: ('A' for Active; 'I' for Inactive)
REMARK    1  A    between atoms: C_1  and  C_2
REMARK    2  A    between atoms: C_2  and  S_3
REMARK    3  A    between atoms: C_2  and  C_10
REMARK    4  A    between atoms: S_3  and  C_4
REMARK    5  A    between atoms: N_8  and  C_9
REMARK    6  A    between atoms: C_14  and  N_15
REMARK    7  A    between atoms: C_16  and  C_18
REMARK    8  A    between atoms: C_20  and  C_21
REMARK    9  A    between atoms: C_26  and  N_27
REMARK                            x       y       z     vdW  Elec       q    Type
REMARK                         _______ _______ _______ _____ _____    ______ ____
ROOT
ATOM      1  N   UNL     1       0.727   7.639  21.320  0.00  0.00    +0.000 N 
ATOM      2  C   UNL     1       1.619   7.362  20.299  0.00  0.00    +0.000 C 
ATOM      3  O   UNL     1       2.085   8.157  19.490  0.00  0.00    +0.000 OA
ATOM      4  H   UNL     1       0.542   6.876  21.963  0.00  0.00    +0.000 HD
ENDROOT
BRANCH   1   9
ATOM      5  C   UNL     1      -0.819  10.982  20.711  0.00  0.00    +0.000 A 
ATOM      6  C   UNL     1      -1.064  11.386  22.033  0.00  0.00    +0.000 A 
ATOM      7  C   UNL     1      -0.658  10.606  23.108  0.00  0.00    +0.000 A 
ATOM      8  C   UNL     1      -0.035   9.381  22.882  0.00  0.00    +0.000 A 
ATOM      9  C   UNL     1       0.156   8.906  21.585  0.00  0.00    +0.000 A 
ATOM     10  C   UNL     1      -0.213   9.721  20.504  0.00  0.00    +0.000 A 
BRANCH   5  12
ATOM     11  C   UNL     1      -0.423  13.286  19.587  0.00  0.00    +0.000 C 
ATOM     12  C   UNL     1      -1.101  11.911  19.536  0.00  0.00    +0.000 C 
BRANCH  12  13
ATOM     13  S   UNL     1      -2.853  12.078  19.060  0.00  0.00    +0.000 S 
BRANCH  13  14
ATOM     14  C   UNL     1      -2.979  11.287  17.534  0.00  0.00    +0.000 A 
ATOM     15  N   UNL     1      -2.083  10.545  16.927  0.00  0.00    +0.000 NA
ATOM     16  N   UNL     1      -2.575  10.228  15.676  0.00  0.00    +0.000 NA
ATOM     17  C   UNL     1      -3.763  10.775  15.569  0.00  0.00    +0.000 A 
ATOM     18  N   UNL     1      -4.086  11.396  16.738  0.00  0.00    +0.000 N 
ATOM     19  C   UNL     1      -5.352  12.004  17.047  0.00  0.00    +0.000 C 
ENDBRANCH  13  14
ENDBRANCH  12  13
ENDBRANCH   5  12
ENDBRANCH   1   9
BRANCH   2  20
ATOM     20  C   UNL     1       2.076   5.943  20.213  0.00  0.00    +0.000 A 
ATOM     21  C   UNL     1       2.766   5.561  19.074  0.00  0.00    +0.000 A 
ATOM     22  C   UNL     1       3.271   4.273  19.002  0.00  0.00    +0.000 A 
ATOM     23  C   UNL     1       2.983   3.382  20.036  0.00  0.00    +0.000 A 
ATOM     24  C   UNL     1       2.245   3.841  21.119  0.00  0.00    +0.000 A 
ATOM     25  N   UNL     1       1.803   5.112  21.253  0.00  0.00    +0.000 NA
BRANCH  22  26
ATOM     26  C   UNL     1       3.987   3.798  17.786  0.00  0.00    +0.000 C 
ATOM     27  O   UNL     1       3.515   2.833  17.188  0.00  0.00    +0.000 OA
ATOM     28  N   UNL     1       5.118   4.464  17.341  0.00  0.00    +0.000 N 
ATOM     29  C   UNL     1       5.656   4.185  16.018  0.00  0.00    +0.000 C 
ATOM     30  C   UNL     1       6.848   5.126  15.884  0.00  0.00    +0.000 C 
ATOM     31  C   UNL     1       7.374   5.233  17.317  0.00  0.00    +0.000 C 
ATOM     32  C   UNL     1       6.061   5.270  18.123  0.00  0.00    +0.000 C 
BRANCH  31  33
ATOM     33  N   UNL     1       8.214   4.076  17.654  0.00  0.00    +0.000 NA
ATOM     34  H   UNL     1       8.072   3.336  16.965  0.00  0.00    +0.000 HD
ATOM     35  H   UNL     1       7.909   3.682  18.544  0.00  0.00    +0.000 HD
ENDBRANCH  31  33
ENDBRANCH  22  26
ENDBRANCH   2  20
TORSDOF 7
ENDMDL
MODEL 2
REMARK VINA RESULT:      -8.8      6.236      8.792
REMARK  Name = 
REMARK  9 active torsions:
REMARK  status: ('A' for Active; 'I' for Inactive)
REMARK    1  A    between atoms: C_1  and  C_2
REMARK    2  A    between atoms: C_2  and  S_3
REMARK    3  A    between atoms: C_2  and  C_10
REMARK    4  A    between atoms: S_3  and  C_4
REMARK    5  A    between atoms: N_8  and  C_9
REMARK    6  A    between atoms: C_14  and  N_15
REMARK    7  A    between atoms: C_16  and  C_18
REMARK    8  A    between atoms: C_20  and  C_21
REMARK    9  A    between atoms: C_26  and  N_27
REMARK                            x       y       z     vdW  Elec       q    Type
REMARK                         _______ _______ _______ _____ _____    ______ ____
ROOT
ATOM      1  N   UNL     1       7.870   8.980  17.790  0.00  0.00    +0.000 N 
ATOM      2  C   UNL     1       7.895   7.632  18.104  0.00  0.00    +0.000 C 
ATOM      3  O   UNL     1       8.577   7.088  18.965  0.00  0.00    +0.000 OA
ATOM      4  H   UNL     1       7.157   9.264  17.126  0.00  0.00    +0.000 HD
ENDROOT
BRANCH   1   9
ATOM      5  C   UNL     1       9.800  12.147  18.208  0.00  0.00    +0.000 A 
ATOM      6  C   UNL     1      10.181  12.029  19.554  0.00  0.00    +0.000 A 
ATOM      7  C   UNL     1       9.873  10.892  20.289  0.00  0.00    +0.000 A 
ATOM      8  C   UNL     1       9.138   9.863  19.704  0.00  0.00    +0.000 A 
ATOM      9  C   UNL     1       8.673   9.975  18.394  0.00  0.00    +0.000 A 
ATOM     10  C   UNL     1       9.029  11.105  17.643  0.00  0.00    +0.000 A 
BRANCH   5  12
ATOM     11  C   UNL     1      11.755  13.253  16.910  0.00  0.00    +0.000 C 
ATOM     12  C   UNL     1      10.286  13.308  17.348  0.00  0.00    +0.000 C 
BRANCH  12  13
ATOM     13  S   UNL     1       9.861  14.975  17.954  0.00  0.00    +0.000 S 
BRANCH  13  14
ATOM     14  C   UNL     1       8.188  14.890  18.358  0.00  0.00    +0.000 A 
ATOM     15  N   UNL     1       7.163  14.743  17.552  0.00  0.00    +0.000 NA
ATOM     16  N   UNL     1       6.013  14.856  18.306  0.00  0.00    +0.000 NA
ATOM     17  C   UNL     1       6.375  15.053  19.552  0.00  0.00    +0.000 A 
ATOM     18  N   UNL     1       7.734  15.017  19.642  0.00  0.00    +0.000 N 
ATOM     19  C   UNL     1       8.500  15.072  20.859  0.00  0.00    +0.000 C 
ENDBRANCH  13  14
ENDBRANCH  12  13
ENDBRANCH   5  12
ENDBRANCH   1   9
BRANCH   2  20
ATOM     20  C   UNL     1       6.959   6.773  17.320  0.00  0.00    +0.000 A 
ATOM     21  C   UNL     1       5.691   6.569  17.839  0.00  0.00    +0.000 A 
ATOM     22  C   UNL     1       4.776   5.841  17.095  0.00  0.00    +0.000 A 
ATOM     23  C   UNL     1       5.195   5.262  15.898  0.00  0.00    +0.000 A 
ATOM     24  C   UNL     1       6.500   5.484  15.477  0.00  0.00    +0.000 A 
ATOM     25  N   UNL     1       7.394   6.250  16.143  0.00  0.00    +0.000 NA
BRANCH  22  26
ATOM     26  C   UNL     1       3.411   5.560  17.622  0.00  0.00    +0.000 C 
ATOM     27  O   UNL     1       2.632   6.506  17.717  0.00  0.00    +0.000 OA
ATOM     28  N   UNL     1       3.046   4.264  17.946  0.00  0.00    +0.000 N 
ATOM     29  C   UNL     1       1.649   3.939  18.193  0.00  0.00    +0.000 C 
ATOM     30  C   UNL     1       1.647   2.440  18.471  0.00  0.00    +0.000 C 
ATOM     31  C   UNL     1       2.997   2.207  19.152  0.00  0.00    +0.000 C 
ATOM     32  C   UNL     1       3.913   3.151  18.348  0.00  0.00    +0.000 C 
BRANCH  31  33
ATOM     33  N   UNL     1       2.932   2.560  20.577  0.00  0.00    +0.000 NA
ATOM     34  H   UNL     1       2.774   1.717  21.132  0.00  0.00    +0.000 HD
ATOM     35  H   UNL     1       2.119   3.153  20.744  0.00  0.00    +0.000 HD
ENDBRANCH  31  33
ENDBRANCH  22  26
ENDBRANCH   2  20
TORSDOF 7
ENDMDL
MODEL 3
REMARK VINA RESULT:      -8.8      3.895      9.574
REMARK  Name = 
REMARK  9 active torsions:
REMARK  status: ('A' for Active; 'I' for Inactive)
REMARK    1  A    between atoms: C_1  and  C_2
REMARK    2  A    between atoms: C_2  and  S_3
REMARK    3  A    between atoms: C_2  and  C_10
REMARK    4  A    between atoms: S_3  and  C_4
REMARK    5  A    between atoms: N_8  and  C_9
REMARK    6  A    between atoms: C_14  and  N_15
REMARK    7  A    between atoms: C_16  and  C_18
REMARK    8  A    between atoms: C_20  and  C_21
REMARK    9  A    between atoms: C_26  and  N_27
REMARK                            x       y       z     vdW  Elec       q    Type
REMARK                         _______ _______ _______ _____ _____    ______ ____
ROOT
ATOM      1  N   UNL     1       2.067   6.906  18.830  0.00  0.00    +0.000 N 
ATOM      2  C   UNL     1       2.045   8.179  18.288  0.00  0.00    +0.000 C 
ATOM      3  O   UNL     1       2.390   8.507  17.157  0.00  0.00    +0.000 OA
ATOM      4  H   UNL     1       1.636   6.808  19.742  0.00  0.00    +0.000 HD
ENDROOT
BRANCH   1   9
ATOM      5  C   UNL     1       4.307   4.660  16.861  0.00  0.00    +0.000 A 
ATOM      6  C   UNL     1       3.577   3.464  16.925  0.00  0.00    +0.000 A 
ATOM      7  C   UNL     1       2.333   3.415  17.541  0.00  0.00    +0.000 A 
ATOM      8  C   UNL     1       1.810   4.557  18.144  0.00  0.00    +0.000 A 
ATOM      9  C   UNL     1       2.538   5.746  18.171  0.00  0.00    +0.000 A 
ATOM     10  C   UNL     1       3.772   5.800  17.506  0.00  0.00    +0.000 A 
BRANCH   5  12
ATOM     11  C   UNL     1       5.649   3.884  14.781  0.00  0.00    +0.000 C 
ATOM     12  C   UNL     1       5.585   4.762  16.037  0.00  0.00    +0.000 C 
BRANCH  12  13
ATOM     13  S   UNL     1       7.145   4.651  16.976  0.00  0.00    +0.000 S 
BRANCH  13  14
ATOM     14  C   UNL     1       7.492   6.268  17.459  0.00  0.00    +0.000 A 
ATOM     15  N   UNL     1       7.376   7.369  16.756  0.00  0.00    +0.000 NA
ATOM     16  N   UNL     1       7.886   8.407  17.510  0.00  0.00    +0.000 NA
ATOM     17  C   UNL     1       8.283   7.905  18.656  0.00  0.00    +0.000 A 
ATOM     18  N   UNL     1       7.996   6.574  18.694  0.00  0.00    +0.000 N 
ATOM     19  C   UNL     1       8.170   5.707  19.828  0.00  0.00    +0.000 C 
ENDBRANCH  13  14
ENDBRANCH  12  13
ENDBRANCH   5  12
ENDBRANCH   1   9
BRANCH   2  20
ATOM     20  C   UNL     1       1.510   9.248  19.183  0.00  0.00    +0.000 A 
ATOM     21  C   UNL     1       1.260  10.489  18.619  0.00  0.00    +0.000 A 
ATOM     22  C   UNL     1       0.689  11.476  19.406  0.00  0.00    +0.000 A 
ATOM     23  C   UNL     1       0.477  11.214  20.759  0.00  0.00    +0.000 A 
ATOM     24  C   UNL     1       0.800   9.954  21.248  0.00  0.00    +0.000 A 
ATOM     25  N   UNL     1       1.288   8.947  20.489  0.00  0.00    +0.000 NA
BRANCH  22  26
ATOM     26  C   UNL     1       0.434  12.838  18.861  0.00  0.00    +0.000 C 
ATOM     27  O   UNL     1      -0.645  13.036  18.306  0.00  0.00    +0.000 OA
ATOM     28  N   UNL     1       1.377  13.840  19.025  0.00  0.00    +0.000 N 
ATOM     29  C   UNL     1       1.027  15.225  18.749  0.00  0.00    +0.000 C 
ATOM     30  C   UNL     1       2.289  16.013  19.081  0.00  0.00    +0.000 C 
ATOM     31  C   UNL     1       3.415  15.040  18.723  0.00  0.00    +0.000 C 
ATOM     32  C   UNL     1       2.826  13.699  19.205  0.00  0.00    +0.000 C 
BRANCH  31  33
ATOM     33  N   UNL     1       3.681  15.056  17.279  0.00  0.00    +0.000 NA
ATOM     34  H   UNL     1       3.276  14.224  16.846  0.00  0.00    +0.000 HD
ATOM     35  H   UNL     1       4.686  14.986  17.116  0.00  0.00    +0.000 HD
ENDBRANCH  31  33
ENDBRANCH  22  26
ENDBRANCH   2  20
TORSDOF 7
ENDMDL
MODEL 4
REMARK VINA RESULT:      -8.6      1.745      2.090
REMARK  Name = 
REMARK  9 active torsions:
REMARK  status: ('A' for Active; 'I' for Inactive)
REMARK    1  A    between atoms: C_1  and  C_2
REMARK    2  A    between atoms: C_2  and  S_3
REMARK    3  A    between atoms: C_2  and  C_10
REMARK    4  A    between atoms: S_3  and  C_4
REMARK    5  A    between atoms: N_8  and  C_9
REMARK    6  A    between atoms: C_14  and  N_15
REMARK    7  A    between atoms: C_16  and  C_18
REMARK    8  A    between atoms: C_20  and  C_21
REMARK    9  A    between atoms: C_26  and  N_27
REMARK                            x       y       z     vdW  Elec       q    Type
REMARK                         _______ _______ _______ _____ _____    ______ ____
ROOT
ATOM      1  N   UNL     1       2.179   7.207  20.575  0.00  0.00    +0.000 N 
ATOM      2  C   UNL     1       1.659   5.925  20.545  0.00  0.00    +0.000 C 
ATOM      3  O   UNL     1       0.486   5.600  20.697  0.00  0.00    +0.000 OA
ATOM      4  H   UNL     1       3.155   7.293  20.314  0.00  0.00    +0.000 HD
ENDROOT
BRANCH   1   9
ATOM      5  C   UNL     1       0.475  10.474  19.977  0.00  0.00    +0.000 A 
ATOM      6  C   UNL     1      -0.100  10.689  21.240  0.00  0.00    +0.000 A 
ATOM      7  C   UNL     1       0.132   9.812  22.291  0.00  0.00    +0.000 A 
ATOM      8  C   UNL     1       0.912   8.675  22.090  0.00  0.00    +0.000 A 
ATOM      9  C   UNL     1       1.436   8.384  20.831  0.00  0.00    +0.000 A 
ATOM     10  C   UNL     1       1.238   9.298  19.786  0.00  0.00    +0.000 A 
BRANCH   5  12
ATOM     11  C   UNL     1       1.592  12.428  18.688  0.00  0.00    +0.000 C 
ATOM     12  C   UNL     1       0.370  11.520  18.874  0.00  0.00    +0.000 C 
BRANCH  12  13
ATOM     13  S   UNL     1      -1.166  12.502  18.856  0.00  0.00    +0.000 S 
BRANCH  13  14
ATOM     14  C   UNL     1      -2.364  11.448  18.204  0.00  0.00    +0.000 A 
ATOM     15  N   UNL     1      -2.205  10.472  17.342  0.00  0.00    +0.000 NA
ATOM     16  N   UNL     1      -3.456   9.988  17.017  0.00  0.00    +0.000 NA
ATOM     17  C   UNL     1      -4.337  10.676  17.706  0.00  0.00    +0.000 A 
ATOM     18  N   UNL     1      -3.691  11.561  18.515  0.00  0.00    +0.000 N 
ATOM     19  C   UNL     1      -4.309  12.404  19.504  0.00  0.00    +0.000 C 
ENDBRANCH  13  14
ENDBRANCH  12  13
ENDBRANCH   5  12
ENDBRANCH   1   9
BRANCH   2  20
ATOM     20  C   UNL     1       2.644   4.839  20.263  0.00  0.00    +0.000 A 
ATOM     21  C   UNL     1       3.781   5.177  19.546  0.00  0.00    +0.000 A 
ATOM     22  C   UNL     1       4.750   4.209  19.338  0.00  0.00    +0.000 A 
ATOM     23  C   UNL     1       4.501   2.908  19.775  0.00  0.00    +0.000 A 
ATOM     24  C   UNL     1       3.313   2.651  20.447  0.00  0.00    +0.000 A 
ATOM     25  N   UNL     1       2.382   3.590  20.730  0.00  0.00    +0.000 NA
BRANCH  22  26
ATOM     26  C   UNL     1       5.973   4.507  18.542  0.00  0.00    +0.000 C 
ATOM     27  O   UNL     1       6.988   4.824  19.158  0.00  0.00    +0.000 OA
ATOM     28  N   UNL     1       5.951   4.383  17.163  0.00  0.00    +0.000 N 
ATOM     29  C   UNL     1       7.195   4.400  16.409  0.00  0.00    +0.000 C 
ATOM     30  C   UNL     1       6.768   4.200  14.959  0.00  0.00    +0.000 C 
ATOM     31  C   UNL     1       5.401   4.886  14.898  0.00  0.00    +0.000 C 
ATOM     32  C   UNL     1       4.799   4.492  16.261  0.00  0.00    +0.000 C 
BRANCH  31  33
ATOM     33  N   UNL     1       5.552   6.339  14.744  0.00  0.00    +0.000 NA
ATOM     34  H   UNL     1       5.585   6.780  15.664  0.00  0.00    +0.000 HD
ATOM     35  H   UNL     1       4.723   6.721  14.288  0.00  0.00    +0.000 HD
ENDBRANCH  31  33
ENDBRANCH  22  26
ENDBRANCH   2  20
TORSDOF 7
ENDMDL
MODEL 5
REMARK VINA RESULT:      -8.4      2.276      3.497
REMARK  Name = 
REMARK  9 active torsions:
REMARK  status: ('A' for Active; 'I' for Inactive)
REMARK    1  A    between atoms: C_1  and  C_2
REMARK    2  A    between atoms: C_2  and  S_3
REMARK    3  A    between atoms: C_2  and  C_10
REMARK    4  A    between atoms: S_3  and  C_4
REMARK    5  A    between atoms: N_8  and  C_9
REMARK    6  A    between atoms: C_14  and  N_15
REMARK    7  A    between atoms: C_16  and  C_18
REMARK    8  A    between atoms: C_20  and  C_21
REMARK    9  A    between atoms: C_26  and  N_27
REMARK                            x       y       z     vdW  Elec       q    Type
REMARK                         _______ _______ _______ _____ _____    ______ ____
ROOT
ATOM      1  N   UNL     1       1.617   8.202  19.036  0.00  0.00    +0.000 N 
ATOM      2  C   UNL     1       1.709   7.536  20.246  0.00  0.00    +0.000 C 
ATOM      3  O   UNL     1       1.468   7.992  21.359  0.00  0.00    +0.000 OA
ATOM      4  H   UNL     1       1.745   7.630  18.208  0.00  0.00    +0.000 HD
ENDROOT
BRANCH   1   9
ATOM      5  C   UNL     1      -0.445  11.313  19.096  0.00  0.00    +0.000 A 
ATOM      6  C   UNL     1       0.509  12.251  18.673  0.00  0.00    +0.000 A 
ATOM      7  C   UNL     1       1.788  11.856  18.302  0.00  0.00    +0.000 A 
ATOM      8  C   UNL     1       2.153  10.514  18.386  0.00  0.00    +0.000 A 
ATOM      9  C   UNL     1       1.260   9.561  18.876  0.00  0.00    +0.000 A 
ATOM     10  C   UNL     1      -0.044   9.960  19.203  0.00  0.00    +0.000 A 
BRANCH   5  12
ATOM     11  C   UNL     1      -2.813  11.687  18.104  0.00  0.00    +0.000 C 
ATOM     12  C   UNL     1      -1.896  11.714  19.334  0.00  0.00    +0.000 C 
BRANCH  12  13
ATOM     13  S   UNL     1      -2.148  13.249  20.286  0.00  0.00    +0.000 S 
BRANCH  13  14
ATOM     14  C   UNL     1      -3.042  12.769  21.679  0.00  0.00    +0.000 A 
ATOM     15  N   UNL     1      -4.328  12.903  21.904  0.00  0.00    +0.000 NA
ATOM     16  N   UNL     1      -4.574  12.491  23.198  0.00  0.00    +0.000 NA
ATOM     17  C   UNL     1      -3.430  12.105  23.715  0.00  0.00    +0.000 A 
ATOM     18  N   UNL     1      -2.451  12.202  22.774  0.00  0.00    +0.000 N 
ATOM     19  C   UNL     1      -1.090  11.758  22.925  0.00  0.00    +0.000 C 
ENDBRANCH  13  14
ENDBRANCH  12  13
ENDBRANCH   5  12
ENDBRANCH   1   9
BRANCH   2  20
ATOM     20  C   UNL     1       2.116   6.102  20.161  0.00  0.00    +0.000 A 
ATOM     21  C   UNL     1       2.801   5.698  19.026  0.00  0.00    +0.000 A 
ATOM     22  C   UNL     1       3.260   4.393  18.955  0.00  0.00    +0.000 A 
ATOM     23  C   UNL     1       2.932   3.511  19.984  0.00  0.00    +0.000 A 
ATOM     24  C   UNL     1       2.203   3.994  21.063  0.00  0.00    +0.000 A 
ATOM     25  N   UNL     1       1.805   5.280  21.197  0.00  0.00    +0.000 NA
BRANCH  22  26
ATOM     26  C   UNL     1       3.968   3.895  17.743  0.00  0.00    +0.000 C 
ATOM     27  O   UNL     1       3.476   2.938  17.150  0.00  0.00    +0.000 OA
ATOM     28  N   UNL     1       5.115   4.532  17.298  0.00  0.00    +0.000 N 
ATOM     29  C   UNL     1       5.651   4.234  15.979  0.00  0.00    +0.000 C 
ATOM     30  C   UNL     1       6.865   5.146  15.843  0.00  0.00    +0.000 C 
ATOM     31  C   UNL     1       7.389   5.249  17.277  0.00  0.00    +0.000 C 
ATOM     32  C   UNL     1       6.075   5.321  18.079  0.00  0.00    +0.000 C 
BRANCH  31  33
ATOM     33  N   UNL     1       8.201   4.075  17.623  0.00  0.00    +0.000 NA
ATOM     34  H   UNL     1       8.571   4.181  18.569  0.00  0.00    +0.000 HD
ATOM     35  H   UNL     1       9.018   4.034  17.013  0.00  0.00    +0.000 HD
ENDBRANCH  31  33
ENDBRANCH  22  26
ENDBRANCH   2  20
TORSDOF 7
ENDMDL
MODEL 6
REMARK VINA RESULT:      -8.4      3.334      9.691
REMARK  Name = 
REMARK  9 active torsions:
REMARK  status: ('A' for Active; 'I' for Inactive)
REMARK    1  A    between atoms: C_1  and  C_2
REMARK    2  A    between atoms: C_2  and  S_3
REMARK    3  A    between atoms: C_2  and  C_10
REMARK    4  A    between atoms: S_3  and  C_4
REMARK    5  A    between atoms: N_8  and  C_9
REMARK    6  A    between atoms: C_14  and  N_15
REMARK    7  A    between atoms: C_16  and  C_18
REMARK    8  A    between atoms: C_20  and  C_21
REMARK    9  A    between atoms: C_26  and  N_27
REMARK                            x       y       z     vdW  Elec       q    Type
REMARK                         _______ _______ _______ _____ _____    ______ ____
ROOT
ATOM      1  N   UNL     1       1.553   8.519  19.049  0.00  0.00    +0.000 N 
ATOM      2  C   UNL     1       1.042   9.440  19.946  0.00  0.00    +0.000 C 
ATOM      3  O   UNL     1       1.066   9.370  21.170  0.00  0.00    +0.000 OA
ATOM      4  H   UNL     1       1.544   8.801  18.074  0.00  0.00    +0.000 HD
ENDROOT
BRANCH   1   9
ATOM      5  C   UNL     1       3.900   5.619  18.926  0.00  0.00    +0.000 A 
ATOM      6  C   UNL     1       3.499   4.926  20.078  0.00  0.00    +0.000 A 
ATOM      7  C   UNL     1       2.425   5.365  20.841  0.00  0.00    +0.000 A 
ATOM      8  C   UNL     1       1.753   6.534  20.489  0.00  0.00    +0.000 A 
ATOM      9  C   UNL     1       2.170   7.294  19.397  0.00  0.00    +0.000 A 
ATOM     10  C   UNL     1       3.225   6.819  18.604  0.00  0.00    +0.000 A 
BRANCH   5  12
ATOM     11  C   UNL     1       5.878   6.070  17.308  0.00  0.00    +0.000 C 
ATOM     12  C   UNL     1       4.959   5.048  17.990  0.00  0.00    +0.000 C 
BRANCH  12  13
ATOM     13  S   UNL     1       4.368   3.814  16.784  0.00  0.00    +0.000 S 
BRANCH  13  14
ATOM     14  C   UNL     1       2.862   3.260  17.412  0.00  0.00    +0.000 A 
ATOM     15  N   UNL     1       1.671   3.784  17.246  0.00  0.00    +0.000 NA
ATOM     16  N   UNL     1       0.785   3.076  18.034  0.00  0.00    +0.000 NA
ATOM     17  C   UNL     1       1.466   2.133  18.643  0.00  0.00    +0.000 A 
ATOM     18  N   UNL     1       2.764   2.170  18.232  0.00  0.00    +0.000 N 
ATOM     19  C   UNL     1       3.786   1.221  18.584  0.00  0.00    +0.000 C 
ENDBRANCH  13  14
ENDBRANCH  12  13
ENDBRANCH   5  12
ENDBRANCH   1   9
BRANCH   2  20
ATOM     20  C   UNL     1       0.428  10.657  19.337  0.00  0.00    +0.000 A 
ATOM     21  C   UNL     1      -0.760  10.495  18.642  0.00  0.00    +0.000 A 
ATOM     22  C   UNL     1      -1.394  11.618  18.135  0.00  0.00    +0.000 A 
ATOM     23  C   UNL     1      -0.763  12.856  18.259  0.00  0.00    +0.000 A 
ATOM     24  C   UNL     1       0.449  12.917  18.933  0.00  0.00    +0.000 A 
ATOM     25  N   UNL     1       1.056  11.851  19.504  0.00  0.00    +0.000 NA
BRANCH  22  26
ATOM     26  C   UNL     1      -2.652  11.497  17.348  0.00  0.00    +0.000 C 
ATOM     27  O   UNL     1      -2.550  11.316  16.136  0.00  0.00    +0.000 OA
ATOM     28  N   UNL     1      -3.880  11.548  17.988  0.00  0.00    +0.000 N 
ATOM     29  C   UNL     1      -5.089  11.157  17.280  0.00  0.00    +0.000 C 
ATOM     30  C   UNL     1      -6.202  11.307  18.312  0.00  0.00    +0.000 C 
ATOM     31  C   UNL     1      -5.727  12.479  19.174  0.00  0.00    +0.000 C 
ATOM     32  C   UNL     1      -4.213  12.204  19.258  0.00  0.00    +0.000 C 
BRANCH  31  33
ATOM     33  N   UNL     1      -6.034  13.762  18.528  0.00  0.00    +0.000 NA
ATOM     34  H   UNL     1      -7.041  13.931  18.561  0.00  0.00    +0.000 HD
ATOM     35  H   UNL     1      -5.799  13.709  17.537  0.00  0.00    +0.000 HD
ENDBRANCH  31  33
ENDBRANCH  22  26
ENDBRANCH   2  20
TORSDOF 7
ENDMDL
MODEL 7
REMARK VINA RESULT:      -8.4      2.755      3.683
REMARK  Name = 
REMARK  9 active torsions:
REMARK  status: ('A' for Active; 'I' for Inactive)
REMARK    1  A    between atoms: C_1  and  C_2
REMARK    2  A    between atoms: C_2  and  S_3
REMARK    3  A    between atoms: C_2  and  C_10
REMARK    4  A    between atoms: S_3  and  C_4
REMARK    5  A    between atoms: N_8  and  C_9
REMARK    6  A    between atoms: C_14  and  N_15
REMARK    7  A    between atoms: C_16  and  C_18
REMARK    8  A    between atoms: C_20  and  C_21
REMARK    9  A    between atoms: C_26  and  N_27
REMARK                            x       y       z     vdW  Elec       q    Type
REMARK                         _______ _______ _______ _____ _____    ______ ____
ROOT
ATOM      1  N   UNL     1       0.850   7.565  21.298  0.00  0.00    +0.000 N 
ATOM      2  C   UNL     1       1.740   7.239  20.290  0.00  0.00    +0.000 C 
ATOM      3  O   UNL     1       2.247   8.006  19.477  0.00  0.00    +0.000 OA
ATOM      4  H   UNL     1       0.626   6.818  21.947  0.00  0.00    +0.000 HD
ENDROOT
BRANCH   1   9
ATOM      5  C   UNL     1      -0.171  11.104  20.692  0.00  0.00    +0.000 A 
ATOM      6  C   UNL     1      -0.763  11.407  21.929  0.00  0.00    +0.000 A 
ATOM      7  C   UNL     1      -0.758  10.487  22.970  0.00  0.00    +0.000 A 
ATOM      8  C   UNL     1      -0.197   9.226  22.782  0.00  0.00    +0.000 A 
ATOM      9  C   UNL     1       0.331   8.858  21.544  0.00  0.00    +0.000 A 
ATOM     10  C   UNL     1       0.365   9.808  20.513  0.00  0.00    +0.000 A 
BRANCH   5  12
ATOM     11  C   UNL     1       1.285  12.118  18.800  0.00  0.00    +0.000 C 
ATOM     12  C   UNL     1      -0.017  12.166  19.610  0.00  0.00    +0.000 C 
BRANCH  12  13
ATOM     13  S   UNL     1      -0.391  13.877  20.119  0.00  0.00    +0.000 S 
BRANCH  13  14
ATOM     14  C   UNL     1       1.051  14.444  20.875  0.00  0.00    +0.000 A 
ATOM     15  N   UNL     1       1.542  14.108  22.044  0.00  0.00    +0.000 NA
ATOM     16  N   UNL     1       2.642  14.907  22.285  0.00  0.00    +0.000 NA
ATOM     17  C   UNL     1       2.794  15.694  21.246  0.00  0.00    +0.000 A 
ATOM     18  N   UNL     1       1.854  15.394  20.306  0.00  0.00    +0.000 N 
ATOM     19  C   UNL     1       1.775  15.957  18.985  0.00  0.00    +0.000 C 
ENDBRANCH  13  14
ENDBRANCH  12  13
ENDBRANCH   5  12
ENDBRANCH   1   9
BRANCH   2  20
ATOM     20  C   UNL     1       2.137   5.802  20.224  0.00  0.00    +0.000 A 
ATOM     21  C   UNL     1       2.847   5.385  19.109  0.00  0.00    +0.000 A 
ATOM     22  C   UNL     1       3.297   4.076  19.057  0.00  0.00    +0.000 A 
ATOM     23  C   UNL     1       2.938   3.203  20.083  0.00  0.00    +0.000 A 
ATOM     24  C   UNL     1       2.186   3.698  21.141  0.00  0.00    +0.000 A 
ATOM     25  N   UNL     1       1.795   4.988  21.257  0.00  0.00    +0.000 NA
BRANCH  22  26
ATOM     26  C   UNL     1       4.032   3.565  17.866  0.00  0.00    +0.000 C 
ATOM     27  O   UNL     1       3.611   2.539  17.336  0.00  0.00    +0.000 OA
ATOM     28  N   UNL     1       5.120   4.264  17.368  0.00  0.00    +0.000 N 
ATOM     29  C   UNL     1       5.664   3.932  16.060  0.00  0.00    +0.000 C 
ATOM     30  C   UNL     1       6.800   4.927  15.854  0.00  0.00    +0.000 C 
ATOM     31  C   UNL     1       7.328   5.156  17.272  0.00  0.00    +0.000 C 
ATOM     32  C   UNL     1       6.021   5.171  18.088  0.00  0.00    +0.000 C 
BRANCH  31  33
ATOM     33  N   UNL     1       8.235   4.073  17.674  0.00  0.00    +0.000 NA
ATOM     34  H   UNL     1       7.752   3.176  17.600  0.00  0.00    +0.000 HD
ATOM     35  H   UNL     1       8.471   4.174  18.661  0.00  0.00    +0.000 HD
ENDBRANCH  31  33
ENDBRANCH  22  26
ENDBRANCH   2  20
TORSDOF 7
ENDMDL
MODEL 8
REMARK VINA RESULT:      -8.3      3.974      5.318
REMARK  Name = 
REMARK  9 active torsions:
REMARK  status: ('A' for Active; 'I' for Inactive)
REMARK    1  A    between atoms: C_1  and  C_2
REMARK    2  A    between atoms: C_2  and  S_3
REMARK    3  A    between atoms: C_2  and  C_10
REMARK    4  A    between atoms: S_3  and  C_4
REMARK    5  A    between atoms: N_8  and  C_9
REMARK    6  A    between atoms: C_14  and  N_15
REMARK    7  A    between atoms: C_16  and  C_18
REMARK    8  A    between atoms: C_20  and  C_21
REMARK    9  A    between atoms: C_26  and  N_27
REMARK                            x       y       z     vdW  Elec       q    Type
REMARK                         _______ _______ _______ _____ _____    ______ ____
ROOT
ATOM      1  N   UNL     1       0.946   9.561  19.264  0.00  0.00    +0.000 N 
ATOM      2  C   UNL     1       1.801   8.836  18.452  0.00  0.00    +0.000 C 
ATOM      3  O   UNL     1       2.324   9.212  17.408  0.00  0.00    +0.000 OA
ATOM      4  H   UNL     1       0.704   9.126  20.148  0.00  0.00    +0.000 HD
ENDROOT
BRANCH   1   9
ATOM      5  C   UNL     1       0.926  13.288  19.057  0.00  0.00    +0.000 A 
ATOM      6  C   UNL     1      -0.312  13.494  18.429  0.00  0.00    +0.000 A 
ATOM      7  C   UNL     1      -1.160  12.431  18.148  0.00  0.00    +0.000 A 
ATOM      8  C   UNL     1      -0.767  11.129  18.451  0.00  0.00    +0.000 A 
ATOM      9  C   UNL     1       0.488  10.874  19.003  0.00  0.00    +0.000 A 
ATOM     10  C   UNL     1       1.319  11.956  19.328  0.00  0.00    +0.000 A 
BRANCH   5  12
ATOM     11  C   UNL     1       1.030  15.772  19.795  0.00  0.00    +0.000 C 
ATOM     12  C   UNL     1       1.778  14.460  19.527  0.00  0.00    +0.000 C 
BRANCH  12  13
ATOM     13  S   UNL     1       3.295  14.774  18.564  0.00  0.00    +0.000 S 
BRANCH  13  14
ATOM     14  C   UNL     1       4.104  16.042  19.405  0.00  0.00    +0.000 A 
ATOM     15  N   UNL     1       4.220  17.302  19.059  0.00  0.00    +0.000 NA
ATOM     16  N   UNL     1       5.056  17.916  19.970  0.00  0.00    +0.000 NA
ATOM     17  C   UNL     1       5.411  17.011  20.852  0.00  0.00    +0.000 A 
ATOM     18  N   UNL     1       4.784  15.833  20.574  0.00  0.00    +0.000 N 
ATOM     19  C   UNL     1       4.826  14.645  21.383  0.00  0.00    +0.000 C 
ENDBRANCH  13  14
ENDBRANCH  12  13
ENDBRANCH   5  12
ENDBRANCH   1   9
BRANCH   2  20
ATOM     20  C   UNL     1       2.135   7.463  18.935  0.00  0.00    +0.000 A 
ATOM     21  C   UNL     1       2.768   6.609  18.046  0.00  0.00    +0.000 A 
ATOM     22  C   UNL     1       3.161   5.357  18.491  0.00  0.00    +0.000 A 
ATOM     23  C   UNL     1       2.819   4.969  19.786  0.00  0.00    +0.000 A 
ATOM     24  C   UNL     1       2.144   5.876  20.593  0.00  0.00    +0.000 A 
ATOM     25  N   UNL     1       1.813   7.131  20.213  0.00  0.00    +0.000 NA
BRANCH  22  26
ATOM     26  C   UNL     1       3.811   4.386  17.568  0.00  0.00    +0.000 C 
ATOM     27  O   UNL     1       3.217   3.334  17.339  0.00  0.00    +0.000 OA
ATOM     28  N   UNL     1       5.021   4.698  16.969  0.00  0.00    +0.000 N 
ATOM     29  C   UNL     1       5.520   3.891  15.867  0.00  0.00    +0.000 C 
ATOM     30  C   UNL     1       6.827   4.563  15.461  0.00  0.00    +0.000 C 
ATOM     31  C   UNL     1       7.359   5.124  16.782  0.00  0.00    +0.000 C 
ATOM     32  C   UNL     1       6.061   5.614  17.452  0.00  0.00    +0.000 C 
BRANCH  31  33
ATOM     33  N   UNL     1       8.038   4.078  17.558  0.00  0.00    +0.000 NA
ATOM     34  H   UNL     1       7.371   3.343  17.801  0.00  0.00    +0.000 HD
ATOM     35  H   UNL     1       8.353   4.464  18.448  0.00  0.00    +0.000 HD
ENDBRANCH  31  33
ENDBRANCH  22  26
ENDBRANCH   2  20
TORSDOF 7
ENDMDL
MODEL 9
REMARK VINA RESULT:      -8.3      3.968      5.416
REMARK  Name = 
REMARK  9 active torsions:
REMARK  status: ('A' for Active; 'I' for Inactive)
REMARK    1  A    between atoms: C_1  and  C_2
REMARK    2  A    between atoms: C_2  and  S_3
REMARK    3  A    between atoms: C_2  and  C_10
REMARK    4  A    between atoms: S_3  and  C_4
REMARK    5  A    between atoms: N_8  and  C_9
REMARK    6  A    between atoms: C_14  and  N_15
REMARK    7  A    between atoms: C_16  and  C_18
REMARK    8  A    between atoms: C_20  and  C_21
REMARK    9  A    between atoms: C_26  and  N_27
REMARK                            x       y       z     vdW  Elec       q    Type
REMARK                         _______ _______ _______ _____ _____    ______ ____
ROOT
ATOM      1  N   UNL     1       1.054   9.716  19.299  0.00  0.00    +0.000 N 
ATOM      2  C   UNL     1       1.776   8.929  18.419  0.00  0.00    +0.000 C 
ATOM      3  O   UNL     1       2.163   9.240  17.297  0.00  0.00    +0.000 OA
ATOM      4  H   UNL     1       0.922   9.332  20.228  0.00  0.00    +0.000 HD
ENDROOT
BRANCH   1   9
ATOM      5  C   UNL     1       1.078  13.432  18.945  0.00  0.00    +0.000 A 
ATOM      6  C   UNL     1      -0.215  13.642  18.442  0.00  0.00    +0.000 A 
ATOM      7  C   UNL     1      -1.106  12.587  18.293  0.00  0.00    +0.000 A 
ATOM      8  C   UNL     1      -0.707  11.290  18.606  0.00  0.00    +0.000 A 
ATOM      9  C   UNL     1       0.594  11.028  19.034  0.00  0.00    +0.000 A 
ATOM     10  C   UNL     1       1.473  12.104  19.227  0.00  0.00    +0.000 A 
BRANCH   5  12
ATOM     11  C   UNL     1       1.320  15.974  19.407  0.00  0.00    +0.000 C 
ATOM     12  C   UNL     1       1.996  14.603  19.276  0.00  0.00    +0.000 C 
BRANCH  12  13
ATOM     13  S   UNL     1       3.512  14.731  18.270  0.00  0.00    +0.000 S 
BRANCH  13  14
ATOM     14  C   UNL     1       4.788  14.938  19.409  0.00  0.00    +0.000 A 
ATOM     15  N   UNL     1       4.699  15.119  20.706  0.00  0.00    +0.000 NA
ATOM     16  N   UNL     1       5.970  15.361  21.186  0.00  0.00    +0.000 NA
ATOM     17  C   UNL     1       6.796  15.303  20.167  0.00  0.00    +0.000 A 
ATOM     18  N   UNL     1       6.105  14.976  19.040  0.00  0.00    +0.000 N 
ATOM     19  C   UNL     1       6.679  14.702  17.749  0.00  0.00    +0.000 C 
ENDBRANCH  13  14
ENDBRANCH  12  13
ENDBRANCH   5  12
ENDBRANCH   1   9
BRANCH   2  20
ATOM     20  C   UNL     1       2.140   7.572  18.923  0.00  0.00    +0.000 A 
ATOM     21  C   UNL     1       2.767   6.708  18.038  0.00  0.00    +0.000 A 
ATOM     22  C   UNL     1       3.188   5.472  18.500  0.00  0.00    +0.000 A 
ATOM     23  C   UNL     1       2.880   5.106  19.810  0.00  0.00    +0.000 A 
ATOM     24  C   UNL     1       2.209   6.020  20.613  0.00  0.00    +0.000 A 
ATOM     25  N   UNL     1       1.851   7.262  20.214  0.00  0.00    +0.000 NA
BRANCH  22  26
ATOM     26  C   UNL     1       3.832   4.491  17.584  0.00  0.00    +0.000 C 
ATOM     27  O   UNL     1       3.221   3.451  17.344  0.00  0.00    +0.000 OA
ATOM     28  N   UNL     1       5.055   4.782  17.002  0.00  0.00    +0.000 N 
ATOM     29  C   UNL     1       5.554   3.967  15.905  0.00  0.00    +0.000 C 
ATOM     30  C   UNL     1       6.878   4.616  15.518  0.00  0.00    +0.000 C 
ATOM     31  C   UNL     1       7.403   5.164  16.847  0.00  0.00    +0.000 C 
ATOM     32  C   UNL     1       6.105   5.676  17.501  0.00  0.00    +0.000 C 
BRANCH  31  33
ATOM     33  N   UNL     1       8.052   4.103  17.629  0.00  0.00    +0.000 NA
ATOM     34  H   UNL     1       8.311   3.331  17.013  0.00  0.00    +0.000 HD
ATOM     35  H   UNL     1       7.382   3.710  18.291  0.00  0.00    +0.000 HD
ENDBRANCH  31  33
ENDBRANCH  22  26
ENDBRANCH   2  20
TORSDOF 7
ENDMDL
