MODEL 1
REMARK VINA RESULT:      -8.5      0.000      0.000
REMARK  Name = 
REMARK  9 active torsions:
REMARK  status: ('A' for Active; 'I' for Inactive)
REMARK    1  A    between atoms: C_1  and  C_2
REMARK    2  A    between atoms: C_2  and  C_3
REMARK    3  A    between atoms: C_2  and  C_10
REMARK    4  A    between atoms: C_3  and  C_4
REMARK    5  A    between atoms: N_8  and  C_9
REMARK    6  A    between atoms: C_14  and  N_15
REMARK    7  A    between atoms: C_16  and  C_18
REMARK    8  A    between atoms: C_20  and  C_21
REMARK    9  A    between atoms: N_23  and  C_24
REMARK                            x       y       z     vdW  Elec       q    Type
REMARK                         _______ _______ _______ _____ _____    ______ ____
ROOT
ATOM      1  N   UNL     1       0.466   7.409  21.145  0.00  0.00    +0.000 N 
ATOM      2  C   UNL     1       1.553   7.070  20.355  0.00  0.00    +0.000 C 
ATOM      3  O   UNL     1       2.350   7.849  19.840  0.00  0.00    +0.000 OA
ATOM      4  H   UNL     1      -0.053   6.628  21.549  0.00  0.00    +0.000 HD
ENDROOT
BRANCH   1   9
ATOM      5  C   UNL     1      -0.660  10.943  20.615  0.00  0.00    +0.000 A 
ATOM      6  C   UNL     1      -0.829  11.358  21.944  0.00  0.00    +0.000 A 
ATOM      7  C   UNL     1      -0.565  10.493  22.999  0.00  0.00    +0.000 A 
ATOM      8  C   UNL     1      -0.135   9.193  22.747  0.00  0.00    +0.000 A 
ATOM      9  C   UNL     1       0.038   8.728  21.439  0.00  0.00    +0.000 A 
ATOM     10  C   UNL     1      -0.217   9.617  20.382  0.00  0.00    +0.000 A 
BRANCH   5  12
ATOM     11  C   UNL     1      -0.279  13.274  19.595  0.00  0.00    +0.000 C 
ATOM     12  C   UNL     1      -0.921  11.881  19.432  0.00  0.00    +0.000 C 
BRANCH  12  13
ATOM     13  C   UNL     1      -2.440  11.999  19.164  0.00  0.00    +0.000 C 
BRANCH  13  14
ATOM     14  C   UNL     1      -2.833  11.462  17.827  0.00  0.00    +0.000 A 
ATOM     15  N   UNL     1      -2.031  10.902  16.943  0.00  0.00    +0.000 NA
ATOM     16  N   UNL     1      -2.770  10.595  15.826  0.00  0.00    +0.000 NA
ATOM     17  C   UNL     1      -4.008  10.964  16.053  0.00  0.00    +0.000 A 
ATOM     18  N   UNL     1      -4.096  11.500  17.302  0.00  0.00    +0.000 N 
ATOM     19  C   UNL     1      -5.291  12.007  17.919  0.00  0.00    +0.000 C 
ENDBRANCH  13  14
ENDBRANCH  12  13
ENDBRANCH   5  12
ENDBRANCH   1   9
BRANCH   2  20
ATOM     20  C   UNL     1       1.794   5.605  20.146  0.00  0.00    +0.000 A 
ATOM     21  C   UNL     1       2.659   5.234  19.118  0.00  0.00    +0.000 A 
ATOM     22  C   UNL     1       2.940   3.885  18.922  0.00  0.00    +0.000 A 
ATOM     23  C   UNL     1       2.325   2.956  19.766  0.00  0.00    +0.000 A 
ATOM     24  C   UNL     1       1.464   3.418  20.759  0.00  0.00    +0.000 A 
ATOM     25  N   UNL     1       1.183   4.726  20.978  0.00  0.00    +0.000 NA
BRANCH  22  26
ATOM     26  C   UNL     1       3.925   3.412  17.887  0.00  0.00    +0.000 C 
ATOM     27  O   UNL     1       3.916   2.238  17.537  0.00  0.00    +0.000 OA
ATOM     28  N   UNL     1       4.812   4.350  17.392  0.00  0.00    +0.000 N 
ATOM     29  H   UNL     1       4.612   5.328  17.535  0.00  0.00    +0.000 HD
BRANCH  28  30
ATOM     30  C   UNL     1       5.869   4.094  16.416  0.00  0.00    +0.000 C 
ATOM     31  C   UNL     1       5.494   4.314  14.957  0.00  0.00    +0.000 C 
ATOM     32  C   UNL     1       6.789   4.772  14.312  0.00  0.00    +0.000 C 
ATOM     33  N   UNL     1       7.527   5.506  15.346  0.00  0.00    +0.000 NA
ATOM     34  C   UNL     1       7.157   4.895  16.631  0.00  0.00    +0.000 C 
ATOM     35  H   UNL     1       7.176   6.467  15.358  0.00  0.00    +0.000 HD
ENDBRANCH  28  30
ENDBRANCH  22  26
ENDBRANCH   2  20
TORSDOF 7
ENDMDL
MODEL 2
REMARK VINA RESULT:      -8.2      1.983      2.994
REMARK  Name = 
REMARK  9 active torsions:
REMARK  status: ('A' for Active; 'I' for Inactive)
REMARK    1  A    between atoms: C_1  and  C_2
REMARK    2  A    between atoms: C_2  and  C_3
REMARK    3  A    between atoms: C_2  and  C_10
REMARK    4  A    between atoms: C_3  and  C_4
REMARK    5  A    between atoms: N_8  and  C_9
REMARK    6  A    between atoms: C_14  and  N_15
REMARK    7  A    between atoms: C_16  and  C_18
REMARK    8  A    between atoms: C_20  and  C_21
REMARK    9  A    between atoms: N_23  and  C_24
REMARK                            x       y       z     vdW  Elec       q    Type
REMARK                         _______ _______ _______ _____ _____    ______ ____
ROOT
ATOM      1  N   UNL     1       0.641   8.074  21.155  0.00  0.00    +0.000 N 
ATOM      2  C   UNL     1       1.564   7.755  20.172  0.00  0.00    +0.000 C 
ATOM      3  O   UNL     1       2.036   8.524  19.339  0.00  0.00    +0.000 OA
ATOM      4  H   UNL     1       0.407   7.325  21.808  0.00  0.00    +0.000 HD
ENDROOT
BRANCH   1   9
ATOM      5  C   UNL     1      -1.141  11.261  20.315  0.00  0.00    +0.000 A 
ATOM      6  C   UNL     1      -1.241  11.840  21.588  0.00  0.00    +0.000 A 
ATOM      7  C   UNL     1      -0.720  11.198  22.706  0.00  0.00    +0.000 A 
ATOM      8  C   UNL     1      -0.095   9.960  22.573  0.00  0.00    +0.000 A 
ATOM      9  C   UNL     1       0.019   9.336  21.326  0.00  0.00    +0.000 A 
ATOM     10  C   UNL     1      -0.498  10.003  20.203  0.00  0.00    +0.000 A 
BRANCH   5  12
ATOM     11  C   UNL     1      -2.727  11.118  18.295  0.00  0.00    +0.000 C 
ATOM     12  C   UNL     1      -1.685  11.956  19.063  0.00  0.00    +0.000 C 
BRANCH  12  13
ATOM     13  C   UNL     1      -0.522  12.380  18.134  0.00  0.00    +0.000 C 
BRANCH  13  14
ATOM     14  C   UNL     1       0.186  13.602  18.619  0.00  0.00    +0.000 A 
ATOM     15  N   UNL     1      -0.377  14.701  19.080  0.00  0.00    +0.000 NA
ATOM     16  N   UNL     1       0.616  15.605  19.369  0.00  0.00    +0.000 NA
ATOM     17  C   UNL     1       1.765  15.038  19.088  0.00  0.00    +0.000 A 
ATOM     18  N   UNL     1       1.544  13.776  18.628  0.00  0.00    +0.000 N 
ATOM     19  C   UNL     1       2.554  12.834  18.228  0.00  0.00    +0.000 C 
ENDBRANCH  13  14
ENDBRANCH  12  13
ENDBRANCH   5  12
ENDBRANCH   1   9
BRANCH   2  20
ATOM     20  C   UNL     1       2.058   6.339  20.156  0.00  0.00    +0.000 A 
ATOM     21  C   UNL     1       3.168   6.053  19.365  0.00  0.00    +0.000 A 
ATOM     22  C   UNL     1       3.681   4.759  19.359  0.00  0.00    +0.000 A 
ATOM     23  C   UNL     1       3.044   3.796  20.145  0.00  0.00    +0.000 A 
ATOM     24  C   UNL     1       1.931   4.170  20.894  0.00  0.00    +0.000 A 
ATOM     25  N   UNL     1       1.419   5.425  20.927  0.00  0.00    +0.000 NA
BRANCH  22  26
ATOM     26  C   UNL     1       4.925   4.392  18.594  0.00  0.00    +0.000 C 
ATOM     27  O   UNL     1       5.933   4.057  19.205  0.00  0.00    +0.000 OA
ATOM     28  N   UNL     1       4.858   4.470  17.215  0.00  0.00    +0.000 N 
ATOM     29  H   UNL     1       3.952   4.513  16.776  0.00  0.00    +0.000 HD
BRANCH  28  30
ATOM     30  C   UNL     1       5.957   4.197  16.291  0.00  0.00    +0.000 C 
ATOM     31  C   UNL     1       5.594   4.184  14.812  0.00  0.00    +0.000 C 
ATOM     32  C   UNL     1       6.851   4.683  14.123  0.00  0.00    +0.000 C 
ATOM     33  N   UNL     1       7.488   5.618  15.057  0.00  0.00    +0.000 NA
ATOM     34  C   UNL     1       7.153   5.147  16.408  0.00  0.00    +0.000 C 
ATOM     35  H   UNL     1       7.043   6.532  14.938  0.00  0.00    +0.000 HD
ENDBRANCH  28  30
ENDBRANCH  22  26
ENDBRANCH   2  20
TORSDOF 7
ENDMDL
MODEL 3
REMARK VINA RESULT:      -8.1      2.846      3.689
REMARK  Name = 
REMARK  9 active torsions:
REMARK  status: ('A' for Active; 'I' for Inactive)
REMARK    1  A    between atoms: C_1  and  C_2
REMARK    2  A    between atoms: C_2  and  C_3
REMARK    3  A    between atoms: C_2  and  C_10
REMARK    4  A    between atoms: C_3  and  C_4
REMARK    5  A    between atoms: N_8  and  C_9
REMARK    6  A    between atoms: C_14  and  N_15
REMARK    7  A    between atoms: C_16  and  C_18
REMARK    8  A    between atoms: C_20  and  C_21
REMARK    9  A    between atoms: N_23  and  C_24
REMARK                            x       y       z     vdW  Elec       q    Type
REMARK                         _______ _______ _______ _____ _____    ______ ____
ROOT
ATOM      1  N   UNL     1       1.172   9.227  19.223  0.00  0.00    +0.000 N 
ATOM      2  C   UNL     1       1.387   8.368  20.288  0.00  0.00    +0.000 C 
ATOM      3  O   UNL     1       1.092   8.576  21.463  0.00  0.00    +0.000 OA
ATOM      4  H   UNL     1       1.417   8.865  18.301  0.00  0.00    +0.000 HD
ENDROOT
BRANCH   1   9
ATOM      5  C   UNL     1      -1.229  12.004  19.976  0.00  0.00    +0.000 A 
ATOM      6  C   UNL     1      -0.486  13.109  19.537  0.00  0.00    +0.000 A 
ATOM      7  C   UNL     1       0.781  12.944  18.990  0.00  0.00    +0.000 A 
ATOM      8  C   UNL     1       1.334  11.670  18.879  0.00  0.00    +0.000 A 
ATOM      9  C   UNL     1       0.637  10.537  19.313  0.00  0.00    +0.000 A 
ATOM     10  C   UNL     1      -0.648  10.717  19.850  0.00  0.00    +0.000 A 
BRANCH   5  12
ATOM     11  C   UNL     1      -3.719  12.443  19.502  0.00  0.00    +0.000 C 
ATOM     12  C   UNL     1      -2.637  12.154  20.562  0.00  0.00    +0.000 C 
BRANCH  12  13
ATOM     13  C   UNL     1      -2.646  13.233  21.672  0.00  0.00    +0.000 C 
BRANCH  13  14
ATOM     14  C   UNL     1      -3.639  12.943  22.748  0.00  0.00    +0.000 A 
ATOM     15  N   UNL     1      -3.498  12.073  23.729  0.00  0.00    +0.000 NA
ATOM     16  N   UNL     1      -4.655  12.069  24.470  0.00  0.00    +0.000 NA
ATOM     17  C   UNL     1      -5.475  12.942  23.935  0.00  0.00    +0.000 A 
ATOM     18  N   UNL     1      -4.873  13.525  22.861  0.00  0.00    +0.000 N 
ATOM     19  C   UNL     1      -5.447  14.540  22.020  0.00  0.00    +0.000 C 
ENDBRANCH  13  14
ENDBRANCH  12  13
ENDBRANCH   5  12
ENDBRANCH   1   9
BRANCH   2  20
ATOM     20  C   UNL     1       2.005   7.042  19.961  0.00  0.00    +0.000 A 
ATOM     21  C   UNL     1       2.836   6.976  18.846  0.00  0.00    +0.000 A 
ATOM     22  C   UNL     1       3.462   5.772  18.536  0.00  0.00    +0.000 A 
ATOM     23  C   UNL     1       3.214   4.671  19.361  0.00  0.00    +0.000 A 
ATOM     24  C   UNL     1       2.357   4.827  20.448  0.00  0.00    +0.000 A 
ATOM     25  N   UNL     1       1.745   5.990  20.778  0.00  0.00    +0.000 NA
BRANCH  22  26
ATOM     26  C   UNL     1       4.436   5.642  17.397  0.00  0.00    +0.000 C 
ATOM     27  O   UNL     1       4.704   6.626  16.716  0.00  0.00    +0.000 OA
ATOM     28  N   UNL     1       4.973   4.388  17.170  0.00  0.00    +0.000 N 
ATOM     29  H   UNL     1       4.903   3.693  17.898  0.00  0.00    +0.000 HD
BRANCH  28  30
ATOM     30  C   UNL     1       5.902   4.038  16.097  0.00  0.00    +0.000 C 
ATOM     31  C   UNL     1       5.437   4.358  14.684  0.00  0.00    +0.000 C 
ATOM     32  C   UNL     1       6.721   4.674  13.940  0.00  0.00    +0.000 C 
ATOM     33  N   UNL     1       7.631   5.270  14.923  0.00  0.00    +0.000 NA
ATOM     34  C   UNL     1       7.296   4.662  16.219  0.00  0.00    +0.000 C 
ATOM     35  H   UNL     1       7.409   6.266  14.993  0.00  0.00    +0.000 HD
ENDBRANCH  28  30
ENDBRANCH  22  26
ENDBRANCH   2  20
TORSDOF 7
ENDMDL
MODEL 4
REMARK VINA RESULT:      -8.1      2.614     10.390
REMARK  Name = 
REMARK  9 active torsions:
REMARK  status: ('A' for Active; 'I' for Inactive)
REMARK    1  A    between atoms: C_1  and  C_2
REMARK    2  A    between atoms: C_2  and  C_3
REMARK    3  A    between atoms: C_2  and  C_10
REMARK    4  A    between atoms: C_3  and  C_4
REMARK    5  A    between atoms: N_8  and  C_9
REMARK    6  A    between atoms: C_14  and  N_15
REMARK    7  A    between atoms: C_16  and  C_18
REMARK    8  A    between atoms: C_20  and  C_21
REMARK    9  A    between atoms: N_23  and  C_24
REMARK                            x       y       z     vdW  Elec       q    Type
REMARK                         _______ _______ _______ _____ _____    ______ ____
ROOT
ATOM      1  N   UNL     1       2.318   6.673  20.258  0.00  0.00    +0.000 N 
ATOM      2  C   UNL     1       1.890   7.876  19.719  0.00  0.00    +0.000 C 
ATOM      3  O   UNL     1       2.030   8.244  18.556  0.00  0.00    +0.000 OA
ATOM      4  H   UNL     1       2.058   6.501  21.229  0.00  0.00    +0.000 HD
ENDROOT
BRANCH   1   9
ATOM      5  C   UNL     1       4.650   5.111  17.775  0.00  0.00    +0.000 A 
ATOM      6  C   UNL     1       4.583   3.768  18.173  0.00  0.00    +0.000 A 
ATOM      7  C   UNL     1       3.774   3.379  19.235  0.00  0.00    +0.000 A 
ATOM      8  C   UNL     1       3.022   4.327  19.925  0.00  0.00    +0.000 A 
ATOM      9  C   UNL     1       3.064   5.681  19.573  0.00  0.00    +0.000 A 
ATOM     10  C   UNL     1       3.873   6.057  18.489  0.00  0.00    +0.000 A 
BRANCH   5  12
ATOM     11  C   UNL     1       4.930   6.769  15.828  0.00  0.00    +0.000 C 
ATOM     12  C   UNL     1       5.514   5.565  16.594  0.00  0.00    +0.000 C 
BRANCH  12  13
ATOM     13  C   UNL     1       5.786   4.379  15.638  0.00  0.00    +0.000 C 
BRANCH  13  14
ATOM     14  C   UNL     1       6.736   4.728  14.541  0.00  0.00    +0.000 A 
ATOM     15  N   UNL     1       7.792   5.513  14.641  0.00  0.00    +0.000 NA
ATOM     16  N   UNL     1       8.367   5.620  13.398  0.00  0.00    +0.000 NA
ATOM     17  C   UNL     1       7.658   4.894  12.567  0.00  0.00    +0.000 A 
ATOM     18  N   UNL     1       6.634   4.304  13.244  0.00  0.00    +0.000 N 
ATOM     19  C   UNL     1       5.647   3.423  12.681  0.00  0.00    +0.000 C 
ENDBRANCH  13  14
ENDBRANCH  12  13
ENDBRANCH   5  12
ENDBRANCH   1   9
BRANCH   2  20
ATOM     20  C   UNL     1       1.151   8.795  20.645  0.00  0.00    +0.000 A 
ATOM     21  C   UNL     1       0.366   9.793  20.072  0.00  0.00    +0.000 A 
ATOM     22  C   UNL     1      -0.368  10.638  20.899  0.00  0.00    +0.000 A 
ATOM     23  C   UNL     1      -0.273  10.450  22.281  0.00  0.00    +0.000 A 
ATOM     24  C   UNL     1       0.547   9.434  22.765  0.00  0.00    +0.000 A 
ATOM     25  N   UNL     1       1.263   8.591  21.981  0.00  0.00    +0.000 NA
BRANCH  22  26
ATOM     26  C   UNL     1      -1.300  11.685  20.353  0.00  0.00    +0.000 C 
ATOM     27  O   UNL     1      -1.163  12.074  19.199  0.00  0.00    +0.000 OA
ATOM     28  N   UNL     1      -2.270  12.170  21.212  0.00  0.00    +0.000 N 
ATOM     29  H   UNL     1      -2.482  11.647  22.048  0.00  0.00    +0.000 HD
BRANCH  28  30
ATOM     30  C   UNL     1      -3.245  13.212  20.898  0.00  0.00    +0.000 C 
ATOM     31  C   UNL     1      -4.607  13.071  21.563  0.00  0.00    +0.000 C 
ATOM     32  C   UNL     1      -5.068  14.504  21.759  0.00  0.00    +0.000 C 
ATOM     33  N   UNL     1      -3.855  15.302  21.970  0.00  0.00    +0.000 NA
ATOM     34  C   UNL     1      -2.787  14.641  21.205  0.00  0.00    +0.000 C 
ATOM     35  H   UNL     1      -3.603  15.232  22.960  0.00  0.00    +0.000 HD
ENDBRANCH  28  30
ENDBRANCH  22  26
ENDBRANCH   2  20
TORSDOF 7
ENDMDL
MODEL 5
REMARK VINA RESULT:      -8.1      1.932      2.469
REMARK  Name = 
REMARK  9 active torsions:
REMARK  status: ('A' for Active; 'I' for Inactive)
REMARK    1  A    between atoms: C_1  and  C_2
REMARK    2  A    between atoms: C_2  and  C_3
REMARK    3  A    between atoms: C_2  and  C_10
REMARK    4  A    between atoms: C_3  and  C_4
REMARK    5  A    between atoms: N_8  and  C_9
REMARK    6  A    between atoms: C_14  and  N_15
REMARK    7  A    between atoms: C_16  and  C_18
REMARK    8  A    between atoms: C_20  and  C_21
REMARK    9  A    between atoms: N_23  and  C_24
REMARK                            x       y       z     vdW  Elec       q    Type
REMARK                         _______ _______ _______ _____ _____    ______ ____
ROOT
ATOM      1  N   UNL     1       2.268   7.624  19.589  0.00  0.00    +0.000 N 
ATOM      2  C   UNL     1       2.270   6.267  19.870  0.00  0.00    +0.000 C 
ATOM      3  O   UNL     1       1.464   5.668  20.577  0.00  0.00    +0.000 OA
ATOM      4  H   UNL     1       2.974   7.944  18.925  0.00  0.00    +0.000 HD
ENDROOT
BRANCH   1   9
ATOM      5  C   UNL     1      -0.386  10.264  19.758  0.00  0.00    +0.000 A 
ATOM      6  C   UNL     1      -0.442  10.481  21.142  0.00  0.00    +0.000 A 
ATOM      7  C   UNL     1       0.388   9.778  22.007  0.00  0.00    +0.000 A 
ATOM      8  C   UNL     1       1.286   8.838  21.506  0.00  0.00    +0.000 A 
ATOM      9  C   UNL     1       1.372   8.579  20.134  0.00  0.00    +0.000 A 
ATOM     10  C   UNL     1       0.538   9.307  19.269  0.00  0.00    +0.000 A 
BRANCH   5  12
ATOM     11  C   UNL     1      -1.666  12.445  19.281  0.00  0.00    +0.000 C 
ATOM     12  C   UNL     1      -1.272  11.041  18.778  0.00  0.00    +0.000 C 
BRANCH  12  13
ATOM     13  C   UNL     1      -2.526  10.211  18.413  0.00  0.00    +0.000 C 
BRANCH  13  14
ATOM     14  C   UNL     1      -2.877  10.304  16.965  0.00  0.00    +0.000 A 
ATOM     15  N   UNL     1      -2.211   9.765  15.962  0.00  0.00    +0.000 NA
ATOM     16  N   UNL     1      -2.829  10.130  14.790  0.00  0.00    +0.000 NA
ATOM     17  C   UNL     1      -3.863  10.875  15.100  0.00  0.00    +0.000 A 
ATOM     18  N   UNL     1      -3.940  10.999  16.454  0.00  0.00    +0.000 N 
ATOM     19  C   UNL     1      -4.944  11.729  17.178  0.00  0.00    +0.000 C 
ENDBRANCH  13  14
ENDBRANCH  12  13
ENDBRANCH   5  12
ENDBRANCH   1   9
BRANCH   2  20
ATOM     20  C   UNL     1       3.341   5.452  19.210  0.00  0.00    +0.000 A 
ATOM     21  C   UNL     1       3.669   5.763  17.892  0.00  0.00    +0.000 A 
ATOM     22  C   UNL     1       4.688   5.056  17.261  0.00  0.00    +0.000 A 
ATOM     23  C   UNL     1       5.333   4.048  17.984  0.00  0.00    +0.000 A 
ATOM     24  C   UNL     1       4.930   3.798  19.293  0.00  0.00    +0.000 A 
ATOM     25  N   UNL     1       3.949   4.479  19.934  0.00  0.00    +0.000 NA
BRANCH  22  26
ATOM     26  C   UNL     1       5.153   5.387  15.869  0.00  0.00    +0.000 C 
ATOM     27  O   UNL     1       5.415   6.549  15.580  0.00  0.00    +0.000 OA
ATOM     28  N   UNL     1       5.245   4.338  14.973  0.00  0.00    +0.000 N 
ATOM     29  H   UNL     1       5.252   3.395  15.330  0.00  0.00    +0.000 HD
BRANCH  28  30
ATOM     30  C   UNL     1       5.636   4.446  13.569  0.00  0.00    +0.000 C 
ATOM     31  C   UNL     1       7.113   4.708  13.308  0.00  0.00    +0.000 C 
ATOM     32  C   UNL     1       7.380   4.007  11.989  0.00  0.00    +0.000 C 
ATOM     33  N   UNL     1       6.479   2.851  11.946  0.00  0.00    +0.000 NA
ATOM     34  C   UNL     1       5.277   3.235  12.702  0.00  0.00    +0.000 C 
ATOM     35  H   UNL     1       6.925   2.086  12.460  0.00  0.00    +0.000 HD
ENDBRANCH  28  30
ENDBRANCH  22  26
ENDBRANCH   2  20
TORSDOF 7
ENDMDL
MODEL 6
REMARK VINA RESULT:      -8.0      2.541     10.253
REMARK  Name = 
REMARK  9 active torsions:
REMARK  status: ('A' for Active; 'I' for Inactive)
REMARK    1  A    between atoms: C_1  and  C_2
REMARK    2  A    between atoms: C_2  and  C_3
REMARK    3  A    between atoms: C_2  and  C_10
REMARK    4  A    between atoms: C_3  and  C_4
REMARK    5  A    between atoms: N_8  and  C_9
REMARK    6  A    between atoms: C_14  and  N_15
REMARK    7  A    between atoms: C_16  and  C_18
REMARK    8  A    between atoms: C_20  and  C_21
REMARK    9  A    between atoms: N_23  and  C_24
REMARK                            x       y       z     vdW  Elec       q    Type
REMARK                         _______ _______ _______ _____ _____    ______ ____
ROOT
ATOM      1  N   UNL     1       2.098   6.390  19.236  0.00  0.00    +0.000 N 
ATOM      2  C   UNL     1       1.949   7.715  18.860  0.00  0.00    +0.000 C 
ATOM      3  O   UNL     1       2.174   8.186  17.748  0.00  0.00    +0.000 OA
ATOM      4  H   UNL     1       1.800   6.158  20.185  0.00  0.00    +0.000 HD
ENDROOT
BRANCH   1   9
ATOM      5  C   UNL     1       4.357   4.564  16.868  0.00  0.00    +0.000 A 
ATOM      6  C   UNL     1       3.694   3.332  16.783  0.00  0.00    +0.000 A 
ATOM      7  C   UNL     1       2.514   3.108  17.484  0.00  0.00    +0.000 A 
ATOM      8  C   UNL     1       1.979   4.109  18.291  0.00  0.00    +0.000 A 
ATOM      9  C   UNL     1       2.610   5.351  18.418  0.00  0.00    +0.000 A 
ATOM     10  C   UNL     1       3.792   5.570  17.692  0.00  0.00    +0.000 A 
BRANCH   5  12
ATOM     11  C   UNL     1       5.847   3.924  14.871  0.00  0.00    +0.000 C 
ATOM     12  C   UNL     1       5.646   4.849  16.089  0.00  0.00    +0.000 C 
BRANCH  12  13
ATOM     13  C   UNL     1       6.869   4.794  17.035  0.00  0.00    +0.000 C 
BRANCH  13  14
ATOM     14  C   UNL     1       7.346   6.150  17.439  0.00  0.00    +0.000 A 
ATOM     15  N   UNL     1       7.351   7.233  16.687  0.00  0.00    +0.000 NA
ATOM     16  N   UNL     1       7.917   8.256  17.410  0.00  0.00    +0.000 NA
ATOM     17  C   UNL     1       8.238   7.781  18.589  0.00  0.00    +0.000 A 
ATOM     18  N   UNL     1       7.884   6.467  18.657  0.00  0.00    +0.000 N 
ATOM     19  C   UNL     1       8.062   5.603  19.792  0.00  0.00    +0.000 C 
ENDBRANCH  13  14
ENDBRANCH  12  13
ENDBRANCH   5  12
ENDBRANCH   1   9
BRANCH   2  20
ATOM     20  C   UNL     1       1.426   8.651  19.908  0.00  0.00    +0.000 A 
ATOM     21  C   UNL     1       0.763   9.797  19.476  0.00  0.00    +0.000 A 
ATOM     22  C   UNL     1       0.226  10.667  20.421  0.00  0.00    +0.000 A 
ATOM     23  C   UNL     1       0.389  10.352  21.772  0.00  0.00    +0.000 A 
ATOM     24  C   UNL     1       1.078   9.189  22.112  0.00  0.00    +0.000 A 
ATOM     25  N   UNL     1       1.600   8.320  21.212  0.00  0.00    +0.000 NA
BRANCH  22  26
ATOM     26  C   UNL     1      -0.572  11.882  20.031  0.00  0.00    +0.000 C 
ATOM     27  O   UNL     1      -0.110  12.674  19.218  0.00  0.00    +0.000 OA
ATOM     28  N   UNL     1      -1.804  12.044  20.640  0.00  0.00    +0.000 N 
ATOM     29  H   UNL     1      -2.223  11.252  21.102  0.00  0.00    +0.000 HD
BRANCH  28  30
ATOM     30  C   UNL     1      -2.716  13.167  20.436  0.00  0.00    +0.000 C 
ATOM     31  C   UNL     1      -4.180  12.806  20.231  0.00  0.00    +0.000 C 
ATOM     32  C   UNL     1      -4.933  13.979  20.833  0.00  0.00    +0.000 C 
ATOM     33  N   UNL     1      -4.103  14.481  21.932  0.00  0.00    +0.000 NA
ATOM     34  C   UNL     1      -2.707  14.219  21.550  0.00  0.00    +0.000 C 
ATOM     35  H   UNL     1      -4.299  13.912  22.759  0.00  0.00    +0.000 HD
ENDBRANCH  28  30
ENDBRANCH  22  26
ENDBRANCH   2  20
TORSDOF 7
ENDMDL
MODEL 7
REMARK VINA RESULT:      -8.0      3.313      4.892
REMARK  Name = 
REMARK  9 active torsions:
REMARK  status: ('A' for Active; 'I' for Inactive)
REMARK    1  A    between atoms: C_1  and  C_2
REMARK    2  A    between atoms: C_2  and  C_3
REMARK    3  A    between atoms: C_2  and  C_10
REMARK    4  A    between atoms: C_3  and  C_4
REMARK    5  A    between atoms: N_8  and  C_9
REMARK    6  A    between atoms: C_14  and  N_15
REMARK    7  A    between atoms: C_16  and  C_18
REMARK    8  A    between atoms: C_20  and  C_21
REMARK    9  A    between atoms: N_23  and  C_24
REMARK                            x       y       z     vdW  Elec       q    Type
REMARK                         _______ _______ _______ _____ _____    ______ ____
ROOT
ATOM      1  N   UNL     1       1.069   9.488  19.438  0.00  0.00    +0.000 N 
ATOM      2  C   UNL     1       1.816   8.718  18.561  0.00  0.00    +0.000 C 
ATOM      3  O   UNL     1       2.168   9.039  17.429  0.00  0.00    +0.000 OA
ATOM      4  H   UNL     1       0.924   9.092  20.368  0.00  0.00    +0.000 HD
ENDROOT
BRANCH   1   9
ATOM      5  C   UNL     1       0.866  13.166  18.753  0.00  0.00    +0.000 A 
ATOM      6  C   UNL     1      -0.516  13.316  18.575  0.00  0.00    +0.000 A 
ATOM      7  C   UNL     1      -1.372  12.226  18.690  0.00  0.00    +0.000 A 
ATOM      8  C   UNL     1      -0.860  10.963  18.978  0.00  0.00    +0.000 A 
ATOM      9  C   UNL     1       0.513  10.760  19.153  0.00  0.00    +0.000 A 
ATOM     10  C   UNL     1       1.364  11.872  19.049  0.00  0.00    +0.000 A 
BRANCH   5  12
ATOM     11  C   UNL     1       3.266  13.951  18.260  0.00  0.00    +0.000 C 
ATOM     12  C   UNL     1       1.831  14.353  18.655  0.00  0.00    +0.000 C 
BRANCH  12  13
ATOM     13  C   UNL     1       1.824  15.162  19.974  0.00  0.00    +0.000 C 
BRANCH  13  14
ATOM     14  C   UNL     1       2.955  14.798  20.878  0.00  0.00    +0.000 A 
ATOM     15  N   UNL     1       3.046  13.710  21.618  0.00  0.00    +0.000 NA
ATOM     16  N   UNL     1       4.212  13.780  22.343  0.00  0.00    +0.000 NA
ATOM     17  C   UNL     1       4.812  14.902  22.025  0.00  0.00    +0.000 A 
ATOM     18  N   UNL     1       4.067  15.565  21.099  0.00  0.00    +0.000 N 
ATOM     19  C   UNL     1       4.399  16.827  20.495  0.00  0.00    +0.000 C 
ENDBRANCH  13  14
ENDBRANCH  12  13
ENDBRANCH   5  12
ENDBRANCH   1   9
BRANCH   2  20
ATOM     20  C   UNL     1       2.267   7.381  19.066  0.00  0.00    +0.000 A 
ATOM     21  C   UNL     1       3.227   6.699  18.320  0.00  0.00    +0.000 A 
ATOM     22  C   UNL     1       3.701   5.475  18.781  0.00  0.00    +0.000 A 
ATOM     23  C   UNL     1       3.178   4.975  19.977  0.00  0.00    +0.000 A 
ATOM     24  C   UNL     1       2.212   5.720  20.649  0.00  0.00    +0.000 A 
ATOM     25  N   UNL     1       1.742   6.920  20.229  0.00  0.00    +0.000 NA
BRANCH  22  26
ATOM     26  C   UNL     1       4.793   4.719  18.074  0.00  0.00    +0.000 C 
ATOM     27  O   UNL     1       5.574   4.035  18.725  0.00  0.00    +0.000 OA
ATOM     28  N   UNL     1       4.862   4.856  16.699  0.00  0.00    +0.000 N 
ATOM     29  H   UNL     1       4.062   5.226  16.209  0.00  0.00    +0.000 HD
BRANCH  28  30
ATOM     30  C   UNL     1       5.863   4.244  15.829  0.00  0.00    +0.000 C 
ATOM     31  C   UNL     1       5.482   4.119  14.360  0.00  0.00    +0.000 C 
ATOM     32  C   UNL     1       6.804   4.253  13.627  0.00  0.00    +0.000 C 
ATOM     33  N   UNL     1       7.638   5.144  14.440  0.00  0.00    +0.000 NA
ATOM     34  C   UNL     1       7.234   4.929  15.837  0.00  0.00    +0.000 C 
ATOM     35  H   UNL     1       7.391   6.109  14.202  0.00  0.00    +0.000 HD
ENDBRANCH  28  30
ENDBRANCH  22  26
ENDBRANCH   2  20
TORSDOF 7
ENDMDL
MODEL 8
REMARK VINA RESULT:      -8.0      2.114     10.053
REMARK  Name = 
REMARK  9 active torsions:
REMARK  status: ('A' for Active; 'I' for Inactive)
REMARK    1  A    between atoms: C_1  and  C_2
REMARK    2  A    between atoms: C_2  and  C_3
REMARK    3  A    between atoms: C_2  and  C_10
REMARK    4  A    between atoms: C_3  and  C_4
REMARK    5  A    between atoms: N_8  and  C_9
REMARK    6  A    between atoms: C_14  and  N_15
REMARK    7  A    between atoms: C_16  and  C_18
REMARK    8  A    between atoms: C_20  and  C_21
REMARK    9  A    between atoms: N_23  and  C_24
REMARK                            x       y       z     vdW  Elec       q    Type
REMARK                         _______ _______ _______ _____ _____    ______ ____
ROOT
ATOM      1  N   UNL     1       2.434   6.546  19.133  0.00  0.00    +0.000 N 
ATOM      2  C   UNL     1       2.085   7.797  18.650  0.00  0.00    +0.000 C 
ATOM      3  O   UNL     1       2.219   8.196  17.496  0.00  0.00    +0.000 OA
ATOM      4  H   UNL     1       2.189   6.359  20.106  0.00  0.00    +0.000 HD
ENDROOT
BRANCH   1   9
ATOM      5  C   UNL     1       4.722   4.904  16.662  0.00  0.00    +0.000 A 
ATOM      6  C   UNL     1       4.417   3.554  16.890  0.00  0.00    +0.000 A 
ATOM      7  C   UNL     1       3.463   3.189  17.834  0.00  0.00    +0.000 A 
ATOM      8  C   UNL     1       2.803   4.167  18.575  0.00  0.00    +0.000 A 
ATOM      9  C   UNL     1       3.081   5.526  18.392  0.00  0.00    +0.000 A 
ATOM     10  C   UNL     1       4.035   5.881  17.424  0.00  0.00    +0.000 A 
BRANCH   5  12
ATOM     11  C   UNL     1       5.451   4.803  14.197  0.00  0.00    +0.000 C 
ATOM     12  C   UNL     1       5.751   5.337  15.612  0.00  0.00    +0.000 C 
BRANCH  12  13
ATOM     13  C   UNL     1       7.178   4.942  16.062  0.00  0.00    +0.000 C 
BRANCH  13  14
ATOM     14  C   UNL     1       7.447   5.286  17.490  0.00  0.00    +0.000 A 
ATOM     15  N   UNL     1       7.531   4.438  18.496  0.00  0.00    +0.000 NA
ATOM     16  N   UNL     1       7.735   5.158  19.649  0.00  0.00    +0.000 NA
ATOM     17  C   UNL     1       7.781   6.427  19.324  0.00  0.00    +0.000 A 
ATOM     18  N   UNL     1       7.620   6.554  17.977  0.00  0.00    +0.000 N 
ATOM     19  C   UNL     1       7.623   7.787  17.239  0.00  0.00    +0.000 C 
ENDBRANCH  13  14
ENDBRANCH  12  13
ENDBRANCH   5  12
ENDBRANCH   1   9
BRANCH   2  20
ATOM     20  C   UNL     1       1.445   8.735  19.630  0.00  0.00    +0.000 A 
ATOM     21  C   UNL     1       0.600   9.719  19.123  0.00  0.00    +0.000 A 
ATOM     22  C   UNL     1      -0.045  10.581  20.006  0.00  0.00    +0.000 A 
ATOM     23  C   UNL     1       0.198  10.423  21.373  0.00  0.00    +0.000 A 
ATOM     24  C   UNL     1       1.069   9.419  21.788  0.00  0.00    +0.000 A 
ATOM     25  N   UNL     1       1.700   8.560  20.950  0.00  0.00    +0.000 NA
BRANCH  22  26
ATOM     26  C   UNL     1      -1.034  11.615  19.540  0.00  0.00    +0.000 C 
ATOM     27  O   UNL     1      -0.809  12.802  19.746  0.00  0.00    +0.000 OA
ATOM     28  N   UNL     1      -2.172  11.153  18.905  0.00  0.00    +0.000 N 
ATOM     29  H   UNL     1      -2.181  10.206  18.556  0.00  0.00    +0.000 HD
BRANCH  28  30
ATOM     30  C   UNL     1      -3.271  11.981  18.413  0.00  0.00    +0.000 C 
ATOM     31  C   UNL     1      -4.009  11.449  17.192  0.00  0.00    +0.000 C 
ATOM     32  C   UNL     1      -5.431  11.945  17.380  0.00  0.00    +0.000 C 
ATOM     33  N   UNL     1      -5.662  11.995  18.827  0.00  0.00    +0.000 NA
ATOM     34  C   UNL     1      -4.361  12.290  19.444  0.00  0.00    +0.000 C 
ATOM     35  H   UNL     1      -5.933  11.056  19.134  0.00  0.00    +0.000 HD
ENDBRANCH  28  30
ENDBRANCH  22  26
ENDBRANCH   2  20
TORSDOF 7
ENDMDL
MODEL 9
REMARK VINA RESULT:      -8.0      2.685     10.382
REMARK  Name = 
REMARK  9 active torsions:
REMARK  status: ('A' for Active; 'I' for Inactive)
REMARK    1  A    between atoms: C_1  and  C_2
REMARK    2  A    between atoms: C_2  and  C_3
REMARK    3  A    between atoms: C_2  and  C_10
REMARK    4  A    between atoms: C_3  and  C_4
REMARK    5  A    between atoms: N_8  and  C_9
REMARK    6  A    between atoms: C_14  and  N_15
REMARK    7  A    between atoms: C_16  and  C_18
REMARK    8  A    between atoms: C_20  and  C_21
REMARK    9  A    between atoms: N_23  and  C_24
REMARK                            x       y       z     vdW  Elec       q    Type
REMARK                         _______ _______ _______ _____ _____    ______ ____
ROOT
ATOM      1  N   UNL     1       1.888   8.361  18.369  0.00  0.00    +0.000 N 
ATOM      2  C   UNL     1       1.345   9.135  19.383  0.00  0.00    +0.000 C 
ATOM      3  O   UNL     1       1.461   8.940  20.590  0.00  0.00    +0.000 OA
ATOM      4  H   UNL     1       1.749   8.708  17.419  0.00  0.00    +0.000 HD
ENDROOT
BRANCH   1   9
ATOM      5  C   UNL     1       4.269   5.552  17.676  0.00  0.00    +0.000 A 
ATOM      6  C   UNL     1       4.108   4.788  18.840  0.00  0.00    +0.000 A 
ATOM      7  C   UNL     1       3.220   5.184  19.834  0.00  0.00    +0.000 A 
ATOM      8  C   UNL     1       2.482   6.356  19.687  0.00  0.00    +0.000 A 
ATOM      9  C   UNL     1       2.617   7.158  18.549  0.00  0.00    +0.000 A 
ATOM     10  C   UNL     1       3.505   6.739  17.545  0.00  0.00    +0.000 A 
BRANCH   5  12
ATOM     11  C   UNL     1       4.793   3.835  15.833  0.00  0.00    +0.000 C 
ATOM     12  C   UNL     1       5.223   5.129  16.553  0.00  0.00    +0.000 C 
BRANCH  12  13
ATOM     13  C   UNL     1       6.669   5.010  17.092  0.00  0.00    +0.000 C 
BRANCH  13  14
ATOM     14  C   UNL     1       7.246   6.328  17.489  0.00  0.00    +0.000 A 
ATOM     15  N   UNL     1       7.254   7.429  16.764  0.00  0.00    +0.000 NA
ATOM     16  N   UNL     1       7.926   8.401  17.465  0.00  0.00    +0.000 NA
ATOM     17  C   UNL     1       8.306   7.879  18.606  0.00  0.00    +0.000 A 
ATOM     18  N   UNL     1       7.888   6.584  18.671  0.00  0.00    +0.000 N 
ATOM     19  C   UNL     1       8.102   5.682  19.770  0.00  0.00    +0.000 C 
ENDBRANCH  13  14
ENDBRANCH  12  13
ENDBRANCH   5  12
ENDBRANCH   1   9
BRANCH   2  20
ATOM     20  C   UNL     1       0.575  10.348  18.955  0.00  0.00    +0.000 A 
ATOM     21  C   UNL     1      -0.688  10.149  18.403  0.00  0.00    +0.000 A 
ATOM     22  C   UNL     1      -1.450  11.254  18.035  0.00  0.00    +0.000 A 
ATOM     23  C   UNL     1      -0.901  12.524  18.227  0.00  0.00    +0.000 A 
ATOM     24  C   UNL     1       0.376  12.627  18.773  0.00  0.00    +0.000 A 
ATOM     25  N   UNL     1       1.133  11.569  19.152  0.00  0.00    +0.000 NA
BRANCH  22  26
ATOM     26  C   UNL     1      -2.854  11.122  17.508  0.00  0.00    +0.000 C 
ATOM     27  O   UNL     1      -3.033  10.766  16.350  0.00  0.00    +0.000 OA
ATOM     28  N   UNL     1      -3.882  11.432  18.380  0.00  0.00    +0.000 N 
ATOM     29  H   UNL     1      -3.682  11.480  19.367  0.00  0.00    +0.000 HD
BRANCH  28  30
ATOM     30  C   UNL     1      -5.308  11.410  18.061  0.00  0.00    +0.000 C 
ATOM     31  C   UNL     1      -6.256  11.379  19.252  0.00  0.00    +0.000 C 
ATOM     32  C   UNL     1      -7.478  12.136  18.765  0.00  0.00    +0.000 C 
ATOM     33  N   UNL     1      -6.989  13.143  17.817  0.00  0.00    +0.000 NA
ATOM     34  C   UNL     1      -5.793  12.568  17.183  0.00  0.00    +0.000 C 
ATOM     35  H   UNL     1      -6.680  13.957  18.356  0.00  0.00    +0.000 HD
ENDBRANCH  28  30
ENDBRANCH  22  26
ENDBRANCH   2  20
TORSDOF 7
ENDMDL
