MODEL 1
REMARK VINA RESULT:     -10.7      0.000      0.000
REMARK  Name = 
REMARK  5 active torsions:
REMARK  status: ('A' for Active; 'I' for Inactive)
REMARK    1  A    between atoms: C_1  and  N_2
REMARK    2  A    between atoms: C_6  and  C_7
REMARK    3  A    between atoms: C_7  and  C_8
REMARK    4  A    between atoms: C_8  and  C_9
REMARK    5  A    between atoms: C_13  and  N_14
REMARK                            x       y       z     vdW  Elec       q    Type
REMARK                         _______ _______ _______ _____ _____    ______ ____
ROOT
ATOM      1  N   UNL     1       2.092   7.302  18.850  0.00  0.00    +0.000 N 
ATOM      2  C   UNL     1       2.027   8.539  18.261  0.00  0.00    +0.000 C 
ATOM      3  O   UNL     1       2.379   8.797  17.111  0.00  0.00    +0.000 OA
ATOM      4  N   UNL     1       1.507   9.525  19.071  0.00  0.00    +0.000 N 
ATOM      5  C   UNL     1       1.373  10.901  18.612  0.00  0.00    +0.000 C 
ATOM      6  C   UNL     1       0.738  11.717  19.774  0.00  0.00    +0.000 C 
ATOM      7  C   UNL     1      -0.565  12.394  19.316  0.00  0.00    +0.000 C 
ATOM      8  C   UNL     1      -0.283  13.532  18.335  0.00  0.00    +0.000 C 
ATOM      9  N   UNL     1       0.636  14.519  18.904  0.00  0.00    +0.000 NA
ATOM     10  C   UNL     1       1.910  13.917  19.296  0.00  0.00    +0.000 C 
ATOM     11  C   UNL     1       1.715  12.783  20.305  0.00  0.00    +0.000 C 
ATOM     12  C   UNL     1       0.491  10.626  20.791  0.00  0.00    +0.000 A 
ATOM     13  C   UNL     1      -0.125  10.686  22.030  0.00  0.00    +0.000 A 
ATOM     14  C   UNL     1      -0.237   9.512  22.767  0.00  0.00    +0.000 A 
ATOM     15  C   UNL     1       0.276   8.327  22.236  0.00  0.00    +0.000 A 
ATOM     16  N   UNL     1       0.879   8.244  21.031  0.00  0.00    +0.000 NA
ATOM     17  C   UNL     1       0.962   9.399  20.346  0.00  0.00    +0.000 A 
ATOM     18  H   UNL     1       1.716   7.276  19.794  0.00  0.00    +0.000 HD
ATOM     19  H   UNL     1       0.204  14.957  19.715  0.00  0.00    +0.000 HD
ENDROOT
BRANCH   1  24
ATOM     20  C   UNL     1       4.502   4.932  17.341  0.00  0.00    +0.000 A 
ATOM     21  C   UNL     1       3.684   3.797  17.212  0.00  0.00    +0.000 A 
ATOM     22  C   UNL     1       2.345   3.809  17.604  0.00  0.00    +0.000 A 
ATOM     23  C   UNL     1       1.783   4.960  18.148  0.00  0.00    +0.000 A 
ATOM     24  C   UNL     1       2.561   6.098  18.314  0.00  0.00    +0.000 A 
ATOM     25  C   UNL     1       3.902   6.074  17.916  0.00  0.00    +0.000 A 
BRANCH  20  26
ATOM     26  C   UNL     1       6.029   4.961  16.851  0.00  0.00    +0.000 C 
ATOM     27  C   UNL     1       7.088   4.750  17.977  0.00  0.00    +0.000 C 
ATOM     28  O   UNL     1       7.648   6.060  17.787  0.00  0.00    +0.000 OA
ATOM     29  C   UNL     1       6.725   6.343  16.714  0.00  0.00    +0.000 C 
BRANCH  26  30
ATOM     30  C   UNL     1       6.241   3.994  15.671  0.00  0.00    +0.000 C 
BRANCH  30  36
ATOM     31  C   UNL     1       5.696   3.375  12.581  0.00  0.00    +0.000 C 
ATOM     32  N   UNL     1       6.649   4.291  13.148  0.00  0.00    +0.000 N 
ATOM     33  C   UNL     1       7.544   5.021  12.424  0.00  0.00    +0.000 A 
ATOM     34  N   UNL     1       8.274   5.751  13.231  0.00  0.00    +0.000 NA
ATOM     35  N   UNL     1       7.857   5.491  14.511  0.00  0.00    +0.000 NA
ATOM     36  C   UNL     1       6.884   4.602  14.467  0.00  0.00    +0.000 A 
ENDBRANCH  30  36
ENDBRANCH  26  30
ENDBRANCH  20  26
ENDBRANCH   1  24
TORSDOF 4
ENDMDL
MODEL 2
REMARK VINA RESULT:     -10.4      1.401      1.684
REMARK  Name = 
REMARK  5 active torsions:
REMARK  status: ('A' for Active; 'I' for Inactive)
REMARK    1  A    between atoms: C_1  and  N_2
REMARK    2  A    between atoms: C_6  and  C_7
REMARK    3  A    between atoms: C_7  and  C_8
REMARK    4  A    between atoms: C_8  and  C_9
REMARK    5  A    between atoms: C_13  and  N_14
REMARK                            x       y       z     vdW  Elec       q    Type
REMARK                         _______ _______ _______ _____ _____    ______ ____
ROOT
ATOM      1  N   UNL     1       2.501   7.188  19.841  0.00  0.00    +0.000 N 
ATOM      2  C   UNL     1       2.042   8.076  18.902  0.00  0.00    +0.000 C 
ATOM      3  O   UNL     1       2.266   8.011  17.694  0.00  0.00    +0.000 OA
ATOM      4  N   UNL     1       1.265   9.092  19.415  0.00  0.00    +0.000 N 
ATOM      5  C   UNL     1       0.700  10.129  18.562  0.00  0.00    +0.000 C 
ATOM      6  C   UNL     1      -0.124  11.081  19.475  0.00  0.00    +0.000 C 
ATOM      7  C   UNL     1      -1.584  11.164  18.999  0.00  0.00    +0.000 C 
ATOM      8  C   UNL     1      -1.693  11.925  17.678  0.00  0.00    +0.000 C 
ATOM      9  N   UNL     1      -1.110  13.263  17.777  0.00  0.00    +0.000 NA
ATOM     10  C   UNL     1       0.298  13.217  18.172  0.00  0.00    +0.000 C 
ATOM     11  C   UNL     1       0.490  12.493  19.507  0.00  0.00    +0.000 C 
ATOM     12  C   UNL     1       0.005  10.383  20.810  0.00  0.00    +0.000 A 
ATOM     13  C   UNL     1      -0.566  10.689  22.034  0.00  0.00    +0.000 A 
ATOM     14  C   UNL     1      -0.290   9.859  23.116  0.00  0.00    +0.000 A 
ATOM     15  C   UNL     1       0.549   8.759  22.929  0.00  0.00    +0.000 A 
ATOM     16  N   UNL     1       1.116   8.440  21.746  0.00  0.00    +0.000 NA
ATOM     17  C   UNL     1       0.820   9.264  20.723  0.00  0.00    +0.000 A 
ATOM     18  H   UNL     1       2.178   7.384  20.784  0.00  0.00    +0.000 HD
ATOM     19  H   UNL     1      -1.634  13.813  18.456  0.00  0.00    +0.000 HD
ENDROOT
BRANCH   1  24
ATOM     20  C   UNL     1       5.501   5.229  18.909  0.00  0.00    +0.000 A 
ATOM     21  C   UNL     1       5.056   3.934  19.221  0.00  0.00    +0.000 A 
ATOM     22  C   UNL     1       3.775   3.698  19.722  0.00  0.00    +0.000 A 
ATOM     23  C   UNL     1       2.899   4.758  19.935  0.00  0.00    +0.000 A 
ATOM     24  C   UNL     1       3.305   6.057  19.661  0.00  0.00    +0.000 A 
ATOM     25  C   UNL     1       4.591   6.280  19.159  0.00  0.00    +0.000 A 
BRANCH  20  26
ATOM     26  C   UNL     1       6.949   5.523  18.283  0.00  0.00    +0.000 C 
ATOM     27  C   UNL     1       8.066   5.839  19.326  0.00  0.00    +0.000 C 
ATOM     28  O   UNL     1       8.257   7.169  18.814  0.00  0.00    +0.000 OA
ATOM     29  C   UNL     1       7.254   6.965  17.797  0.00  0.00    +0.000 C 
BRANCH  26  30
ATOM     30  C   UNL     1       7.363   4.397  17.317  0.00  0.00    +0.000 C 
BRANCH  30  36
ATOM     31  C   UNL     1       4.618   3.560  15.906  0.00  0.00    +0.000 C 
ATOM     32  N   UNL     1       5.763   4.198  15.314  0.00  0.00    +0.000 N 
ATOM     33  C   UNL     1       5.878   4.500  13.989  0.00  0.00    +0.000 A 
ATOM     34  N   UNL     1       7.038   5.066  13.765  0.00  0.00    +0.000 NA
ATOM     35  N   UNL     1       7.703   5.132  14.963  0.00  0.00    +0.000 NA
ATOM     36  C   UNL     1       6.941   4.598  15.899  0.00  0.00    +0.000 A 
ENDBRANCH  30  36
ENDBRANCH  26  30
ENDBRANCH  20  26
ENDBRANCH   1  24
TORSDOF 4
ENDMDL
MODEL 3
REMARK VINA RESULT:     -10.0      2.947      9.117
REMARK  Name = 
REMARK  5 active torsions:
REMARK  status: ('A' for Active; 'I' for Inactive)
REMARK    1  A    between atoms: C_1  and  N_2
REMARK    2  A    between atoms: C_6  and  C_7
REMARK    3  A    between atoms: C_7  and  C_8
REMARK    4  A    between atoms: C_8  and  C_9
REMARK    5  A    between atoms: C_13  and  N_14
REMARK                            x       y       z     vdW  Elec       q    Type
REMARK                         _______ _______ _______ _____ _____    ______ ____
ROOT
ATOM      1  N   UNL     1       1.658   7.435  20.456  0.00  0.00    +0.000 N 
ATOM      2  C   UNL     1       2.563   7.396  19.427  0.00  0.00    +0.000 C 
ATOM      3  O   UNL     1       2.890   8.357  18.732  0.00  0.00    +0.000 OA
ATOM      4  N   UNL     1       3.123   6.155  19.211  0.00  0.00    +0.000 N 
ATOM      5  C   UNL     1       4.099   5.929  18.153  0.00  0.00    +0.000 C 
ATOM      6  C   UNL     1       4.518   4.433  18.224  0.00  0.00    +0.000 C 
ATOM      7  C   UNL     1       6.040   4.302  18.409  0.00  0.00    +0.000 C 
ATOM      8  C   UNL     1       6.790   4.715  17.142  0.00  0.00    +0.000 C 
ATOM      9  N   UNL     1       6.347   3.945  15.979  0.00  0.00    +0.000 NA
ATOM     10  C   UNL     1       4.911   4.095  15.739  0.00  0.00    +0.000 C 
ATOM     11  C   UNL     1       4.086   3.672  16.956  0.00  0.00    +0.000 C 
ATOM     12  C   UNL     1       3.750   3.975  19.443  0.00  0.00    +0.000 A 
ATOM     13  C   UNL     1       3.748   2.748  20.085  0.00  0.00    +0.000 A 
ATOM     14  C   UNL     1       2.949   2.596  21.213  0.00  0.00    +0.000 A 
ATOM     15  C   UNL     1       2.182   3.678  21.650  0.00  0.00    +0.000 A 
ATOM     16  N   UNL     1       2.168   4.883  21.041  0.00  0.00    +0.000 NA
ATOM     17  C   UNL     1       2.959   4.992  19.957  0.00  0.00    +0.000 A 
ATOM     18  H   UNL     1       1.548   6.548  20.940  0.00  0.00    +0.000 HD
ATOM     19  H   UNL     1       6.566   2.961  16.119  0.00  0.00    +0.000 HD
ENDROOT
BRANCH   1  24
ATOM     20  C   UNL     1      -0.663  10.317  20.334  0.00  0.00    +0.000 A 
ATOM     21  C   UNL     1      -0.628  10.717  21.680  0.00  0.00    +0.000 A 
ATOM     22  C   UNL     1       0.162  10.058  22.623  0.00  0.00    +0.000 A 
ATOM     23  C   UNL     1       0.938   8.966  22.247  0.00  0.00    +0.000 A 
ATOM     24  C   UNL     1       0.916   8.521  20.932  0.00  0.00    +0.000 A 
ATOM     25  C   UNL     1       0.121   9.191  19.997  0.00  0.00    +0.000 A 
BRANCH  20  26
ATOM     26  C   UNL     1      -1.521  11.088  19.221  0.00  0.00    +0.000 C 
ATOM     27  C   UNL     1      -0.679  11.838  18.142  0.00  0.00    +0.000 C 
ATOM     28  O   UNL     1      -1.192  13.122  18.540  0.00  0.00    +0.000 OA
ATOM     29  C   UNL     1      -2.027  12.518  19.552  0.00  0.00    +0.000 C 
BRANCH  26  30
ATOM     30  C   UNL     1      -2.564  10.148  18.587  0.00  0.00    +0.000 C 
BRANCH  30  36
ATOM     31  C   UNL     1      -4.914  11.851  17.244  0.00  0.00    +0.000 C 
ATOM     32  N   UNL     1      -3.872  11.105  16.590  0.00  0.00    +0.000 N 
ATOM     33  C   UNL     1      -3.761  10.956  15.239  0.00  0.00    +0.000 A 
ATOM     34  N   UNL     1      -2.715  10.217  14.962  0.00  0.00    +0.000 NA
ATOM     35  N   UNL     1      -2.130   9.867  16.152  0.00  0.00    +0.000 NA
ATOM     36  C   UNL     1      -2.832  10.392  17.138  0.00  0.00    +0.000 A 
ENDBRANCH  30  36
ENDBRANCH  26  30
ENDBRANCH  20  26
ENDBRANCH   1  24
TORSDOF 4
ENDMDL
MODEL 4
REMARK VINA RESULT:     -10.0      0.713      1.203
REMARK  Name = 
REMARK  5 active torsions:
REMARK  status: ('A' for Active; 'I' for Inactive)
REMARK    1  A    between atoms: C_1  and  N_2
REMARK    2  A    between atoms: C_6  and  C_7
REMARK    3  A    between atoms: C_7  and  C_8
REMARK    4  A    between atoms: C_8  and  C_9
REMARK    5  A    between atoms: C_13  and  N_14
REMARK                            x       y       z     vdW  Elec       q    Type
REMARK                         _______ _______ _______ _____ _____    ______ ____
ROOT
ATOM      1  N   UNL     1       2.101   7.487  18.852  0.00  0.00    +0.000 N 
ATOM      2  C   UNL     1       2.010   8.735  18.291  0.00  0.00    +0.000 C 
ATOM      3  O   UNL     1       2.369   9.029  17.152  0.00  0.00    +0.000 OA
ATOM      4  N   UNL     1       1.452   9.688  19.116  0.00  0.00    +0.000 N 
ATOM      5  C   UNL     1       1.285  11.070  18.686  0.00  0.00    +0.000 C 
ATOM      6  C   UNL     1       0.613  11.840  19.858  0.00  0.00    +0.000 C 
ATOM      7  C   UNL     1      -0.702  12.492  19.399  0.00  0.00    +0.000 C 
ATOM      8  C   UNL     1      -0.439  13.659  18.448  0.00  0.00    +0.000 C 
ATOM      9  N   UNL     1       0.444  14.658  19.051  0.00  0.00    +0.000 NA
ATOM     10  C   UNL     1       1.729  14.082  19.447  0.00  0.00    +0.000 C 
ATOM     11  C   UNL     1       1.553  12.920  20.427  0.00  0.00    +0.000 C 
ATOM     12  C   UNL     1       0.384  10.719  20.846  0.00  0.00    +0.000 A 
ATOM     13  C   UNL     1      -0.250  10.733  22.078  0.00  0.00    +0.000 A 
ATOM     14  C   UNL     1      -0.338   9.540  22.787  0.00  0.00    +0.000 A 
ATOM     15  C   UNL     1       0.214   8.382  22.236  0.00  0.00    +0.000 A 
ATOM     16  N   UNL     1       0.835   8.344  21.038  0.00  0.00    +0.000 NA
ATOM     17  C   UNL     1       0.895   9.517  20.380  0.00  0.00    +0.000 A 
ATOM     18  H   UNL     1       1.715   7.429  19.790  0.00  0.00    +0.000 HD
ATOM     19  H   UNL     1      -0.010  15.065  19.866  0.00  0.00    +0.000 HD
ENDROOT
BRANCH   1  24
ATOM     20  C   UNL     1       4.533   5.273  17.152  0.00  0.00    +0.000 A 
ATOM     21  C   UNL     1       3.801   4.074  17.131  0.00  0.00    +0.000 A 
ATOM     22  C   UNL     1       2.512   3.991  17.657  0.00  0.00    +0.000 A 
ATOM     23  C   UNL     1       1.915   5.109  18.232  0.00  0.00    +0.000 A 
ATOM     24  C   UNL     1       2.611   6.309  18.295  0.00  0.00    +0.000 A 
ATOM     25  C   UNL     1       3.903   6.379  17.764  0.00  0.00    +0.000 A 
BRANCH  20  26
ATOM     26  C   UNL     1       5.996   5.409  16.509  0.00  0.00    +0.000 C 
ATOM     27  C   UNL     1       6.886   4.132  16.620  0.00  0.00    +0.000 C 
ATOM     28  O   UNL     1       7.860   4.803  17.439  0.00  0.00    +0.000 OA
ATOM     29  C   UNL     1       7.119   6.040  17.376  0.00  0.00    +0.000 C 
BRANCH  26  30
ATOM     30  C   UNL     1       5.908   5.926  15.061  0.00  0.00    +0.000 C 
BRANCH  30  36
ATOM     31  C   UNL     1       8.325   5.621  12.987  0.00  0.00    +0.000 C 
ATOM     32  N   UNL     1       7.149   4.801  13.109  0.00  0.00    +0.000 N 
ATOM     33  C   UNL     1       6.845   3.759  12.282  0.00  0.00    +0.000 A 
ATOM     34  N   UNL     1       5.709   3.221  12.650  0.00  0.00    +0.000 NA
ATOM     35  N   UNL     1       5.251   3.925  13.734  0.00  0.00    +0.000 NA
ATOM     36  C   UNL     1       6.112   4.887  14.008  0.00  0.00    +0.000 A 
ENDBRANCH  30  36
ENDBRANCH  26  30
ENDBRANCH  20  26
ENDBRANCH   1  24
TORSDOF 4
ENDMDL
MODEL 5
REMARK VINA RESULT:      -9.9      3.379      9.911
REMARK  Name = 
REMARK  5 active torsions:
REMARK  status: ('A' for Active; 'I' for Inactive)
REMARK    1  A    between atoms: C_1  and  N_2
REMARK    2  A    between atoms: C_6  and  C_7
REMARK    3  A    between atoms: C_7  and  C_8
REMARK    4  A    between atoms: C_8  and  C_9
REMARK    5  A    between atoms: C_13  and  N_14
REMARK                            x       y       z     vdW  Elec       q    Type
REMARK                         _______ _______ _______ _____ _____    ______ ____
ROOT
ATOM      1  N   UNL     1       1.499   8.519  18.609  0.00  0.00    +0.000 N 
ATOM      2  C   UNL     1       2.621   8.230  17.877  0.00  0.00    +0.000 C 
ATOM      3  O   UNL     1       3.144   8.980  17.053  0.00  0.00    +0.000 OA
ATOM      4  N   UNL     1       3.167   6.992  18.139  0.00  0.00    +0.000 N 
ATOM      5  C   UNL     1       4.357   6.518  17.446  0.00  0.00    +0.000 C 
ATOM      6  C   UNL     1       4.688   5.106  18.008  0.00  0.00    +0.000 C 
ATOM      7  C   UNL     1       6.114   5.068  18.583  0.00  0.00    +0.000 C 
ATOM      8  C   UNL     1       7.161   5.148  17.472  0.00  0.00    +0.000 C 
ATOM      9  N   UNL     1       6.979   4.086  16.483  0.00  0.00    +0.000 NA
ATOM     10  C   UNL     1       5.650   4.129  15.873  0.00  0.00    +0.000 C 
ATOM     11  C   UNL     1       4.541   4.024  16.922  0.00  0.00    +0.000 C 
ATOM     12  C   UNL     1       3.633   4.969  19.082  0.00  0.00    +0.000 A 
ATOM     13  C   UNL     1       3.428   3.958  20.006  0.00  0.00    +0.000 A 
ATOM     14  C   UNL     1       2.376   4.091  20.907  0.00  0.00    +0.000 A 
ATOM     15  C   UNL     1       1.571   5.230  20.844  0.00  0.00    +0.000 A 
ATOM     16  N   UNL     1       1.752   6.228  19.953  0.00  0.00    +0.000 NA
ATOM     17  C   UNL     1       2.783   6.065  19.103  0.00  0.00    +0.000 A 
ATOM     18  H   UNL     1       1.241   7.790  19.270  0.00  0.00    +0.000 HD
ATOM     19  H   UNL     1       7.119   3.180  16.927  0.00  0.00    +0.000 HD
ENDROOT
BRANCH   1  24
ATOM     20  C   UNL     1      -1.414  10.663  17.821  0.00  0.00    +0.000 A 
ATOM     21  C   UNL     1      -1.007  11.863  18.427  0.00  0.00    +0.000 A 
ATOM     22  C   UNL     1       0.221  11.978  19.079  0.00  0.00    +0.000 A 
ATOM     23  C   UNL     1       1.081  10.885  19.153  0.00  0.00    +0.000 A 
ATOM     24  C   UNL     1       0.709   9.673  18.588  0.00  0.00    +0.000 A 
ATOM     25  C   UNL     1      -0.525   9.572  17.936  0.00  0.00    +0.000 A 
BRANCH  20  26
ATOM     26  C   UNL     1      -2.797  10.520  17.021  0.00  0.00    +0.000 C 
ATOM     27  C   UNL     1      -2.770   9.506  15.835  0.00  0.00    +0.000 C 
ATOM     28  O   UNL     1      -3.029  10.535  14.864  0.00  0.00    +0.000 OA
ATOM     29  C   UNL     1      -3.096  11.545  15.894  0.00  0.00    +0.000 C 
BRANCH  26  30
ATOM     30  C   UNL     1      -3.961  10.244  17.990  0.00  0.00    +0.000 C 
BRANCH  30  36
ATOM     31  C   UNL     1      -3.973  12.647  20.101  0.00  0.00    +0.000 C 
ATOM     32  N   UNL     1      -4.936  12.365  19.070  0.00  0.00    +0.000 N 
ATOM     33  C   UNL     1      -6.082  13.077  18.868  0.00  0.00    +0.000 A 
ATOM     34  N   UNL     1      -6.746  12.567  17.861  0.00  0.00    +0.000 NA
ATOM     35  N   UNL     1      -6.030  11.494  17.395  0.00  0.00    +0.000 NA
ATOM     36  C   UNL     1      -4.942  11.362  18.130  0.00  0.00    +0.000 A 
ENDBRANCH  30  36
ENDBRANCH  26  30
ENDBRANCH  20  26
ENDBRANCH   1  24
TORSDOF 4
ENDMDL
MODEL 6
REMARK VINA RESULT:      -9.9      2.928      9.342
REMARK  Name = 
REMARK  5 active torsions:
REMARK  status: ('A' for Active; 'I' for Inactive)
REMARK    1  A    between atoms: C_1  and  N_2
REMARK    2  A    between atoms: C_6  and  C_7
REMARK    3  A    between atoms: C_7  and  C_8
REMARK    4  A    between atoms: C_8  and  C_9
REMARK    5  A    between atoms: C_13  and  N_14
REMARK                            x       y       z     vdW  Elec       q    Type
REMARK                         _______ _______ _______ _____ _____    ______ ____
ROOT
ATOM      1  N   UNL     1       1.616   7.475  20.455  0.00  0.00    +0.000 N 
ATOM      2  C   UNL     1       2.527   7.423  19.432  0.00  0.00    +0.000 C 
ATOM      3  O   UNL     1       2.868   8.378  18.736  0.00  0.00    +0.000 OA
ATOM      4  N   UNL     1       3.077   6.176  19.224  0.00  0.00    +0.000 N 
ATOM      5  C   UNL     1       4.056   5.936  18.173  0.00  0.00    +0.000 C 
ATOM      6  C   UNL     1       4.461   4.437  18.251  0.00  0.00    +0.000 C 
ATOM      7  C   UNL     1       5.980   4.291  18.446  0.00  0.00    +0.000 C 
ATOM      8  C   UNL     1       6.741   4.692  17.183  0.00  0.00    +0.000 C 
ATOM      9  N   UNL     1       6.299   3.923  16.020  0.00  0.00    +0.000 NA
ATOM     10  C   UNL     1       4.866   4.086  15.771  0.00  0.00    +0.000 C 
ATOM     11  C   UNL     1       4.029   3.676  16.984  0.00  0.00    +0.000 C 
ATOM     12  C   UNL     1       3.681   3.991  19.467  0.00  0.00    +0.000 A 
ATOM     13  C   UNL     1       3.662   2.766  20.113  0.00  0.00    +0.000 A 
ATOM     14  C   UNL     1       2.855   2.626  21.237  0.00  0.00    +0.000 A 
ATOM     15  C   UNL     1       2.096   3.717  21.666  0.00  0.00    +0.000 A 
ATOM     16  N   UNL     1       2.098   4.920  21.052  0.00  0.00    +0.000 NA
ATOM     17  C   UNL     1       2.897   5.017  19.973  0.00  0.00    +0.000 A 
ATOM     18  H   UNL     1       1.495   6.590  20.942  0.00  0.00    +0.000 HD
ATOM     19  H   UNL     1       6.507   2.937  16.165  0.00  0.00    +0.000 HD
ENDROOT
BRANCH   1  24
ATOM     20  C   UNL     1      -0.362  10.599  20.284  0.00  0.00    +0.000 A 
ATOM     21  C   UNL     1      -0.595  10.817  21.653  0.00  0.00    +0.000 A 
ATOM     22  C   UNL     1      -0.097   9.955  22.630  0.00  0.00    +0.000 A 
ATOM     23  C   UNL     1       0.647   8.837  22.266  0.00  0.00    +0.000 A 
ATOM     24  C   UNL     1       0.883   8.570  20.924  0.00  0.00    +0.000 A 
ATOM     25  C   UNL     1       0.378   9.442  19.954  0.00  0.00    +0.000 A 
BRANCH  20  26
ATOM     26  C   UNL     1      -0.880  11.601  19.145  0.00  0.00    +0.000 C 
ATOM     27  C   UNL     1       0.197  12.591  18.599  0.00  0.00    +0.000 C 
ATOM     28  O   UNL     1      -0.526  13.740  19.072  0.00  0.00    +0.000 OA
ATOM     29  C   UNL     1      -1.587  12.910  19.591  0.00  0.00    +0.000 C 
BRANCH  26  30
ATOM     30  C   UNL     1      -1.578  10.826  18.012  0.00  0.00    +0.000 C 
BRANCH  30  36
ATOM     31  C   UNL     1      -3.227  10.894  15.272  0.00  0.00    +0.000 C 
ATOM     32  N   UNL     1      -3.683  11.239  16.592  0.00  0.00    +0.000 N 
ATOM     33  C   UNL     1      -4.924  11.727  16.878  0.00  0.00    +0.000 A 
ATOM     34  N   UNL     1      -5.026  11.948  18.165  0.00  0.00    +0.000 NA
ATOM     35  N   UNL     1      -3.827  11.607  18.738  0.00  0.00    +0.000 NA
ATOM     36  C   UNL     1      -3.009  11.189  17.790  0.00  0.00    +0.000 A 
ENDBRANCH  30  36
ENDBRANCH  26  30
ENDBRANCH  20  26
ENDBRANCH   1  24
TORSDOF 4
ENDMDL
MODEL 7
REMARK VINA RESULT:      -9.8      2.204      9.361
REMARK  Name = 
REMARK  5 active torsions:
REMARK  status: ('A' for Active; 'I' for Inactive)
REMARK    1  A    between atoms: C_1  and  N_2
REMARK    2  A    between atoms: C_6  and  C_7
REMARK    3  A    between atoms: C_7  and  C_8
REMARK    4  A    between atoms: C_8  and  C_9
REMARK    5  A    between atoms: C_13  and  N_14
REMARK                            x       y       z     vdW  Elec       q    Type
REMARK                         _______ _______ _______ _____ _____    ______ ____
ROOT
ATOM      1  N   UNL     1       1.561   7.369  20.574  0.00  0.00    +0.000 N 
ATOM      2  C   UNL     1       2.465   7.351  19.544  0.00  0.00    +0.000 C 
ATOM      3  O   UNL     1       2.783   8.324  18.862  0.00  0.00    +0.000 OA
ATOM      4  N   UNL     1       3.037   6.119  19.312  0.00  0.00    +0.000 N 
ATOM      5  C   UNL     1       4.013   5.915  18.251  0.00  0.00    +0.000 C 
ATOM      6  C   UNL     1       4.447   4.422  18.302  0.00  0.00    +0.000 C 
ATOM      7  C   UNL     1       5.969   4.302  18.484  0.00  0.00    +0.000 C 
ATOM      8  C   UNL     1       6.715   4.738  17.223  0.00  0.00    +0.000 C 
ATOM      9  N   UNL     1       6.278   3.980  16.050  0.00  0.00    +0.000 NA
ATOM     10  C   UNL     1       4.841   4.120  15.813  0.00  0.00    +0.000 C 
ATOM     11  C   UNL     1       4.020   3.674  17.025  0.00  0.00    +0.000 C 
ATOM     12  C   UNL     1       3.684   3.941  19.515  0.00  0.00    +0.000 A 
ATOM     13  C   UNL     1       3.693   2.706  20.141  0.00  0.00    +0.000 A 
ATOM     14  C   UNL     1       2.896   2.532  21.268  0.00  0.00    +0.000 A 
ATOM     15  C   UNL     1       2.119   3.601  21.719  0.00  0.00    +0.000 A 
ATOM     16  N   UNL     1       2.095   4.814  21.126  0.00  0.00    +0.000 NA
ATOM     17  C   UNL     1       2.884   4.944  20.043  0.00  0.00    +0.000 A 
ATOM     18  H   UNL     1       1.459   6.475  21.047  0.00  0.00    +0.000 HD
ATOM     19  H   UNL     1       6.506   2.996  16.177  0.00  0.00    +0.000 HD
ENDROOT
BRANCH   1  24
ATOM     20  C   UNL     1      -0.354  10.536  20.485  0.00  0.00    +0.000 A 
ATOM     21  C   UNL     1      -0.686  10.660  21.845  0.00  0.00    +0.000 A 
ATOM     22  C   UNL     1      -0.275   9.721  22.791  0.00  0.00    +0.000 A 
ATOM     23  C   UNL     1       0.478   8.617  22.402  0.00  0.00    +0.000 A 
ATOM     24  C   UNL     1       0.810   8.442  21.066  0.00  0.00    +0.000 A 
ATOM     25  C   UNL     1       0.392   9.391  20.127  0.00  0.00    +0.000 A 
BRANCH  20  26
ATOM     26  C   UNL     1      -0.770  11.627  19.387  0.00  0.00    +0.000 C 
ATOM     27  C   UNL     1      -1.974  12.537  19.784  0.00  0.00    +0.000 C 
ATOM     28  O   UNL     1      -2.786  12.046  18.704  0.00  0.00    +0.000 OA
ATOM     29  C   UNL     1      -1.722  11.185  18.243  0.00  0.00    +0.000 C 
BRANCH  26  30
ATOM     30  C   UNL     1       0.455  12.451  18.946  0.00  0.00    +0.000 C 
BRANCH  30  36
ATOM     31  C   UNL     1       0.037  15.615  19.152  0.00  0.00    +0.000 C 
ATOM     32  N   UNL     1       0.806  14.763  20.018  0.00  0.00    +0.000 N 
ATOM     33  C   UNL     1       1.555  15.204  21.068  0.00  0.00    +0.000 A 
ATOM     34  N   UNL     1       2.139  14.187  21.652  0.00  0.00    +0.000 NA
ATOM     35  N   UNL     1       1.774  13.055  20.969  0.00  0.00    +0.000 NA
ATOM     36  C   UNL     1       0.978  13.399  19.975  0.00  0.00    +0.000 A 
ENDBRANCH  30  36
ENDBRANCH  26  30
ENDBRANCH  20  26
ENDBRANCH   1  24
TORSDOF 4
ENDMDL
MODEL 8
REMARK VINA RESULT:      -9.8      1.842      2.815
REMARK  Name = 
REMARK  5 active torsions:
REMARK  status: ('A' for Active; 'I' for Inactive)
REMARK    1  A    between atoms: C_1  and  N_2
REMARK    2  A    between atoms: C_6  and  C_7
REMARK    3  A    between atoms: C_7  and  C_8
REMARK    4  A    between atoms: C_8  and  C_9
REMARK    5  A    between atoms: C_13  and  N_14
REMARK                            x       y       z     vdW  Elec       q    Type
REMARK                         _______ _______ _______ _____ _____    ______ ____
ROOT
ATOM      1  N   UNL     1       2.069   7.194  18.828  0.00  0.00    +0.000 N 
ATOM      2  C   UNL     1       2.023   8.426  18.228  0.00  0.00    +0.000 C 
ATOM      3  O   UNL     1       2.386   8.669  17.078  0.00  0.00    +0.000 OA
ATOM      4  N   UNL     1       1.511   9.426  19.025  0.00  0.00    +0.000 N 
ATOM      5  C   UNL     1       1.397  10.799  18.552  0.00  0.00    +0.000 C 
ATOM      6  C   UNL     1       0.765  11.634  19.703  0.00  0.00    +0.000 C 
ATOM      7  C   UNL     1      -0.527  12.323  19.231  0.00  0.00    +0.000 C 
ATOM      8  C   UNL     1      -0.224  13.448  18.241  0.00  0.00    +0.000 C 
ATOM      9  N   UNL     1       0.703  14.428  18.806  0.00  0.00    +0.000 NA
ATOM     10  C   UNL     1       1.967  13.814  19.213  0.00  0.00    +0.000 C 
ATOM     11  C   UNL     1       1.751  12.692  20.231  0.00  0.00    +0.000 C 
ATOM     12  C   UNL     1       0.497  10.555  20.728  0.00  0.00    +0.000 A 
ATOM     13  C   UNL     1      -0.126  10.634  21.962  0.00  0.00    +0.000 A 
ATOM     14  C   UNL     1      -0.258   9.468  22.710  0.00  0.00    +0.000 A 
ATOM     15  C   UNL     1       0.243   8.272  22.193  0.00  0.00    +0.000 A 
ATOM     16  N   UNL     1       0.854   8.171  20.993  0.00  0.00    +0.000 NA
ATOM     17  C   UNL     1       0.956   9.319  20.297  0.00  0.00    +0.000 A 
ATOM     18  H   UNL     1       1.687   7.181  19.770  0.00  0.00    +0.000 HD
ATOM     19  H   UNL     1       0.272  14.880  19.611  0.00  0.00    +0.000 HD
ENDROOT
BRANCH   1  24
ATOM     20  C   UNL     1       4.251   4.887  16.926  0.00  0.00    +0.000 A 
ATOM     21  C   UNL     1       3.593   3.670  17.168  0.00  0.00    +0.000 A 
ATOM     22  C   UNL     1       2.432   3.603  17.939  0.00  0.00    +0.000 A 
ATOM     23  C   UNL     1       1.896   4.757  18.501  0.00  0.00    +0.000 A 
ATOM     24  C   UNL     1       2.526   5.979  18.307  0.00  0.00    +0.000 A 
ATOM     25  C   UNL     1       3.689   6.032  17.531  0.00  0.00    +0.000 A 
BRANCH  20  26
ATOM     26  C   UNL     1       5.557   4.999  16.001  0.00  0.00    +0.000 C 
ATOM     27  C   UNL     1       5.281   4.984  14.466  0.00  0.00    +0.000 C 
ATOM     28  O   UNL     1       6.010   3.759  14.280  0.00  0.00    +0.000 OA
ATOM     29  C   UNL     1       6.340   3.696  15.684  0.00  0.00    +0.000 C 
BRANCH  26  30
ATOM     30  C   UNL     1       6.420   6.203  16.421  0.00  0.00    +0.000 C 
BRANCH  30  36
ATOM     31  C   UNL     1       8.148   8.357  18.034  0.00  0.00    +0.000 C 
ATOM     32  N   UNL     1       7.884   6.988  18.385  0.00  0.00    +0.000 N 
ATOM     33  C   UNL     1       8.403   6.356  19.477  0.00  0.00    +0.000 A 
ATOM     34  N   UNL     1       7.979   5.117  19.513  0.00  0.00    +0.000 NA
ATOM     35  N   UNL     1       7.172   4.926  18.421  0.00  0.00    +0.000 NA
ATOM     36  C   UNL     1       7.121   6.049  17.731  0.00  0.00    +0.000 A 
ENDBRANCH  30  36
ENDBRANCH  26  30
ENDBRANCH  20  26
ENDBRANCH   1  24
TORSDOF 4
ENDMDL
MODEL 9
REMARK VINA RESULT:      -9.7      2.173      9.297
REMARK  Name = 
REMARK  5 active torsions:
REMARK  status: ('A' for Active; 'I' for Inactive)
REMARK    1  A    between atoms: C_1  and  N_2
REMARK    2  A    between atoms: C_6  and  C_7
REMARK    3  A    between atoms: C_7  and  C_8
REMARK    4  A    between atoms: C_8  and  C_9
REMARK    5  A    between atoms: C_13  and  N_14
REMARK                            x       y       z     vdW  Elec       q    Type
REMARK                         _______ _______ _______ _____ _____    ______ ____
ROOT
ATOM      1  N   UNL     1       1.067   8.711  18.713  0.00  0.00    +0.000 N 
ATOM      2  C   UNL     1       2.190   8.708  17.926  0.00  0.00    +0.000 C 
ATOM      3  O   UNL     1       2.525   9.613  17.164  0.00  0.00    +0.000 OA
ATOM      4  N   UNL     1       2.969   7.578  18.054  0.00  0.00    +0.000 N 
ATOM      5  C   UNL     1       4.195   7.403  17.287  0.00  0.00    +0.000 C 
ATOM      6  C   UNL     1       4.809   6.035  17.703  0.00  0.00    +0.000 C 
ATOM      7  C   UNL     1       6.241   6.219  18.232  0.00  0.00    +0.000 C 
ATOM      8  C   UNL     1       7.204   6.596  17.106  0.00  0.00    +0.000 C 
ATOM      9  N   UNL     1       7.180   5.610  16.025  0.00  0.00    +0.000 NA
ATOM     10  C   UNL     1       5.840   5.454  15.458  0.00  0.00    +0.000 C 
ATOM     11  C   UNL     1       4.819   5.046  16.522  0.00  0.00    +0.000 C 
ATOM     12  C   UNL     1       3.847   5.605  18.787  0.00  0.00    +0.000 A 
ATOM     13  C   UNL     1       3.876   4.495  19.615  0.00  0.00    +0.000 A 
ATOM     14  C   UNL     1       2.860   4.345  20.552  0.00  0.00    +0.000 A 
ATOM     15  C   UNL     1       1.853   5.311  20.620  0.00  0.00    +0.000 A 
ATOM     16  N   UNL     1       1.804   6.401  19.825  0.00  0.00    +0.000 NA
ATOM     17  C   UNL     1       2.809   6.513  18.935  0.00  0.00    +0.000 A 
ATOM     18  H   UNL     1       0.980   7.891  19.307  0.00  0.00    +0.000 HD
ATOM     19  H   UNL     1       7.506   4.712  16.376  0.00  0.00    +0.000 HD
ENDROOT
BRANCH   1  24
ATOM     20  C   UNL     1      -0.958  11.372  20.301  0.00  0.00    +0.000 A 
ATOM     21  C   UNL     1      -1.840  11.671  19.249  0.00  0.00    +0.000 A 
ATOM     22  C   UNL     1      -1.783  10.996  18.029  0.00  0.00    +0.000 A 
ATOM     23  C   UNL     1      -0.832  10.003  17.820  0.00  0.00    +0.000 A 
ATOM     24  C   UNL     1       0.075   9.691  18.824  0.00  0.00    +0.000 A 
ATOM     25  C   UNL     1       0.007  10.373  20.043  0.00  0.00    +0.000 A 
BRANCH  20  26
ATOM     26  C   UNL     1      -1.035  12.095  21.730  0.00  0.00    +0.000 C 
ATOM     27  C   UNL     1      -1.013  11.133  22.958  0.00  0.00    +0.000 C 
ATOM     28  O   UNL     1      -2.330  11.532  23.376  0.00  0.00    +0.000 OA
ATOM     29  C   UNL     1      -2.436  12.469  22.284  0.00  0.00    +0.000 C 
BRANCH  26  30
ATOM     30  C   UNL     1       0.036  13.197  21.842  0.00  0.00    +0.000 C 
BRANCH  30  36
ATOM     31  C   UNL     1       2.352  13.354  19.642  0.00  0.00    +0.000 C 
ATOM     32  N   UNL     1       1.166  14.161  19.742  0.00  0.00    +0.000 N 
ATOM     33  C   UNL     1       0.867  15.201  18.912  0.00  0.00    +0.000 A 
ATOM     34  N   UNL     1      -0.274  15.736  19.268  0.00  0.00    +0.000 NA
ATOM     35  N   UNL     1      -0.733  15.041  20.357  0.00  0.00    +0.000 NA
ATOM     36  C   UNL     1       0.139  14.096  20.654  0.00  0.00    +0.000 A 
ENDBRANCH  30  36
ENDBRANCH  26  30
ENDBRANCH  20  26
ENDBRANCH   1  24
TORSDOF 4
ENDMDL
