MODEL 1
REMARK VINA RESULT:      -9.6      0.000      0.000
REMARK  Name = 
REMARK  9 active torsions:
REMARK  status: ('A' for Active; 'I' for Inactive)
REMARK    1  A    between atoms: C_1  and  C_2
REMARK    2  A    between atoms: N_5  and  C_6
REMARK    3  A    between atoms: C_6  and  C_7
REMARK    4  A    between atoms: C_11  and  C_12
REMARK    5  A    between atoms: N_18  and  C_19
REMARK    6  A    between atoms: C_23  and  C_24
REMARK    7  A    between atoms: C_24  and  C_25
REMARK    8  A    between atoms: C_25  and  C_26
REMARK    9  A    between atoms: N_30  and  C_31
REMARK                            x       y       z     vdW  Elec       q    Type
REMARK                         _______ _______ _______ _____ _____    ______ ____
ROOT
ATOM      1  C   UNL     1       0.237  11.568  19.478  0.00  0.00    +0.000 A 
ATOM      2  C   UNL     1       1.018  10.741  18.666  0.00  0.00    +0.000 A 
ATOM      3  C   UNL     1       1.360   9.501  19.157  0.00  0.00    +0.000 A 
ATOM      4  C   UNL     1       0.973   9.046  20.413  0.00  0.00    +0.000 A 
ATOM      5  C   UNL     1       0.234   9.862  21.261  0.00  0.00    +0.000 A 
ATOM      6  C   UNL     1      -0.147  11.127  20.766  0.00  0.00    +0.000 A 
ATOM      7  C   UNL     1       1.461   7.645  20.596  0.00  0.00    +0.000 C 
ATOM      8  N   UNL     1       2.173   7.371  19.351  0.00  0.00    +0.000 N 
ATOM      9  C   UNL     1       2.141   8.462  18.486  0.00  0.00    +0.000 C 
ATOM     10  O   UNL     1       2.609   8.624  17.375  0.00  0.00    +0.000 OA
ENDROOT
BRANCH   8  11
ATOM     11  C   UNL     1       2.816   6.136  19.104  0.00  0.00    +0.000 A 
ATOM     12  C   UNL     1       2.623   5.030  19.934  0.00  0.00    +0.000 A 
ATOM     13  C   UNL     1       3.238   3.814  19.652  0.00  0.00    +0.000 A 
ATOM     14  C   UNL     1       4.094   3.703  18.559  0.00  0.00    +0.000 A 
ATOM     15  C   UNL     1       4.372   4.801  17.726  0.00  0.00    +0.000 A 
ATOM     16  C   UNL     1       3.678   5.996  18.008  0.00  0.00    +0.000 A 
BRANCH  15  17
ATOM     17  C   UNL     1       5.447   4.725  16.545  0.00  0.00    +0.000 C 
ATOM     18  C   UNL     1       5.206   3.731  15.370  0.00  0.00    +0.000 C 
ATOM     19  O   UNL     1       5.523   4.770  14.400  0.00  0.00    +0.000 OA
ATOM     20  C   UNL     1       5.255   5.773  15.410  0.00  0.00    +0.000 C 
BRANCH  17  21
ATOM     21  C   UNL     1       6.887   4.691  17.088  0.00  0.00    +0.000 C 
BRANCH  21  22
ATOM     22  C   UNL     1       7.414   6.044  17.442  0.00  0.00    +0.000 A 
ATOM     23  N   UNL     1       7.514   7.071  16.623  0.00  0.00    +0.000 NA
ATOM     24  N   UNL     1       8.013   8.143  17.331  0.00  0.00    +0.000 NA
ATOM     25  C   UNL     1       8.204   7.746  18.567  0.00  0.00    +0.000 A 
ATOM     26  N   UNL     1       7.869   6.431  18.677  0.00  0.00    +0.000 N 
ATOM     27  C   UNL     1       7.974   5.640  19.875  0.00  0.00    +0.000 C 
ENDBRANCH  21  22
ENDBRANCH  17  21
ENDBRANCH  15  17
ENDBRANCH   8  11
BRANCH   5  28
ATOM     28  C   UNL     1      -0.145   9.457  22.662  0.00  0.00    +0.000 C 
ATOM     29  F   UNL     1      -0.898   8.326  22.714  0.00  0.00    +0.000 F 
ATOM     30  F   UNL     1       0.945   9.214  23.439  0.00  0.00    +0.000 F 
ATOM     31  F   UNL     1      -0.865  10.416  23.307  0.00  0.00    +0.000 F 
ENDBRANCH   5  28
BRANCH   1  32
ATOM     32  C   UNL     1      -0.196  12.915  18.949  0.00  0.00    +0.000 C 
BRANCH  32  37
ATOM     33  C   UNL     1       1.293  17.242  20.638  0.00  0.00    +0.000 C 
ATOM     34  C   UNL     1       0.192  16.182  20.669  0.00  0.00    +0.000 C 
ATOM     35  C   UNL     1      -0.436  15.991  19.276  0.00  0.00    +0.000 C 
ATOM     36  C   UNL     1       0.469  15.200  18.319  0.00  0.00    +0.000 C 
ATOM     37  N   UNL     1       0.904  13.891  18.838  0.00  0.00    +0.000 NA
ATOM     38  C   UNL     1       1.549  14.075  20.166  0.00  0.00    +0.000 C 
ATOM     39  C   UNL     1       0.714  14.847  21.206  0.00  0.00    +0.000 C 
ATOM     40  F   UNL     1       1.445  15.044  22.332  0.00  0.00    +0.000 F 
ATOM     41  F   UNL     1      -0.346  14.082  21.590  0.00  0.00    +0.000 F 
ENDBRANCH  32  37
ENDBRANCH   1  32
TORSDOF 7
ENDMDL
MODEL 2
REMARK VINA RESULT:      -9.5      1.249      1.719
REMARK  Name = 
REMARK  9 active torsions:
REMARK  status: ('A' for Active; 'I' for Inactive)
REMARK    1  A    between atoms: C_1  and  C_2
REMARK    2  A    between atoms: N_5  and  C_6
REMARK    3  A    between atoms: C_6  and  C_7
REMARK    4  A    between atoms: C_11  and  C_12
REMARK    5  A    between atoms: N_18  and  C_19
REMARK    6  A    between atoms: C_23  and  C_24
REMARK    7  A    between atoms: C_24  and  C_25
REMARK    8  A    between atoms: C_25  and  C_26
REMARK    9  A    between atoms: N_30  and  C_31
REMARK                            x       y       z     vdW  Elec       q    Type
REMARK                         _______ _______ _______ _____ _____    ______ ____
ROOT
ATOM      1  C   UNL     1       0.289  11.643  19.444  0.00  0.00    +0.000 A 
ATOM      2  C   UNL     1       1.065  10.800  18.644  0.00  0.00    +0.000 A 
ATOM      3  C   UNL     1       1.382   9.557  19.143  0.00  0.00    +0.000 A 
ATOM      4  C   UNL     1       0.976   9.114  20.397  0.00  0.00    +0.000 A 
ATOM      5  C   UNL     1       0.241   9.944  21.234  0.00  0.00    +0.000 A 
ATOM      6  C   UNL     1      -0.115  11.214  20.729  0.00  0.00    +0.000 A 
ATOM      7  C   UNL     1       1.440   7.706  20.591  0.00  0.00    +0.000 C 
ATOM      8  N   UNL     1       2.160   7.416  19.354  0.00  0.00    +0.000 N 
ATOM      9  C   UNL     1       2.154   8.503  18.485  0.00  0.00    +0.000 C 
ATOM     10  O   UNL     1       2.636   8.654  17.377  0.00  0.00    +0.000 OA
ENDROOT
BRANCH   8  11
ATOM     11  C   UNL     1       2.786   6.170  19.119  0.00  0.00    +0.000 A 
ATOM     12  C   UNL     1       2.568   5.071  19.951  0.00  0.00    +0.000 A 
ATOM     13  C   UNL     1       3.167   3.844  19.680  0.00  0.00    +0.000 A 
ATOM     14  C   UNL     1       4.032   3.715  18.596  0.00  0.00    +0.000 A 
ATOM     15  C   UNL     1       4.336   4.805  17.762  0.00  0.00    +0.000 A 
ATOM     16  C   UNL     1       3.657   6.012  18.032  0.00  0.00    +0.000 A 
BRANCH  15  17
ATOM     17  C   UNL     1       5.421   4.707  16.593  0.00  0.00    +0.000 C 
ATOM     18  C   UNL     1       5.184   3.701  15.427  0.00  0.00    +0.000 C 
ATOM     19  O   UNL     1       5.518   4.726  14.448  0.00  0.00    +0.000 OA
ATOM     20  C   UNL     1       5.248   5.743  15.443  0.00  0.00    +0.000 C 
BRANCH  17  21
ATOM     21  C   UNL     1       6.856   4.669  17.149  0.00  0.00    +0.000 C 
BRANCH  21  22
ATOM     22  C   UNL     1       7.395   6.024  17.480  0.00  0.00    +0.000 A 
ATOM     23  N   UNL     1       7.475   7.046  16.651  0.00  0.00    +0.000 NA
ATOM     24  N   UNL     1       7.994   8.121  17.338  0.00  0.00    +0.000 NA
ATOM     25  C   UNL     1       8.217   7.733  18.571  0.00  0.00    +0.000 A 
ATOM     26  N   UNL     1       7.882   6.419  18.700  0.00  0.00    +0.000 N 
ATOM     27  C   UNL     1       8.018   5.637  19.900  0.00  0.00    +0.000 C 
ENDBRANCH  21  22
ENDBRANCH  17  21
ENDBRANCH  15  17
ENDBRANCH   8  11
BRANCH   5  28
ATOM     28  C   UNL     1      -0.159   9.552  22.633  0.00  0.00    +0.000 C 
ATOM     29  F   UNL     1      -0.865  10.513  23.284  0.00  0.00    +0.000 F 
ATOM     30  F   UNL     1      -0.942   8.439  22.649  0.00  0.00    +0.000 F 
ATOM     31  F   UNL     1       0.913   9.273  23.424  0.00  0.00    +0.000 F 
ENDBRANCH   5  28
BRANCH   1  32
ATOM     32  C   UNL     1      -0.119  12.994  18.905  0.00  0.00    +0.000 C 
BRANCH  32  37
ATOM     33  C   UNL     1       3.597  15.795  20.367  0.00  0.00    +0.000 C 
ATOM     34  C   UNL     1       3.165  14.625  19.483  0.00  0.00    +0.000 C 
ATOM     35  C   UNL     1       2.597  13.470  20.328  0.00  0.00    +0.000 C 
ATOM     36  C   UNL     1       1.181  13.756  20.851  0.00  0.00    +0.000 C 
ATOM     37  N   UNL     1       0.209  14.116  19.805  0.00  0.00    +0.000 NA
ATOM     38  C   UNL     1       0.735  15.260  19.012  0.00  0.00    +0.000 C 
ATOM     39  C   UNL     1       2.147  15.066  18.428  0.00  0.00    +0.000 C 
ATOM     40  F   UNL     1       2.560  16.208  17.823  0.00  0.00    +0.000 F 
ATOM     41  F   UNL     1       2.103  14.127  17.441  0.00  0.00    +0.000 F 
ENDBRANCH  32  37
ENDBRANCH   1  32
TORSDOF 7
ENDMDL
MODEL 3
REMARK VINA RESULT:      -9.4      1.290      1.828
REMARK  Name = 
REMARK  9 active torsions:
REMARK  status: ('A' for Active; 'I' for Inactive)
REMARK    1  A    between atoms: C_1  and  C_2
REMARK    2  A    between atoms: N_5  and  C_6
REMARK    3  A    between atoms: C_6  and  C_7
REMARK    4  A    between atoms: C_11  and  C_12
REMARK    5  A    between atoms: N_18  and  C_19
REMARK    6  A    between atoms: C_23  and  C_24
REMARK    7  A    between atoms: C_24  and  C_25
REMARK    8  A    between atoms: C_25  and  C_26
REMARK    9  A    between atoms: N_30  and  C_31
REMARK                            x       y       z     vdW  Elec       q    Type
REMARK                         _______ _______ _______ _____ _____    ______ ____
ROOT
ATOM      1  C   UNL     1       0.576  11.856  19.590  0.00  0.00    +0.000 A 
ATOM      2  C   UNL     1       1.234  11.044  18.661  0.00  0.00    +0.000 A 
ATOM      3  C   UNL     1       1.471   9.734  19.011  0.00  0.00    +0.000 A 
ATOM      4  C   UNL     1       1.097   9.194  20.237  0.00  0.00    +0.000 A 
ATOM      5  C   UNL     1       0.481   9.986  21.198  0.00  0.00    +0.000 A 
ATOM      6  C   UNL     1       0.207  11.326  20.847  0.00  0.00    +0.000 A 
ATOM      7  C   UNL     1       1.450   7.742  20.258  0.00  0.00    +0.000 C 
ATOM      8  N   UNL     1       2.075   7.529  18.955  0.00  0.00    +0.000 N 
ATOM      9  C   UNL     1       2.114   8.699  18.203  0.00  0.00    +0.000 C 
ATOM     10  O   UNL     1       2.548   8.928  17.088  0.00  0.00    +0.000 OA
ENDROOT
BRANCH   8  11
ATOM     11  C   UNL     1       2.581   6.269  18.557  0.00  0.00    +0.000 A 
ATOM     12  C   UNL     1       2.117   5.080  19.123  0.00  0.00    +0.000 A 
ATOM     13  C   UNL     1       2.603   3.850  18.690  0.00  0.00    +0.000 A 
ATOM     14  C   UNL     1       3.596   3.797  17.715  0.00  0.00    +0.000 A 
ATOM     15  C   UNL     1       4.143   4.965  17.156  0.00  0.00    +0.000 A 
ATOM     16  C   UNL     1       3.577   6.187  17.574  0.00  0.00    +0.000 A 
BRANCH  15  17
ATOM     17  C   UNL     1       5.369   4.926  16.131  0.00  0.00    +0.000 C 
ATOM     18  C   UNL     1       6.067   3.563  15.843  0.00  0.00    +0.000 C 
ATOM     19  O   UNL     1       6.025   3.822  14.410  0.00  0.00    +0.000 OA
ATOM     20  C   UNL     1       4.971   4.790  14.632  0.00  0.00    +0.000 C 
BRANCH  17  21
ATOM     21  C   UNL     1       6.359   6.078  16.383  0.00  0.00    +0.000 C 
BRANCH  21  22
ATOM     22  C   UNL     1       7.084   5.956  17.685  0.00  0.00    +0.000 A 
ATOM     23  N   UNL     1       7.148   4.873  18.434  0.00  0.00    +0.000 NA
ATOM     24  N   UNL     1       7.932   5.151  19.531  0.00  0.00    +0.000 NA
ATOM     25  C   UNL     1       8.333   6.396  19.427  0.00  0.00    +0.000 A 
ATOM     26  N   UNL     1       7.804   6.949  18.300  0.00  0.00    +0.000 N 
ATOM     27  C   UNL     1       7.995   8.308  17.868  0.00  0.00    +0.000 C 
ENDBRANCH  21  22
ENDBRANCH  17  21
ENDBRANCH  15  17
ENDBRANCH   8  11
BRANCH   5  28
ATOM     28  C   UNL     1       0.125   9.480  22.571  0.00  0.00    +0.000 C 
ATOM     29  F   UNL     1       1.199   9.050  23.285  0.00  0.00    +0.000 F 
ATOM     30  F   UNL     1      -0.469  10.438  23.334  0.00  0.00    +0.000 F 
ATOM     31  F   UNL     1      -0.743   8.432  22.534  0.00  0.00    +0.000 F 
ENDBRANCH   5  28
BRANCH   1  32
ATOM     32  C   UNL     1       0.256  13.285  19.216  0.00  0.00    +0.000 C 
BRANCH  32  37
ATOM     33  C   UNL     1       1.761  17.889  19.783  0.00  0.00    +0.000 C 
ATOM     34  C   UNL     1       1.376  16.797  18.785  0.00  0.00    +0.000 C 
ATOM     35  C   UNL     1       2.316  15.583  18.899  0.00  0.00    +0.000 C 
ATOM     36  C   UNL     1       2.028  14.723  20.139  0.00  0.00    +0.000 C 
ATOM     37  N   UNL     1       0.631  14.267  20.251  0.00  0.00    +0.000 NA
ATOM     38  C   UNL     1      -0.280  15.441  20.182  0.00  0.00    +0.000 C 
ATOM     39  C   UNL     1      -0.081  16.363  18.964  0.00  0.00    +0.000 C 
ATOM     40  F   UNL     1      -0.888  17.449  19.068  0.00  0.00    +0.000 F 
ATOM     41  F   UNL     1      -0.488  15.715  17.837  0.00  0.00    +0.000 F 
ENDBRANCH  32  37
ENDBRANCH   1  32
TORSDOF 7
ENDMDL
MODEL 4
REMARK VINA RESULT:      -9.3      3.745      9.523
REMARK  Name = 
REMARK  9 active torsions:
REMARK  status: ('A' for Active; 'I' for Inactive)
REMARK    1  A    between atoms: C_1  and  C_2
REMARK    2  A    between atoms: N_5  and  C_6
REMARK    3  A    between atoms: C_6  and  C_7
REMARK    4  A    between atoms: C_11  and  C_12
REMARK    5  A    between atoms: N_18  and  C_19
REMARK    6  A    between atoms: C_23  and  C_24
REMARK    7  A    between atoms: C_24  and  C_25
REMARK    8  A    between atoms: C_25  and  C_26
REMARK    9  A    between atoms: N_30  and  C_31
REMARK                            x       y       z     vdW  Elec       q    Type
REMARK                         _______ _______ _______ _____ _____    ______ ____
ROOT
ATOM      1  C   UNL     1       3.889   4.947  17.974  0.00  0.00    +0.000 A 
ATOM      2  C   UNL     1       3.448   6.273  17.978  0.00  0.00    +0.000 A 
ATOM      3  C   UNL     1       2.603   6.663  18.992  0.00  0.00    +0.000 A 
ATOM      4  C   UNL     1       2.169   5.803  19.995  0.00  0.00    +0.000 A 
ATOM      5  C   UNL     1       2.555   4.468  19.993  0.00  0.00    +0.000 A 
ATOM      6  C   UNL     1       3.441   4.055  18.975  0.00  0.00    +0.000 A 
ATOM      7  C   UNL     1       1.319   6.566  20.958  0.00  0.00    +0.000 C 
ATOM      8  N   UNL     1       1.295   7.912  20.392  0.00  0.00    +0.000 N 
ATOM      9  C   UNL     1       2.036   7.992  19.217  0.00  0.00    +0.000 C 
ATOM     10  O   UNL     1       2.256   8.923  18.463  0.00  0.00    +0.000 OA
ENDROOT
BRANCH   8  11
ATOM     11  C   UNL     1       0.577   8.972  20.994  0.00  0.00    +0.000 A 
ATOM     12  C   UNL     1       0.455   9.081  22.380  0.00  0.00    +0.000 A 
ATOM     13  C   UNL     1      -0.226  10.152  22.952  0.00  0.00    +0.000 A 
ATOM     14  C   UNL     1      -0.836  11.104  22.138  0.00  0.00    +0.000 A 
ATOM     15  C   UNL     1      -0.797  11.009  20.736  0.00  0.00    +0.000 A 
ATOM     16  C   UNL     1      -0.042   9.946  20.199  0.00  0.00    +0.000 A 
BRANCH  15  17
ATOM     17  C   UNL     1      -1.596  12.020  19.791  0.00  0.00    +0.000 C 
ATOM     18  C   UNL     1      -2.686  11.454  18.832  0.00  0.00    +0.000 C 
ATOM     19  O   UNL     1      -3.618  12.494  19.244  0.00  0.00    +0.000 OA
ATOM     20  C   UNL     1      -2.836  12.696  20.447  0.00  0.00    +0.000 C 
BRANCH  17  21
ATOM     21  C   UNL     1      -0.654  13.033  19.115  0.00  0.00    +0.000 C 
BRANCH  21  22
ATOM     22  C   UNL     1       0.529  13.389  19.956  0.00  0.00    +0.000 A 
ATOM     23  N   UNL     1       0.489  14.002  21.122  0.00  0.00    +0.000 NA
ATOM     24  N   UNL     1       1.777  14.119  21.595  0.00  0.00    +0.000 NA
ATOM     25  C   UNL     1       2.576  13.572  20.708  0.00  0.00    +0.000 A 
ATOM     26  N   UNL     1       1.840  13.125  19.653  0.00  0.00    +0.000 N 
ATOM     27  C   UNL     1       2.371  12.496  18.473  0.00  0.00    +0.000 C 
ENDBRANCH  21  22
ENDBRANCH  17  21
ENDBRANCH  15  17
ENDBRANCH   8  11
BRANCH   5  28
ATOM     28  C   UNL     1       2.054   3.469  21.005  0.00  0.00    +0.000 C 
ATOM     29  F   UNL     1       2.385   3.783  22.285  0.00  0.00    +0.000 F 
ATOM     30  F   UNL     1       0.697   3.359  20.988  0.00  0.00    +0.000 F 
ATOM     31  F   UNL     1       2.539   2.216  20.788  0.00  0.00    +0.000 F 
ENDBRANCH   5  28
BRANCH   1  32
ATOM     32  C   UNL     1       4.857   4.500  16.902  0.00  0.00    +0.000 C 
BRANCH  32  37
ATOM     33  C   UNL     1       7.845   5.497  13.178  0.00  0.00    +0.000 C 
ATOM     34  C   UNL     1       7.454   4.480  14.251  0.00  0.00    +0.000 C 
ATOM     35  C   UNL     1       7.646   5.061  15.664  0.00  0.00    +0.000 C 
ATOM     36  C   UNL     1       6.551   6.068  16.047  0.00  0.00    +0.000 C 
ATOM     37  N   UNL     1       5.178   5.550  15.917  0.00  0.00    +0.000 NA
ATOM     38  C   UNL     1       4.974   5.025  14.540  0.00  0.00    +0.000 C 
ATOM     39  C   UNL     1       6.015   3.994  14.064  0.00  0.00    +0.000 C 
ATOM     40  F   UNL     1       5.789   3.673  12.765  0.00  0.00    +0.000 F 
ATOM     41  F   UNL     1       5.850   2.833  14.758  0.00  0.00    +0.000 F 
ENDBRANCH  32  37
ENDBRANCH   1  32
TORSDOF 7
ENDMDL
MODEL 5
REMARK VINA RESULT:      -9.2      4.012      9.934
REMARK  Name = 
REMARK  9 active torsions:
REMARK  status: ('A' for Active; 'I' for Inactive)
REMARK    1  A    between atoms: C_1  and  C_2
REMARK    2  A    between atoms: N_5  and  C_6
REMARK    3  A    between atoms: C_6  and  C_7
REMARK    4  A    between atoms: C_11  and  C_12
REMARK    5  A    between atoms: N_18  and  C_19
REMARK    6  A    between atoms: C_23  and  C_24
REMARK    7  A    between atoms: C_24  and  C_25
REMARK    8  A    between atoms: C_25  and  C_26
REMARK    9  A    between atoms: N_30  and  C_31
REMARK                            x       y       z     vdW  Elec       q    Type
REMARK                         _______ _______ _______ _____ _____    ______ ____
ROOT
ATOM      1  C   UNL     1       3.853   5.011  17.987  0.00  0.00    +0.000 A 
ATOM      2  C   UNL     1       3.414   6.338  17.971  0.00  0.00    +0.000 A 
ATOM      3  C   UNL     1       2.583   6.750  18.988  0.00  0.00    +0.000 A 
ATOM      4  C   UNL     1       2.160   5.910  20.013  0.00  0.00    +0.000 A 
ATOM      5  C   UNL     1       2.544   4.575  20.034  0.00  0.00    +0.000 A 
ATOM      6  C   UNL     1       3.416   4.141  19.012  0.00  0.00    +0.000 A 
ATOM      7  C   UNL     1       1.324   6.694  20.972  0.00  0.00    +0.000 C 
ATOM      8  N   UNL     1       1.294   8.029  20.380  0.00  0.00    +0.000 N 
ATOM      9  C   UNL     1       2.020   8.084  19.194  0.00  0.00    +0.000 C 
ATOM     10  O   UNL     1       2.231   8.999  18.419  0.00  0.00    +0.000 OA
ENDROOT
BRANCH   8  11
ATOM     11  C   UNL     1       0.585   9.101  20.969  0.00  0.00    +0.000 A 
ATOM     12  C   UNL     1       0.052   9.009  22.256  0.00  0.00    +0.000 A 
ATOM     13  C   UNL     1      -0.611  10.090  22.830  0.00  0.00    +0.000 A 
ATOM     14  C   UNL     1      -0.790  11.263  22.103  0.00  0.00    +0.000 A 
ATOM     15  C   UNL     1      -0.328  11.389  20.781  0.00  0.00    +0.000 A 
ATOM     16  C   UNL     1       0.395  10.296  20.261  0.00  0.00    +0.000 A 
BRANCH  15  17
ATOM     17  C   UNL     1      -0.635  12.680  19.889  0.00  0.00    +0.000 C 
ATOM     18  C   UNL     1      -1.449  13.851  20.516  0.00  0.00    +0.000 C 
ATOM     19  O   UNL     1      -0.487  14.819  20.007  0.00  0.00    +0.000 OA
ATOM     20  C   UNL     1       0.489  13.757  19.879  0.00  0.00    +0.000 C 
BRANCH  17  21
ATOM     21  C   UNL     1      -1.106  12.296  18.475  0.00  0.00    +0.000 C 
BRANCH  21  22
ATOM     22  C   UNL     1      -2.506  11.774  18.443  0.00  0.00    +0.000 A 
ATOM     23  N   UNL     1      -3.502  12.190  19.199  0.00  0.00    +0.000 NA
ATOM     24  N   UNL     1      -4.635  11.490  18.849  0.00  0.00    +0.000 NA
ATOM     25  C   UNL     1      -4.306  10.663  17.884  0.00  0.00    +0.000 A 
ATOM     26  N   UNL     1      -2.977  10.787  17.615  0.00  0.00    +0.000 N 
ATOM     27  C   UNL     1      -2.248  10.021  16.639  0.00  0.00    +0.000 C 
ENDBRANCH  21  22
ENDBRANCH  17  21
ENDBRANCH  15  17
ENDBRANCH   8  11
BRANCH   5  28
ATOM     28  C   UNL     1       2.055   3.598  21.071  0.00  0.00    +0.000 C 
ATOM     29  F   UNL     1       2.378   3.952  22.343  0.00  0.00    +0.000 F 
ATOM     30  F   UNL     1       0.701   3.467  21.054  0.00  0.00    +0.000 F 
ATOM     31  F   UNL     1       2.560   2.346  20.891  0.00  0.00    +0.000 F 
ENDBRANCH   5  28
BRANCH   1  32
ATOM     32  C   UNL     1       4.806   4.542  16.913  0.00  0.00    +0.000 C 
BRANCH  32  37
ATOM     33  C   UNL     1       7.851   5.515  13.230  0.00  0.00    +0.000 C 
ATOM     34  C   UNL     1       7.458   4.515  14.316  0.00  0.00    +0.000 C 
ATOM     35  C   UNL     1       7.609   5.130  15.719  0.00  0.00    +0.000 C 
ATOM     36  C   UNL     1       6.487   6.123  16.057  0.00  0.00    +0.000 C 
ATOM     37  N   UNL     1       5.127   5.576  15.911  0.00  0.00    +0.000 NA
ATOM     38  C   UNL     1       4.963   5.017  14.542  0.00  0.00    +0.000 C 
ATOM     39  C   UNL     1       6.033   3.996  14.111  0.00  0.00    +0.000 C 
ATOM     40  F   UNL     1       5.841   3.642  12.815  0.00  0.00    +0.000 F 
ATOM     41  F   UNL     1       5.876   2.848  14.828  0.00  0.00    +0.000 F 
ENDBRANCH  32  37
ENDBRANCH   1  32
TORSDOF 7
ENDMDL
MODEL 6
REMARK VINA RESULT:      -9.1      3.768      9.527
REMARK  Name = 
REMARK  9 active torsions:
REMARK  status: ('A' for Active; 'I' for Inactive)
REMARK    1  A    between atoms: C_1  and  C_2
REMARK    2  A    between atoms: N_5  and  C_6
REMARK    3  A    between atoms: C_6  and  C_7
REMARK    4  A    between atoms: C_11  and  C_12
REMARK    5  A    between atoms: N_18  and  C_19
REMARK    6  A    between atoms: C_23  and  C_24
REMARK    7  A    between atoms: C_24  and  C_25
REMARK    8  A    between atoms: C_25  and  C_26
REMARK    9  A    between atoms: N_30  and  C_31
REMARK                            x       y       z     vdW  Elec       q    Type
REMARK                         _______ _______ _______ _____ _____    ______ ____
ROOT
ATOM      1  C   UNL     1       3.830   4.953  18.007  0.00  0.00    +0.000 A 
ATOM      2  C   UNL     1       3.407   6.284  18.030  0.00  0.00    +0.000 A 
ATOM      3  C   UNL     1       2.596   6.680  19.070  0.00  0.00    +0.000 A 
ATOM      4  C   UNL     1       2.181   5.820  20.081  0.00  0.00    +0.000 A 
ATOM      5  C   UNL     1       2.549   4.481  20.062  0.00  0.00    +0.000 A 
ATOM      6  C   UNL     1       3.400   4.062  19.017  0.00  0.00    +0.000 A 
ATOM      7  C   UNL     1       1.369   6.590  21.072  0.00  0.00    +0.000 C 
ATOM      8  N   UNL     1       1.346   7.939  20.514  0.00  0.00    +0.000 N 
ATOM      9  C   UNL     1       2.054   8.015  19.318  0.00  0.00    +0.000 C 
ATOM     10  O   UNL     1       2.263   8.947  18.562  0.00  0.00    +0.000 OA
ENDROOT
BRANCH   8  11
ATOM     11  C   UNL     1       0.659   9.004  21.141  0.00  0.00    +0.000 A 
ATOM     12  C   UNL     1      -0.055   8.820  22.326  0.00  0.00    +0.000 A 
ATOM     13  C   UNL     1      -0.693   9.891  22.945  0.00  0.00    +0.000 A 
ATOM     14  C   UNL     1      -0.664  11.153  22.358  0.00  0.00    +0.000 A 
ATOM     15  C   UNL     1      -0.012  11.382  21.134  0.00  0.00    +0.000 A 
ATOM     16  C   UNL     1       0.677  10.286  20.574  0.00  0.00    +0.000 A 
BRANCH  15  17
ATOM     17  C   UNL     1      -0.076  12.792  20.384  0.00  0.00    +0.000 C 
ATOM     18  C   UNL     1      -1.370  13.173  19.603  0.00  0.00    +0.000 C 
ATOM     19  O   UNL     1      -1.374  14.494  20.215  0.00  0.00    +0.000 OA
ATOM     20  C   UNL     1      -0.522  13.991  21.272  0.00  0.00    +0.000 C 
BRANCH  17  21
ATOM     21  C   UNL     1       1.217  13.080  19.601  0.00  0.00    +0.000 C 
BRANCH  21  22
ATOM     22  C   UNL     1       2.244  13.808  20.407  0.00  0.00    +0.000 A 
ATOM     23  N   UNL     1       2.953  13.298  21.394  0.00  0.00    +0.000 NA
ATOM     24  N   UNL     1       3.810  14.271  21.859  0.00  0.00    +0.000 NA
ATOM     25  C   UNL     1       3.607  15.352  21.145  0.00  0.00    +0.000 A 
ATOM     26  N   UNL     1       2.616  15.118  20.240  0.00  0.00    +0.000 N 
ATOM     27  C   UNL     1       2.096  16.078  19.304  0.00  0.00    +0.000 C 
ENDBRANCH  21  22
ENDBRANCH  17  21
ENDBRANCH  15  17
ENDBRANCH   8  11
BRANCH   5  28
ATOM     28  C   UNL     1       2.065   3.484  21.083  0.00  0.00    +0.000 C 
ATOM     29  F   UNL     1       2.588   2.241  20.917  0.00  0.00    +0.000 F 
ATOM     30  F   UNL     1       2.384   3.854  22.354  0.00  0.00    +0.000 F 
ATOM     31  F   UNL     1       0.713   3.327  21.062  0.00  0.00    +0.000 F 
ENDBRANCH   5  28
BRANCH   1  32
ATOM     32  C   UNL     1       4.761   4.499  16.906  0.00  0.00    +0.000 C 
BRANCH  32  37
ATOM     33  C   UNL     1       7.881   5.560  13.310  0.00  0.00    +0.000 C 
ATOM     34  C   UNL     1       7.449   4.523  14.347  0.00  0.00    +0.000 C 
ATOM     35  C   UNL     1       7.593   5.074  15.777  0.00  0.00    +0.000 C 
ATOM     36  C   UNL     1       6.488   6.077  16.142  0.00  0.00    +0.000 C 
ATOM     37  N   UNL     1       5.119   5.567  15.954  0.00  0.00    +0.000 NA
ATOM     38  C   UNL     1       4.962   5.072  14.560  0.00  0.00    +0.000 C 
ATOM     39  C   UNL     1       6.016   4.046  14.100  0.00  0.00    +0.000 C 
ATOM     40  F   UNL     1       5.835   3.753  12.787  0.00  0.00    +0.000 F 
ATOM     41  F   UNL     1       5.823   2.872  14.764  0.00  0.00    +0.000 F 
ENDBRANCH  32  37
ENDBRANCH   1  32
TORSDOF 7
ENDMDL
MODEL 7
REMARK VINA RESULT:      -9.1      3.783      9.771
REMARK  Name = 
REMARK  9 active torsions:
REMARK  status: ('A' for Active; 'I' for Inactive)
REMARK    1  A    between atoms: C_1  and  C_2
REMARK    2  A    between atoms: N_5  and  C_6
REMARK    3  A    between atoms: C_6  and  C_7
REMARK    4  A    between atoms: C_11  and  C_12
REMARK    5  A    between atoms: N_18  and  C_19
REMARK    6  A    between atoms: C_23  and  C_24
REMARK    7  A    between atoms: C_24  and  C_25
REMARK    8  A    between atoms: C_25  and  C_26
REMARK    9  A    between atoms: N_30  and  C_31
REMARK                            x       y       z     vdW  Elec       q    Type
REMARK                         _______ _______ _______ _____ _____    ______ ____
ROOT
ATOM      1  C   UNL     1       3.738   4.993  17.877  0.00  0.00    +0.000 A 
ATOM      2  C   UNL     1       3.352   6.337  17.893  0.00  0.00    +0.000 A 
ATOM      3  C   UNL     1       2.573   6.766  18.944  0.00  0.00    +0.000 A 
ATOM      4  C   UNL     1       2.153   5.929  19.972  0.00  0.00    +0.000 A 
ATOM      5  C   UNL     1       2.484   4.580  19.962  0.00  0.00    +0.000 A 
ATOM      6  C   UNL     1       3.303   4.126  18.905  0.00  0.00    +0.000 A 
ATOM      7  C   UNL     1       1.382   6.731  20.970  0.00  0.00    +0.000 C 
ATOM      8  N   UNL     1       1.385   8.074  20.396  0.00  0.00    +0.000 N 
ATOM      9  C   UNL     1       2.072   8.118  19.187  0.00  0.00    +0.000 C 
ATOM     10  O   UNL     1       2.292   9.035  18.416  0.00  0.00    +0.000 OA
ENDROOT
BRANCH   8  11
ATOM     11  C   UNL     1       0.740   9.165  21.024  0.00  0.00    +0.000 A 
ATOM     12  C   UNL     1      -0.168   8.979  22.068  0.00  0.00    +0.000 A 
ATOM     13  C   UNL     1      -0.764  10.069  22.695  0.00  0.00    +0.000 A 
ATOM     14  C   UNL     1      -0.493  11.361  22.252  0.00  0.00    +0.000 A 
ATOM     15  C   UNL     1       0.365  11.603  21.165  0.00  0.00    +0.000 A 
ATOM     16  C   UNL     1       0.999  10.477  20.602  0.00  0.00    +0.000 A 
BRANCH  15  17
ATOM     17  C   UNL     1       0.588  13.068  20.565  0.00  0.00    +0.000 C 
ATOM     18  C   UNL     1       1.545  14.049  21.306  0.00  0.00    +0.000 C 
ATOM     19  O   UNL     1       2.195  14.395  20.050  0.00  0.00    +0.000 OA
ATOM     20  C   UNL     1       1.688  13.170  19.468  0.00  0.00    +0.000 C 
BRANCH  17  21
ATOM     21  C   UNL     1      -0.741  13.717  20.139  0.00  0.00    +0.000 C 
BRANCH  21  22
ATOM     22  C   UNL     1      -1.569  12.838  19.257  0.00  0.00    +0.000 A 
ATOM     23  N   UNL     1      -1.202  12.358  18.085  0.00  0.00    +0.000 NA
ATOM     24  N   UNL     1      -2.223  11.569  17.602  0.00  0.00    +0.000 NA
ATOM     25  C   UNL     1      -3.189  11.583  18.490  0.00  0.00    +0.000 A 
ATOM     26  N   UNL     1      -2.834  12.387  19.531  0.00  0.00    +0.000 N 
ATOM     27  C   UNL     1      -3.652  12.673  20.680  0.00  0.00    +0.000 C 
ENDBRANCH  21  22
ENDBRANCH  17  21
ENDBRANCH  15  17
ENDBRANCH   8  11
BRANCH   5  28
ATOM     28  C   UNL     1       1.993   3.608  21.003  0.00  0.00    +0.000 C 
ATOM     29  F   UNL     1       2.454   2.342  20.824  0.00  0.00    +0.000 F 
ATOM     30  F   UNL     1       2.371   3.967  22.260  0.00  0.00    +0.000 F 
ATOM     31  F   UNL     1       0.635   3.511  21.029  0.00  0.00    +0.000 F 
ENDBRANCH   5  28
BRANCH   1  32
ATOM     32  C   UNL     1       4.634   4.503  16.764  0.00  0.00    +0.000 C 
BRANCH  32  37
ATOM     33  C   UNL     1       7.941   5.547  13.335  0.00  0.00    +0.000 C 
ATOM     34  C   UNL     1       7.470   4.525  14.369  0.00  0.00    +0.000 C 
ATOM     35  C   UNL     1       7.517   5.111  15.792  0.00  0.00    +0.000 C 
ATOM     36  C   UNL     1       6.373   6.099  16.067  0.00  0.00    +0.000 C 
ATOM     37  N   UNL     1       5.028   5.556  15.810  0.00  0.00    +0.000 NA
ATOM     38  C   UNL     1       4.964   5.026  14.421  0.00  0.00    +0.000 C 
ATOM     39  C   UNL     1       6.063   4.013  14.049  0.00  0.00    +0.000 C 
ATOM     40  F   UNL     1       5.967   3.687  12.735  0.00  0.00    +0.000 F 
ATOM     41  F   UNL     1       5.854   2.850  14.728  0.00  0.00    +0.000 F 
ENDBRANCH  32  37
ENDBRANCH   1  32
TORSDOF 7
ENDMDL
MODEL 8
REMARK VINA RESULT:      -9.1      3.679      9.638
REMARK  Name = 
REMARK  9 active torsions:
REMARK  status: ('A' for Active; 'I' for Inactive)
REMARK    1  A    between atoms: C_1  and  C_2
REMARK    2  A    between atoms: N_5  and  C_6
REMARK    3  A    between atoms: C_6  and  C_7
REMARK    4  A    between atoms: C_11  and  C_12
REMARK    5  A    between atoms: N_18  and  C_19
REMARK    6  A    between atoms: C_23  and  C_24
REMARK    7  A    between atoms: C_24  and  C_25
REMARK    8  A    between atoms: C_25  and  C_26
REMARK    9  A    between atoms: N_30  and  C_31
REMARK                            x       y       z     vdW  Elec       q    Type
REMARK                         _______ _______ _______ _____ _____    ______ ____
ROOT
ATOM      1  C   UNL     1       3.792   4.926  17.942  0.00  0.00    +0.000 A 
ATOM      2  C   UNL     1       3.380   6.261  17.959  0.00  0.00    +0.000 A 
ATOM      3  C   UNL     1       2.591   6.673  19.009  0.00  0.00    +0.000 A 
ATOM      4  C   UNL     1       2.185   5.826  20.035  0.00  0.00    +0.000 A 
ATOM      5  C   UNL     1       2.542   4.483  20.023  0.00  0.00    +0.000 A 
ATOM      6  C   UNL     1       3.371   4.048  18.967  0.00  0.00    +0.000 A 
ATOM      7  C   UNL     1       1.396   6.611  21.032  0.00  0.00    +0.000 C 
ATOM      8  N   UNL     1       1.374   7.955  20.461  0.00  0.00    +0.000 N 
ATOM      9  C   UNL     1       2.063   8.015  19.253  0.00  0.00    +0.000 C 
ATOM     10  O   UNL     1       2.267   8.938  18.486  0.00  0.00    +0.000 OA
ENDROOT
BRANCH   8  11
ATOM     11  C   UNL     1       0.707   9.032  21.090  0.00  0.00    +0.000 A 
ATOM     12  C   UNL     1       0.054   8.876  22.314  0.00  0.00    +0.000 A 
ATOM     13  C   UNL     1      -0.566   9.959  22.932  0.00  0.00    +0.000 A 
ATOM     14  C   UNL     1      -0.580  11.203  22.307  0.00  0.00    +0.000 A 
ATOM     15  C   UNL     1       0.008  11.401  21.045  0.00  0.00    +0.000 A 
ATOM     16  C   UNL     1       0.682  10.296  20.485  0.00  0.00    +0.000 A 
BRANCH  15  17
ATOM     17  C   UNL     1      -0.109  12.788  20.258  0.00  0.00    +0.000 C 
ATOM     18  C   UNL     1       0.724  12.989  18.957  0.00  0.00    +0.000 C 
ATOM     19  O   UNL     1      -0.445  13.512  18.265  0.00  0.00    +0.000 OA
ATOM     20  C   UNL     1      -1.294  12.878  19.253  0.00  0.00    +0.000 C 
BRANCH  17  21
ATOM     21  C   UNL     1      -0.047  13.992  21.215  0.00  0.00    +0.000 C 
BRANCH  21  22
ATOM     22  C   UNL     1       1.307  14.622  21.281  0.00  0.00    +0.000 A 
ATOM     23  N   UNL     1       2.342  14.159  21.953  0.00  0.00    +0.000 NA
ATOM     24  N   UNL     1       3.411  14.999  21.737  0.00  0.00    +0.000 NA
ATOM     25  C   UNL     1       3.007  15.957  20.936  0.00  0.00    +0.000 A 
ATOM     26  N   UNL     1       1.688  15.777  20.646  0.00  0.00    +0.000 N 
ATOM     27  C   UNL     1       0.889  16.644  19.822  0.00  0.00    +0.000 C 
ENDBRANCH  21  22
ENDBRANCH  17  21
ENDBRANCH  15  17
ENDBRANCH   8  11
BRANCH   5  28
ATOM     28  C   UNL     1       2.066   3.500  21.061  0.00  0.00    +0.000 C 
ATOM     29  F   UNL     1       2.375   3.864  22.333  0.00  0.00    +0.000 F 
ATOM     30  F   UNL     1       0.715   3.341  21.037  0.00  0.00    +0.000 F 
ATOM     31  F   UNL     1       2.597   2.258  20.887  0.00  0.00    +0.000 F 
ENDBRANCH   5  28
BRANCH   1  32
ATOM     32  C   UNL     1       4.701   4.454  16.830  0.00  0.00    +0.000 C 
BRANCH  32  37
ATOM     33  C   UNL     1       7.899   5.548  13.313  0.00  0.00    +0.000 C 
ATOM     34  C   UNL     1       7.477   4.524  14.367  0.00  0.00    +0.000 C 
ATOM     35  C   UNL     1       7.544   5.123  15.783  0.00  0.00    +0.000 C 
ATOM     36  C   UNL     1       6.383   6.086  16.077  0.00  0.00    +0.000 C 
ATOM     37  N   UNL     1       5.046   5.509  15.858  0.00  0.00    +0.000 NA
ATOM     38  C   UNL     1       4.962   4.965  14.476  0.00  0.00    +0.000 C 
ATOM     39  C   UNL     1       6.076   3.975  14.085  0.00  0.00    +0.000 C 
ATOM     40  F   UNL     1       5.956   3.635  12.777  0.00  0.00    +0.000 F 
ATOM     41  F   UNL     1       5.911   2.814  14.779  0.00  0.00    +0.000 F 
ENDBRANCH  32  37
ENDBRANCH   1  32
TORSDOF 7
ENDMDL
MODEL 9
REMARK VINA RESULT:      -9.1      1.506      2.336
REMARK  Name = 
REMARK  9 active torsions:
REMARK  status: ('A' for Active; 'I' for Inactive)
REMARK    1  A    between atoms: C_1  and  C_2
REMARK    2  A    between atoms: N_5  and  C_6
REMARK    3  A    between atoms: C_6  and  C_7
REMARK    4  A    between atoms: C_11  and  C_12
REMARK    5  A    between atoms: N_18  and  C_19
REMARK    6  A    between atoms: C_23  and  C_24
REMARK    7  A    between atoms: C_24  and  C_25
REMARK    8  A    between atoms: C_25  and  C_26
REMARK    9  A    between atoms: N_30  and  C_31
REMARK                            x       y       z     vdW  Elec       q    Type
REMARK                         _______ _______ _______ _____ _____    ______ ____
ROOT
ATOM      1  C   UNL     1      -0.065  11.904  19.677  0.00  0.00    +0.000 A 
ATOM      2  C   UNL     1       0.672  11.179  18.736  0.00  0.00    +0.000 A 
ATOM      3  C   UNL     1       1.091   9.915  19.088  0.00  0.00    +0.000 A 
ATOM      4  C   UNL     1       0.822   9.341  20.326  0.00  0.00    +0.000 A 
ATOM      5  C   UNL     1       0.130  10.054  21.298  0.00  0.00    +0.000 A 
ATOM      6  C   UNL     1      -0.329  11.341  20.947  0.00  0.00    +0.000 A 
ATOM      7  C   UNL     1       1.367   7.950  20.346  0.00  0.00    +0.000 C 
ATOM      8  N   UNL     1       1.982   7.810  19.029  0.00  0.00    +0.000 N 
ATOM      9  C   UNL     1       1.846   8.968  18.269  0.00  0.00    +0.000 C 
ATOM     10  O   UNL     1       2.217   9.242  17.143  0.00  0.00    +0.000 OA
ENDROOT
BRANCH   8  11
ATOM     11  C   UNL     1       2.641   6.625  18.625  0.00  0.00    +0.000 A 
ATOM     12  C   UNL     1       2.078   5.365  18.835  0.00  0.00    +0.000 A 
ATOM     13  C   UNL     1       2.728   4.215  18.396  0.00  0.00    +0.000 A 
ATOM     14  C   UNL     1       3.975   4.309  17.784  0.00  0.00    +0.000 A 
ATOM     15  C   UNL     1       4.616   5.548  17.604  0.00  0.00    +0.000 A 
ATOM     16  C   UNL     1       3.895   6.692  18.002  0.00  0.00    +0.000 A 
BRANCH  15  17
ATOM     17  C   UNL     1       6.099   5.663  17.019  0.00  0.00    +0.000 C 
ATOM     18  C   UNL     1       6.560   7.015  16.395  0.00  0.00    +0.000 C 
ATOM     19  O   UNL     1       7.808   6.957  17.144  0.00  0.00    +0.000 OA
ATOM     20  C   UNL     1       7.194   6.023  18.065  0.00  0.00    +0.000 C 
BRANCH  17  21
ATOM     21  C   UNL     1       6.471   4.438  16.164  0.00  0.00    +0.000 C 
BRANCH  21  22
ATOM     22  C   UNL     1       7.010   4.801  14.818  0.00  0.00    +0.000 A 
ATOM     23  N   UNL     1       8.070   5.550  14.589  0.00  0.00    +0.000 NA
ATOM     24  N   UNL     1       8.261   5.625  13.227  0.00  0.00    +0.000 NA
ATOM     25  C   UNL     1       7.315   4.917  12.655  0.00  0.00    +0.000 A 
ATOM     26  N   UNL     1       6.492   4.405  13.612  0.00  0.00    +0.000 N 
ATOM     27  C   UNL     1       5.324   3.602  13.365  0.00  0.00    +0.000 C 
ENDBRANCH  21  22
ENDBRANCH  17  21
ENDBRANCH  15  17
ENDBRANCH   8  11
BRANCH   5  28
ATOM     28  C   UNL     1      -0.121   9.517  22.683  0.00  0.00    +0.000 C 
ATOM     29  F   UNL     1      -0.814   8.348  22.694  0.00  0.00    +0.000 F 
ATOM     30  F   UNL     1       1.037   9.269  23.355  0.00  0.00    +0.000 F 
ATOM     31  F   UNL     1      -0.831  10.381  23.459  0.00  0.00    +0.000 F 
ENDBRANCH   5  28
BRANCH   1  32
ATOM     32  C   UNL     1      -0.582  13.274  19.304  0.00  0.00    +0.000 C 
BRANCH  32  37
ATOM     33  C   UNL     1       1.271  17.545  20.757  0.00  0.00    +0.000 C 
ATOM     34  C   UNL     1       0.188  16.491  20.987  0.00  0.00    +0.000 C 
ATOM     35  C   UNL     1      -0.714  16.342  19.749  0.00  0.00    +0.000 C 
ATOM     36  C   UNL     1      -0.035  15.570  18.607  0.00  0.00    +0.000 C 
ATOM     37  N   UNL     1       0.482  14.246  18.993  0.00  0.00    +0.000 NA
ATOM     38  C   UNL     1       1.388  14.390  20.164  0.00  0.00    +0.000 C 
ATOM     39  C   UNL     1       0.794  15.139  21.372  0.00  0.00    +0.000 C 
ATOM     40  F   UNL     1       1.743  15.302  22.329  0.00  0.00    +0.000 F 
ATOM     41  F   UNL     1      -0.174  14.371  21.947  0.00  0.00    +0.000 F 
ENDBRANCH  32  37
ENDBRANCH   1  32
TORSDOF 7
ENDMDL
