MODEL 1
REMARK VINA RESULT:      -9.4      0.000      0.000
REMARK  Name = 
REMARK  11 active torsions:
REMARK  status: ('A' for Active; 'I' for Inactive)
REMARK    1  A    between atoms: C_1  and  C_2
REMARK    2  A    between atoms: C_2  and  C_3
REMARK    3  A    between atoms: C_2  and  C_10
REMARK    4  A    between atoms: C_3  and  C_4
REMARK    5  A    between atoms: N_8  and  C_9
REMARK    6  A    between atoms: C_14  and  N_15
REMARK    7  A    between atoms: C_16  and  C_18
REMARK    8  A    between atoms: C_20  and  C_21
REMARK    9  A    between atoms: C_25  and  O_26
REMARK   10  A    between atoms: C_27  and  C_28
REMARK   11  A    between atoms: C_27  and  C_29
REMARK                            x       y       z     vdW  Elec       q    Type
REMARK                         _______ _______ _______ _____ _____    ______ ____
ROOT
ATOM      1  N   UNL     1       0.523   7.669  21.230  0.00  0.00    +0.000 N 
ATOM      2  C   UNL     1       1.499   7.402  20.297  0.00  0.00    +0.000 C 
ATOM      3  O   UNL     1       2.120   8.228  19.631  0.00  0.00    +0.000 OA
ATOM      4  H   UNL     1       0.210   6.871  21.780  0.00  0.00    +0.000 HD
ENDROOT
BRANCH   1   9
ATOM      5  C   UNL     1      -0.838  11.096  20.709  0.00  0.00    +0.000 A 
ATOM      6  C   UNL     1      -1.109  11.472  22.032  0.00  0.00    +0.000 A 
ATOM      7  C   UNL     1      -0.814  10.615  23.088  0.00  0.00    +0.000 A 
ATOM      8  C   UNL     1      -0.268   9.360  22.839  0.00  0.00    +0.000 A 
ATOM      9  C   UNL     1      -0.008   8.942  21.532  0.00  0.00    +0.000 A 
ATOM     10  C   UNL     1      -0.274   9.822  20.478  0.00  0.00    +0.000 A 
BRANCH   5  12
ATOM     11  C   UNL     1      -0.672  13.465  19.729  0.00  0.00    +0.000 C 
ATOM     12  C   UNL     1      -1.131  12.010  19.519  0.00  0.00    +0.000 C 
BRANCH  12  13
ATOM     13  C   UNL     1      -2.635  11.937  19.164  0.00  0.00    +0.000 C 
BRANCH  13  14
ATOM     14  C   UNL     1      -2.877  11.416  17.789  0.00  0.00    +0.000 A 
ATOM     15  N   UNL     1      -1.988  10.847  17.000  0.00  0.00    +0.000 NA
ATOM     16  N   UNL     1      -2.595  10.579  15.795  0.00  0.00    +0.000 NA
ATOM     17  C   UNL     1      -3.843  10.976  15.881  0.00  0.00    +0.000 A 
ATOM     18  N   UNL     1      -4.074  11.474  17.125  0.00  0.00    +0.000 N 
ATOM     19  C   UNL     1      -5.332  11.956  17.630  0.00  0.00    +0.000 C 
ENDBRANCH  13  14
ENDBRANCH  12  13
ENDBRANCH   5  12
ENDBRANCH   1   9
BRANCH   2  20
ATOM     20  C   UNL     1       1.848   5.961  20.132  0.00  0.00    +0.000 A 
ATOM     21  C   UNL     1       2.797   5.641  19.176  0.00  0.00    +0.000 A 
ATOM     22  C   UNL     1       3.228   4.329  19.079  0.00  0.00    +0.000 A 
ATOM     23  C   UNL     1       2.608   3.358  19.868  0.00  0.00    +0.000 A 
ATOM     24  C   UNL     1       1.622   3.763  20.758  0.00  0.00    +0.000 A 
ATOM     25  N   UNL     1       1.240   5.051  20.934  0.00  0.00    +0.000 NA
BRANCH  22  26
ATOM     26  C   UNL     1       4.246   3.937  18.062  0.00  0.00    +0.000 C 
ATOM     27  O   UNL     1       4.123   2.832  17.535  0.00  0.00    +0.000 OA
ATOM     28  N   UNL     1       5.263   4.817  17.732  0.00  0.00    +0.000 N 
ATOM     29  C   UNL     1       6.098   4.598  16.558  0.00  0.00    +0.000 C 
ATOM     30  C   UNL     1       7.498   5.017  17.013  0.00  0.00    +0.000 C 
ATOM     31  C   UNL     1       7.251   6.150  18.036  0.00  0.00    +0.000 C 
ATOM     32  C   UNL     1       7.246   7.521  17.333  0.00  0.00    +0.000 C 
ATOM     33  C   UNL     1       8.275   6.179  19.176  0.00  0.00    +0.000 C 
ATOM     34  C   UNL     1       5.846   5.842  18.596  0.00  0.00    +0.000 C 
BRANCH  30  35
ATOM     35  O   UNL     1       8.160   3.905  17.615  0.00  0.00    +0.000 OA
ATOM     36  H   UNL     1       8.805   3.561  16.967  0.00  0.00    +0.000 HD
ENDBRANCH  30  35
ENDBRANCH  22  26
ENDBRANCH   2  20
TORSDOF 7
ENDMDL
MODEL 2
REMARK VINA RESULT:      -8.9      2.859     10.462
REMARK  Name = 
REMARK  11 active torsions:
REMARK  status: ('A' for Active; 'I' for Inactive)
REMARK    1  A    between atoms: C_1  and  C_2
REMARK    2  A    between atoms: C_2  and  C_3
REMARK    3  A    between atoms: C_2  and  C_10
REMARK    4  A    between atoms: C_3  and  C_4
REMARK    5  A    between atoms: N_8  and  C_9
REMARK    6  A    between atoms: C_14  and  N_15
REMARK    7  A    between atoms: C_16  and  C_18
REMARK    8  A    between atoms: C_20  and  C_21
REMARK    9  A    between atoms: C_25  and  O_26
REMARK   10  A    between atoms: C_27  and  C_28
REMARK   11  A    between atoms: C_27  and  C_29
REMARK                            x       y       z     vdW  Elec       q    Type
REMARK                         _______ _______ _______ _____ _____    ______ ____
ROOT
ATOM      1  N   UNL     1       1.783   8.460  18.667  0.00  0.00    +0.000 N 
ATOM      2  C   UNL     1       1.295   9.267  19.670  0.00  0.00    +0.000 C 
ATOM      3  O   UNL     1       1.406   9.079  20.879  0.00  0.00    +0.000 OA
ATOM      4  H   UNL     1       1.712   8.838  17.724  0.00  0.00    +0.000 HD
ENDROOT
BRANCH   1   9
ATOM      5  C   UNL     1       3.932   5.509  17.934  0.00  0.00    +0.000 A 
ATOM      6  C   UNL     1       3.790   4.782  19.124  0.00  0.00    +0.000 A 
ATOM      7  C   UNL     1       2.967   5.246  20.146  0.00  0.00    +0.000 A 
ATOM      8  C   UNL     1       2.293   6.454  20.006  0.00  0.00    +0.000 A 
ATOM      9  C   UNL     1       2.429   7.217  18.844  0.00  0.00    +0.000 A 
ATOM     10  C   UNL     1       3.231   6.728  17.808  0.00  0.00    +0.000 A 
BRANCH   5  12
ATOM     11  C   UNL     1       4.298   3.751  16.097  0.00  0.00    +0.000 C 
ATOM     12  C   UNL     1       4.814   5.031  16.779  0.00  0.00    +0.000 C 
BRANCH  12  13
ATOM     13  C   UNL     1       6.271   4.862  17.272  0.00  0.00    +0.000 C 
BRANCH  13  14
ATOM     14  C   UNL     1       6.950   6.165  17.519  0.00  0.00    +0.000 A 
ATOM     15  N   UNL     1       6.942   7.215  16.723  0.00  0.00    +0.000 NA
ATOM     16  N   UNL     1       7.747   8.181  17.280  0.00  0.00    +0.000 NA
ATOM     17  C   UNL     1       8.217   7.704  18.409  0.00  0.00    +0.000 A 
ATOM     18  N   UNL     1       7.716   6.457  18.617  0.00  0.00    +0.000 N 
ATOM     19  C   UNL     1       7.946   5.627  19.768  0.00  0.00    +0.000 C 
ENDBRANCH  13  14
ENDBRANCH  12  13
ENDBRANCH   5  12
ENDBRANCH   1   9
BRANCH   2  20
ATOM     20  C   UNL     1       0.606  10.509  19.213  0.00  0.00    +0.000 A 
ATOM     21  C   UNL     1      -0.568  10.359  18.495  0.00  0.00    +0.000 A 
ATOM     22  C   UNL     1      -1.291  11.491  18.159  0.00  0.00    +0.000 A 
ATOM     23  C   UNL     1      -0.754  12.744  18.453  0.00  0.00    +0.000 A 
ATOM     24  C   UNL     1       0.462  12.799  19.124  0.00  0.00    +0.000 A 
ATOM     25  N   UNL     1       1.150  11.708  19.540  0.00  0.00    +0.000 NA
BRANCH  22  26
ATOM     26  C   UNL     1      -2.561  11.378  17.384  0.00  0.00    +0.000 C 
ATOM     27  O   UNL     1      -2.468  11.179  16.172  0.00  0.00    +0.000 OA
ATOM     28  N   UNL     1      -3.778  11.474  18.037  0.00  0.00    +0.000 N 
ATOM     29  C   UNL     1      -5.020  11.089  17.379  0.00  0.00    +0.000 C 
ATOM     30  C   UNL     1      -6.032  12.135  17.854  0.00  0.00    +0.000 C 
ATOM     31  C   UNL     1      -5.570  12.502  19.283  0.00  0.00    +0.000 C 
ATOM     32  C   UNL     1      -6.260  11.599  20.322  0.00  0.00    +0.000 C 
ATOM     33  C   UNL     1      -5.824  13.968  19.650  0.00  0.00    +0.000 C 
ATOM     34  C   UNL     1      -4.054  12.218  19.265  0.00  0.00    +0.000 C 
BRANCH  30  35
ATOM     35  O   UNL     1      -5.995  13.267  16.985  0.00  0.00    +0.000 OA
ATOM     36  H   UNL     1      -5.191  13.778  17.202  0.00  0.00    +0.000 HD
ENDBRANCH  30  35
ENDBRANCH  22  26
ENDBRANCH   2  20
TORSDOF 7
ENDMDL
MODEL 3
REMARK VINA RESULT:      -8.9      2.233      3.250
REMARK  Name = 
REMARK  11 active torsions:
REMARK  status: ('A' for Active; 'I' for Inactive)
REMARK    1  A    between atoms: C_1  and  C_2
REMARK    2  A    between atoms: C_2  and  C_3
REMARK    3  A    between atoms: C_2  and  C_10
REMARK    4  A    between atoms: C_3  and  C_4
REMARK    5  A    between atoms: N_8  and  C_9
REMARK    6  A    between atoms: C_14  and  N_15
REMARK    7  A    between atoms: C_16  and  C_18
REMARK    8  A    between atoms: C_20  and  C_21
REMARK    9  A    between atoms: C_25  and  O_26
REMARK   10  A    between atoms: C_27  and  C_28
REMARK   11  A    between atoms: C_27  and  C_29
REMARK                            x       y       z     vdW  Elec       q    Type
REMARK                         _______ _______ _______ _____ _____    ______ ____
ROOT
ATOM      1  N   UNL     1       0.540   7.648  21.204  0.00  0.00    +0.000 N 
ATOM      2  C   UNL     1       1.534   7.393  20.288  0.00  0.00    +0.000 C 
ATOM      3  O   UNL     1       2.203   8.229  19.683  0.00  0.00    +0.000 OA
ATOM      4  H   UNL     1       0.183   6.835  21.704  0.00  0.00    +0.000 HD
ENDROOT
BRANCH   1   9
ATOM      5  C   UNL     1      -0.541  11.193  20.845  0.00  0.00    +0.000 A 
ATOM      6  C   UNL     1      -0.973  11.467  22.150  0.00  0.00    +0.000 A 
ATOM      7  C   UNL     1      -0.878  10.500  23.146  0.00  0.00    +0.000 A 
ATOM      8  C   UNL     1      -0.374   9.238  22.851  0.00  0.00    +0.000 A 
ATOM      9  C   UNL     1       0.044   8.922  21.556  0.00  0.00    +0.000 A 
ATOM     10  C   UNL     1      -0.023   9.910  20.568  0.00  0.00    +0.000 A 
BRANCH   5  12
ATOM     11  C   UNL     1      -1.492  11.791  18.534  0.00  0.00    +0.000 C 
ATOM     12  C   UNL     1      -0.613  12.228  19.721  0.00  0.00    +0.000 C 
BRANCH  12  13
ATOM     13  C   UNL     1       0.817  12.598  19.261  0.00  0.00    +0.000 C 
BRANCH  13  14
ATOM     14  C   UNL     1       1.505  13.522  20.206  0.00  0.00    +0.000 A 
ATOM     15  N   UNL     1       2.142  13.184  21.308  0.00  0.00    +0.000 NA
ATOM     16  N   UNL     1       2.567  14.335  21.928  0.00  0.00    +0.000 NA
ATOM     17  C   UNL     1       2.191  15.349  21.184  0.00  0.00    +0.000 A 
ATOM     18  N   UNL     1       1.553  14.886  20.076  0.00  0.00    +0.000 N 
ATOM     19  C   UNL     1       1.045  15.680  18.991  0.00  0.00    +0.000 C 
ENDBRANCH  13  14
ENDBRANCH  12  13
ENDBRANCH   5  12
ENDBRANCH   1   9
BRANCH   2  20
ATOM     20  C   UNL     1       1.839   5.951  20.059  0.00  0.00    +0.000 A 
ATOM     21  C   UNL     1       2.808   5.646  19.119  0.00  0.00    +0.000 A 
ATOM     22  C   UNL     1       3.196   4.325  18.967  0.00  0.00    +0.000 A 
ATOM     23  C   UNL     1       2.517   3.339  19.684  0.00  0.00    +0.000 A 
ATOM     24  C   UNL     1       1.516   3.734  20.563  0.00  0.00    +0.000 A 
ATOM     25  N   UNL     1       1.173   5.024  20.793  0.00  0.00    +0.000 NA
BRANCH  22  26
ATOM     26  C   UNL     1       4.234   3.949  17.964  0.00  0.00    +0.000 C 
ATOM     27  O   UNL     1       4.115   2.858  17.408  0.00  0.00    +0.000 OA
ATOM     28  N   UNL     1       5.264   4.829  17.677  0.00  0.00    +0.000 N 
ATOM     29  C   UNL     1       6.124   4.630  16.517  0.00  0.00    +0.000 C 
ATOM     30  C   UNL     1       7.516   5.028  17.013  0.00  0.00    +0.000 C 
ATOM     31  C   UNL     1       7.254   6.139  18.056  0.00  0.00    +0.000 C 
ATOM     32  C   UNL     1       7.275   7.526  17.385  0.00  0.00    +0.000 C 
ATOM     33  C   UNL     1       8.253   6.133  19.219  0.00  0.00    +0.000 C 
ATOM     34  C   UNL     1       5.836   5.829  18.577  0.00  0.00    +0.000 C 
BRANCH  30  35
ATOM     35  O   UNL     1       8.157   3.897  17.603  0.00  0.00    +0.000 OA
ATOM     36  H   UNL     1       7.618   3.621  18.369  0.00  0.00    +0.000 HD
ENDBRANCH  30  35
ENDBRANCH  22  26
ENDBRANCH   2  20
TORSDOF 7
ENDMDL
MODEL 4
REMARK VINA RESULT:      -8.8      5.643      9.247
REMARK  Name = 
REMARK  11 active torsions:
REMARK  status: ('A' for Active; 'I' for Inactive)
REMARK    1  A    between atoms: C_1  and  C_2
REMARK    2  A    between atoms: C_2  and  C_3
REMARK    3  A    between atoms: C_2  and  C_10
REMARK    4  A    between atoms: C_3  and  C_4
REMARK    5  A    between atoms: N_8  and  C_9
REMARK    6  A    between atoms: C_14  and  N_15
REMARK    7  A    between atoms: C_16  and  C_18
REMARK    8  A    between atoms: C_20  and  C_21
REMARK    9  A    between atoms: C_25  and  O_26
REMARK   10  A    between atoms: C_27  and  C_28
REMARK   11  A    between atoms: C_27  and  C_29
REMARK                            x       y       z     vdW  Elec       q    Type
REMARK                         _______ _______ _______ _____ _____    ______ ____
ROOT
ATOM      1  N   UNL     1       8.008   9.219  17.903  0.00  0.00    +0.000 N 
ATOM      2  C   UNL     1       8.020   7.873  18.191  0.00  0.00    +0.000 C 
ATOM      3  O   UNL     1       8.698   7.316  19.051  0.00  0.00    +0.000 OA
ATOM      4  H   UNL     1       7.288   9.522  17.249  0.00  0.00    +0.000 HD
ENDROOT
BRANCH   1   9
ATOM      5  C   UNL     1       9.994  12.349  18.252  0.00  0.00    +0.000 A 
ATOM      6  C   UNL     1      10.453  12.220  19.571  0.00  0.00    +0.000 A 
ATOM      7  C   UNL     1      10.137  11.094  20.325  0.00  0.00    +0.000 A 
ATOM      8  C   UNL     1       9.337  10.092  19.785  0.00  0.00    +0.000 A 
ATOM      9  C   UNL     1       8.842  10.198  18.484  0.00  0.00    +0.000 A 
ATOM     10  C   UNL     1       9.193  11.316  17.720  0.00  0.00    +0.000 A 
BRANCH   5  12
ATOM     11  C   UNL     1      11.542  13.341  16.458  0.00  0.00    +0.000 C 
ATOM     12  C   UNL     1      10.329  13.560  17.381  0.00  0.00    +0.000 C 
BRANCH  12  13
ATOM     13  C   UNL     1      10.516  14.809  18.275  0.00  0.00    +0.000 C 
BRANCH  13  14
ATOM     14  C   UNL     1       9.256  15.583  18.455  0.00  0.00    +0.000 A 
ATOM     15  N   UNL     1       8.099  15.109  18.872  0.00  0.00    +0.000 NA
ATOM     16  N   UNL     1       7.177  16.128  18.826  0.00  0.00    +0.000 NA
ATOM     17  C   UNL     1       7.794  17.204  18.396  0.00  0.00    +0.000 A 
ATOM     18  N   UNL     1       9.107  16.918  18.184  0.00  0.00    +0.000 N 
ATOM     19  C   UNL     1      10.124  17.845  17.768  0.00  0.00    +0.000 C 
ENDBRANCH  13  14
ENDBRANCH  12  13
ENDBRANCH   5  12
ENDBRANCH   1   9
BRANCH   2  20
ATOM     20  C   UNL     1       7.071   7.040  17.397  0.00  0.00    +0.000 A 
ATOM     21  C   UNL     1       5.768   6.944  17.857  0.00  0.00    +0.000 A 
ATOM     22  C   UNL     1       4.837   6.276  17.081  0.00  0.00    +0.000 A 
ATOM     23  C   UNL     1       5.267   5.627  15.923  0.00  0.00    +0.000 A 
ATOM     24  C   UNL     1       6.606   5.729  15.570  0.00  0.00    +0.000 A 
ATOM     25  N   UNL     1       7.523   6.445  16.265  0.00  0.00    +0.000 NA
BRANCH  22  26
ATOM     26  C   UNL     1       3.422   6.145  17.538  0.00  0.00    +0.000 C 
ATOM     27  O   UNL     1       2.728   7.161  17.528  0.00  0.00    +0.000 OA
ATOM     28  N   UNL     1       2.937   4.909  17.930  0.00  0.00    +0.000 N 
ATOM     29  C   UNL     1       1.509   4.681  18.107  0.00  0.00    +0.000 C 
ATOM     30  C   UNL     1       1.426   3.775  19.338  0.00  0.00    +0.000 C 
ATOM     31  C   UNL     1       2.714   2.921  19.279  0.00  0.00    +0.000 C 
ATOM     32  C   UNL     1       2.462   1.615  18.502  0.00  0.00    +0.000 C 
ATOM     33  C   UNL     1       3.283   2.577  20.660  0.00  0.00    +0.000 C 
ATOM     34  C   UNL     1       3.710   3.809  18.504  0.00  0.00    +0.000 C 
BRANCH  30  35
ATOM     35  O   UNL     1       1.382   4.574  20.520  0.00  0.00    +0.000 OA
ATOM     36  H   UNL     1       1.496   5.505  20.249  0.00  0.00    +0.000 HD
ENDBRANCH  30  35
ENDBRANCH  22  26
ENDBRANCH   2  20
TORSDOF 7
ENDMDL
MODEL 5
REMARK VINA RESULT:      -8.8      1.886      2.886
REMARK  Name = 
REMARK  11 active torsions:
REMARK  status: ('A' for Active; 'I' for Inactive)
REMARK    1  A    between atoms: C_1  and  C_2
REMARK    2  A    between atoms: C_2  and  C_3
REMARK    3  A    between atoms: C_2  and  C_10
REMARK    4  A    between atoms: C_3  and  C_4
REMARK    5  A    between atoms: N_8  and  C_9
REMARK    6  A    between atoms: C_14  and  N_15
REMARK    7  A    between atoms: C_16  and  C_18
REMARK    8  A    between atoms: C_20  and  C_21
REMARK    9  A    between atoms: C_25  and  O_26
REMARK   10  A    between atoms: C_27  and  C_28
REMARK   11  A    between atoms: C_27  and  C_29
REMARK                            x       y       z     vdW  Elec       q    Type
REMARK                         _______ _______ _______ _____ _____    ______ ____
ROOT
ATOM      1  N   UNL     1       0.516   7.618  21.194  0.00  0.00    +0.000 N 
ATOM      2  C   UNL     1       1.535   7.364  20.305  0.00  0.00    +0.000 C 
ATOM      3  O   UNL     1       2.218   8.199  19.717  0.00  0.00    +0.000 OA
ATOM      4  H   UNL     1       0.147   6.805  21.685  0.00  0.00    +0.000 HD
ENDROOT
BRANCH   1   9
ATOM      5  C   UNL     1      -0.783  11.081  20.761  0.00  0.00    +0.000 A 
ATOM      6  C   UNL     1      -1.050  11.427  22.093  0.00  0.00    +0.000 A 
ATOM      7  C   UNL     1      -0.773  10.537  23.126  0.00  0.00    +0.000 A 
ATOM      8  C   UNL     1      -0.249   9.280  22.845  0.00  0.00    +0.000 A 
ATOM      9  C   UNL     1       0.007   8.891  21.529  0.00  0.00    +0.000 A 
ATOM     10  C   UNL     1      -0.242   9.804  20.498  0.00  0.00    +0.000 A 
BRANCH   5  12
ATOM     11  C   UNL     1      -2.033  11.461  18.548  0.00  0.00    +0.000 C 
ATOM     12  C   UNL     1      -1.057  12.031  19.594  0.00  0.00    +0.000 C 
BRANCH  12  13
ATOM     13  C   UNL     1       0.281  12.459  18.946  0.00  0.00    +0.000 C 
BRANCH  13  14
ATOM     14  C   UNL     1       0.471  13.937  18.939  0.00  0.00    +0.000 A 
ATOM     15  N   UNL     1      -0.454  14.846  19.170  0.00  0.00    +0.000 NA
ATOM     16  N   UNL     1       0.111  16.087  18.994  0.00  0.00    +0.000 NA
ATOM     17  C   UNL     1       1.371  15.908  18.673  0.00  0.00    +0.000 A 
ATOM     18  N   UNL     1       1.650  14.577  18.661  0.00  0.00    +0.000 N 
ATOM     19  C   UNL     1       2.934  13.978  18.414  0.00  0.00    +0.000 C 
ENDBRANCH  13  14
ENDBRANCH  12  13
ENDBRANCH   5  12
ENDBRANCH   1   9
BRANCH   2  20
ATOM     20  C   UNL     1       1.850   5.921  20.088  0.00  0.00    +0.000 A 
ATOM     21  C   UNL     1       2.808   5.614  19.138  0.00  0.00    +0.000 A 
ATOM     22  C   UNL     1       3.206   4.296  18.997  0.00  0.00    +0.000 A 
ATOM     23  C   UNL     1       2.546   3.311  19.734  0.00  0.00    +0.000 A 
ATOM     24  C   UNL     1       1.554   3.707  20.622  0.00  0.00    +0.000 A 
ATOM     25  N   UNL     1       1.202   4.997  20.842  0.00  0.00    +0.000 NA
BRANCH  22  26
ATOM     26  C   UNL     1       4.234   3.917  17.984  0.00  0.00    +0.000 C 
ATOM     27  O   UNL     1       4.112   2.822  17.436  0.00  0.00    +0.000 OA
ATOM     28  N   UNL     1       5.258   4.798  17.679  0.00  0.00    +0.000 N 
ATOM     29  C   UNL     1       6.104   4.596  16.510  0.00  0.00    +0.000 C 
ATOM     30  C   UNL     1       7.501   5.002  16.988  0.00  0.00    +0.000 C 
ATOM     31  C   UNL     1       7.247   6.118  18.027  0.00  0.00    +0.000 C 
ATOM     32  C   UNL     1       7.256   7.500  17.349  0.00  0.00    +0.000 C 
ATOM     33  C   UNL     1       8.260   6.122  19.178  0.00  0.00    +0.000 C 
ATOM     34  C   UNL     1       5.836   5.806  18.567  0.00  0.00    +0.000 C 
BRANCH  30  35
ATOM     35  O   UNL     1       8.152   3.876  17.576  0.00  0.00    +0.000 OA
ATOM     36  H   UNL     1       8.532   4.168  18.427  0.00  0.00    +0.000 HD
ENDBRANCH  30  35
ENDBRANCH  22  26
ENDBRANCH   2  20
TORSDOF 7
ENDMDL
MODEL 6
REMARK VINA RESULT:      -8.7      1.672      2.278
REMARK  Name = 
REMARK  11 active torsions:
REMARK  status: ('A' for Active; 'I' for Inactive)
REMARK    1  A    between atoms: C_1  and  C_2
REMARK    2  A    between atoms: C_2  and  C_3
REMARK    3  A    between atoms: C_2  and  C_10
REMARK    4  A    between atoms: C_3  and  C_4
REMARK    5  A    between atoms: N_8  and  C_9
REMARK    6  A    between atoms: C_14  and  N_15
REMARK    7  A    between atoms: C_16  and  C_18
REMARK    8  A    between atoms: C_20  and  C_21
REMARK    9  A    between atoms: C_25  and  O_26
REMARK   10  A    between atoms: C_27  and  C_28
REMARK   11  A    between atoms: C_27  and  C_29
REMARK                            x       y       z     vdW  Elec       q    Type
REMARK                         _______ _______ _______ _____ _____    ______ ____
ROOT
ATOM      1  N   UNL     1       2.002   7.275  20.700  0.00  0.00    +0.000 N 
ATOM      2  C   UNL     1       1.462   6.014  20.595  0.00  0.00    +0.000 C 
ATOM      3  O   UNL     1       0.268   5.725  20.631  0.00  0.00    +0.000 OA
ATOM      4  H   UNL     1       3.002   7.343  20.516  0.00  0.00    +0.000 HD
ENDROOT
BRANCH   1   9
ATOM      5  C   UNL     1       0.379  10.572  20.097  0.00  0.00    +0.000 A 
ATOM      6  C   UNL     1      -0.163  10.830  21.364  0.00  0.00    +0.000 A 
ATOM      7  C   UNL     1       0.034   9.941  22.415  0.00  0.00    +0.000 A 
ATOM      8  C   UNL     1       0.752   8.767  22.213  0.00  0.00    +0.000 A 
ATOM      9  C   UNL     1       1.286   8.464  20.958  0.00  0.00    +0.000 A 
ATOM     10  C   UNL     1       1.113   9.380  19.915  0.00  0.00    +0.000 A 
BRANCH   5  12
ATOM     11  C   UNL     1       1.413  12.447  18.677  0.00  0.00    +0.000 C 
ATOM     12  C   UNL     1       0.201  11.527  18.916  0.00  0.00    +0.000 C 
BRANCH  12  13
ATOM     13  C   UNL     1      -1.101  12.344  19.098  0.00  0.00    +0.000 C 
BRANCH  13  14
ATOM     14  C   UNL     1      -2.273  11.716  18.427  0.00  0.00    +0.000 A 
ATOM     15  N   UNL     1      -2.245  10.959  17.349  0.00  0.00    +0.000 NA
ATOM     16  N   UNL     1      -3.541  10.645  17.012  0.00  0.00    +0.000 NA
ATOM     17  C   UNL     1      -4.330  11.205  17.900  0.00  0.00    +0.000 A 
ATOM     18  N   UNL     1      -3.577  11.856  18.826  0.00  0.00    +0.000 N 
ATOM     19  C   UNL     1      -4.066  12.544  19.991  0.00  0.00    +0.000 C 
ENDBRANCH  13  14
ENDBRANCH  12  13
ENDBRANCH   5  12
ENDBRANCH   1   9
BRANCH   2  20
ATOM     20  C   UNL     1       2.444   4.914  20.369  0.00  0.00    +0.000 A 
ATOM     21  C   UNL     1       3.676   5.259  19.840  0.00  0.00    +0.000 A 
ATOM     22  C   UNL     1       4.650   4.281  19.728  0.00  0.00    +0.000 A 
ATOM     23  C   UNL     1       4.318   2.963  20.043  0.00  0.00    +0.000 A 
ATOM     24  C   UNL     1       3.036   2.700  20.511  0.00  0.00    +0.000 A 
ATOM     25  N   UNL     1       2.090   3.650  20.710  0.00  0.00    +0.000 NA
BRANCH  22  26
ATOM     26  C   UNL     1       5.991   4.607  19.162  0.00  0.00    +0.000 C 
ATOM     27  O   UNL     1       6.869   4.955  19.951  0.00  0.00    +0.000 OA
ATOM     28  N   UNL     1       6.210   4.488  17.800  0.00  0.00    +0.000 N 
ATOM     29  C   UNL     1       7.559   4.517  17.248  0.00  0.00    +0.000 C 
ATOM     30  C   UNL     1       7.412   5.313  15.949  0.00  0.00    +0.000 C 
ATOM     31  C   UNL     1       5.987   4.982  15.449  0.00  0.00    +0.000 C 
ATOM     32  C   UNL     1       6.014   3.764  14.508  0.00  0.00    +0.000 C 
ATOM     33  C   UNL     1       5.305   6.152  14.731  0.00  0.00    +0.000 C 
ATOM     34  C   UNL     1       5.216   4.633  16.739  0.00  0.00    +0.000 C 
BRANCH  30  35
ATOM     35  O   UNL     1       7.561   6.707  16.221  0.00  0.00    +0.000 OA
ATOM     36  H   UNL     1       6.684   7.122  16.114  0.00  0.00    +0.000 HD
ENDBRANCH  30  35
ENDBRANCH  22  26
ENDBRANCH   2  20
TORSDOF 7
ENDMDL
MODEL 7
REMARK VINA RESULT:      -8.7      3.099      9.564
REMARK  Name = 
REMARK  11 active torsions:
REMARK  status: ('A' for Active; 'I' for Inactive)
REMARK    1  A    between atoms: C_1  and  C_2
REMARK    2  A    between atoms: C_2  and  C_3
REMARK    3  A    between atoms: C_2  and  C_10
REMARK    4  A    between atoms: C_3  and  C_4
REMARK    5  A    between atoms: N_8  and  C_9
REMARK    6  A    between atoms: C_14  and  N_15
REMARK    7  A    between atoms: C_16  and  C_18
REMARK    8  A    between atoms: C_20  and  C_21
REMARK    9  A    between atoms: C_25  and  O_26
REMARK   10  A    between atoms: C_27  and  C_28
REMARK   11  A    between atoms: C_27  and  C_29
REMARK                            x       y       z     vdW  Elec       q    Type
REMARK                         _______ _______ _______ _____ _____    ______ ____
ROOT
ATOM      1  N   UNL     1       2.076   6.363  18.956  0.00  0.00    +0.000 N 
ATOM      2  C   UNL     1       2.273   7.700  18.696  0.00  0.00    +0.000 C 
ATOM      3  O   UNL     1       2.878   8.177  17.739  0.00  0.00    +0.000 OA
ATOM      4  H   UNL     1       1.439   6.153  19.723  0.00  0.00    +0.000 HD
ENDROOT
BRANCH   1   9
ATOM      5  C   UNL     1       4.408   4.444  16.778  0.00  0.00    +0.000 A 
ATOM      6  C   UNL     1       3.774   3.194  16.756  0.00  0.00    +0.000 A 
ATOM      7  C   UNL     1       2.572   2.997  17.427  0.00  0.00    +0.000 A 
ATOM      8  C   UNL     1       1.996   4.035  18.151  0.00  0.00    +0.000 A 
ATOM      9  C   UNL     1       2.611   5.287  18.216  0.00  0.00    +0.000 A 
ATOM     10  C   UNL     1       3.802   5.488  17.510  0.00  0.00    +0.000 A 
BRANCH   5  12
ATOM     11  C   UNL     1       5.987   3.743  14.876  0.00  0.00    +0.000 C 
ATOM     12  C   UNL     1       5.723   4.712  16.044  0.00  0.00    +0.000 C 
BRANCH  12  13
ATOM     13  C   UNL     1       6.894   4.712  17.055  0.00  0.00    +0.000 C 
BRANCH  13  14
ATOM     14  C   UNL     1       7.324   6.085  17.439  0.00  0.00    +0.000 A 
ATOM     15  N   UNL     1       7.262   7.164  16.685  0.00  0.00    +0.000 NA
ATOM     16  N   UNL     1       7.825   8.207  17.382  0.00  0.00    +0.000 NA
ATOM     17  C   UNL     1       8.206   7.745  18.551  0.00  0.00    +0.000 A 
ATOM     18  N   UNL     1       7.879   6.428  18.644  0.00  0.00    +0.000 N 
ATOM     19  C   UNL     1       8.077   5.581  19.789  0.00  0.00    +0.000 C 
ENDBRANCH  13  14
ENDBRANCH  12  13
ENDBRANCH   5  12
ENDBRANCH   1   9
BRANCH   2  20
ATOM     20  C   UNL     1       1.637   8.640  19.664  0.00  0.00    +0.000 A 
ATOM     21  C   UNL     1       1.260   9.885  19.190  0.00  0.00    +0.000 A 
ATOM     22  C   UNL     1       0.564  10.735  20.032  0.00  0.00    +0.000 A 
ATOM     23  C   UNL     1       0.368  10.354  21.360  0.00  0.00    +0.000 A 
ATOM     24  C   UNL     1       0.834   9.109  21.764  0.00  0.00    +0.000 A 
ATOM     25  N   UNL     1       1.444   8.222  20.941  0.00  0.00    +0.000 NA
BRANCH  22  26
ATOM     26  C   UNL     1       0.140  12.087  19.565  0.00  0.00    +0.000 C 
ATOM     27  O   UNL     1      -0.750  12.139  18.716  0.00  0.00    +0.000 OA
ATOM     28  N   UNL     1       0.730  13.218  20.103  0.00  0.00    +0.000 N 
ATOM     29  C   UNL     1       0.157  14.541  19.891  0.00  0.00    +0.000 C 
ATOM     30  C   UNL     1       1.375  15.448  19.701  0.00  0.00    +0.000 C 
ATOM     31  C   UNL     1       2.473  14.814  20.587  0.00  0.00    +0.000 C 
ATOM     32  C   UNL     1       2.444  15.422  22.001  0.00  0.00    +0.000 C 
ATOM     33  C   UNL     1       3.885  14.962  20.009  0.00  0.00    +0.000 C 
ATOM     34  C   UNL     1       2.082  13.322  20.647  0.00  0.00    +0.000 C 
BRANCH  30  35
ATOM     35  O   UNL     1       1.754  15.460  18.325  0.00  0.00    +0.000 OA
ATOM     36  H   UNL     1       2.246  14.635  18.149  0.00  0.00    +0.000 HD
ENDBRANCH  30  35
ENDBRANCH  22  26
ENDBRANCH   2  20
TORSDOF 7
ENDMDL
MODEL 8
REMARK VINA RESULT:      -8.7      3.082      9.743
REMARK  Name = 
REMARK  11 active torsions:
REMARK  status: ('A' for Active; 'I' for Inactive)
REMARK    1  A    between atoms: C_1  and  C_2
REMARK    2  A    between atoms: C_2  and  C_3
REMARK    3  A    between atoms: C_2  and  C_10
REMARK    4  A    between atoms: C_3  and  C_4
REMARK    5  A    between atoms: N_8  and  C_9
REMARK    6  A    between atoms: C_14  and  N_15
REMARK    7  A    between atoms: C_16  and  C_18
REMARK    8  A    between atoms: C_20  and  C_21
REMARK    9  A    between atoms: C_25  and  O_26
REMARK   10  A    between atoms: C_27  and  C_28
REMARK   11  A    between atoms: C_27  and  C_29
REMARK                            x       y       z     vdW  Elec       q    Type
REMARK                         _______ _______ _______ _____ _____    ______ ____
ROOT
ATOM      1  N   UNL     1       2.240   6.579  20.102  0.00  0.00    +0.000 N 
ATOM      2  C   UNL     1       1.967   7.847  19.643  0.00  0.00    +0.000 C 
ATOM      3  O   UNL     1       2.237   8.296  18.532  0.00  0.00    +0.000 OA
ATOM      4  H   UNL     1       1.827   6.338  21.002  0.00  0.00    +0.000 HD
ENDROOT
BRANCH   1   9
ATOM      5  C   UNL     1       4.585   5.036  17.656  0.00  0.00    +0.000 A 
ATOM      6  C   UNL     1       4.470   3.682  18.003  0.00  0.00    +0.000 A 
ATOM      7  C   UNL     1       3.602   3.280  19.014  0.00  0.00    +0.000 A 
ATOM      8  C   UNL     1       2.854   4.224  19.710  0.00  0.00    +0.000 A 
ATOM      9  C   UNL     1       2.960   5.583  19.407  0.00  0.00    +0.000 A 
ATOM     10  C   UNL     1       3.809   5.976  18.367  0.00  0.00    +0.000 A 
BRANCH   5  12
ATOM     11  C   UNL     1       4.989   6.763  15.797  0.00  0.00    +0.000 C 
ATOM     12  C   UNL     1       5.514   5.522  16.543  0.00  0.00    +0.000 C 
BRANCH  12  13
ATOM     13  C   UNL     1       5.811   4.359  15.566  0.00  0.00    +0.000 C 
BRANCH  13  14
ATOM     14  C   UNL     1       6.758   4.745  14.483  0.00  0.00    +0.000 A 
ATOM     15  N   UNL     1       7.804   5.537  14.603  0.00  0.00    +0.000 NA
ATOM     16  N   UNL     1       8.367   5.695  13.358  0.00  0.00    +0.000 NA
ATOM     17  C   UNL     1       7.660   4.985  12.509  0.00  0.00    +0.000 A 
ATOM     18  N   UNL     1       6.663   4.344  13.176  0.00  0.00    +0.000 N 
ATOM     19  C   UNL     1       5.713   3.426  12.609  0.00  0.00    +0.000 C 
ENDBRANCH  13  14
ENDBRANCH  12  13
ENDBRANCH   5  12
ENDBRANCH   1   9
BRANCH   2  20
ATOM     20  C   UNL     1       1.229   8.727  20.596  0.00  0.00    +0.000 A 
ATOM     21  C   UNL     1       0.586   9.835  20.072  0.00  0.00    +0.000 A 
ATOM     22  C   UNL     1      -0.202  10.604  20.911  0.00  0.00    +0.000 A 
ATOM     23  C   UNL     1      -0.229  10.303  22.273  0.00  0.00    +0.000 A 
ATOM     24  C   UNL     1       0.497   9.206  22.719  0.00  0.00    +0.000 A 
ATOM     25  N   UNL     1       1.209   8.385  21.909  0.00  0.00    +0.000 NA
BRANCH  22  26
ATOM     26  C   UNL     1      -0.911  11.810  20.391  0.00  0.00    +0.000 C 
ATOM     27  O   UNL     1      -1.928  11.624  19.723  0.00  0.00    +0.000 OA
ATOM     28  N   UNL     1      -0.430  13.073  20.688  0.00  0.00    +0.000 N 
ATOM     29  C   UNL     1      -1.236  14.264  20.448  0.00  0.00    +0.000 C 
ATOM     30  C   UNL     1      -0.230  15.299  19.940  0.00  0.00    +0.000 C 
ATOM     31  C   UNL     1       1.089  14.948  20.666  0.00  0.00    +0.000 C 
ATOM     32  C   UNL     1       1.201  15.728  21.989  0.00  0.00    +0.000 C 
ATOM     33  C   UNL     1       2.341  15.215  19.823  0.00  0.00    +0.000 C 
ATOM     34  C   UNL     1       0.960  13.438  20.956  0.00  0.00    +0.000 C 
BRANCH  30  35
ATOM     35  O   UNL     1      -0.095  15.181  18.523  0.00  0.00    +0.000 OA
ATOM     36  H   UNL     1      -0.068  14.229  18.309  0.00  0.00    +0.000 HD
ENDBRANCH  30  35
ENDBRANCH  22  26
ENDBRANCH   2  20
TORSDOF 7
ENDMDL
MODEL 9
REMARK VINA RESULT:      -8.6      2.267      3.374
REMARK  Name = 
REMARK  11 active torsions:
REMARK  status: ('A' for Active; 'I' for Inactive)
REMARK    1  A    between atoms: C_1  and  C_2
REMARK    2  A    between atoms: C_2  and  C_3
REMARK    3  A    between atoms: C_2  and  C_10
REMARK    4  A    between atoms: C_3  and  C_4
REMARK    5  A    between atoms: N_8  and  C_9
REMARK    6  A    between atoms: C_14  and  N_15
REMARK    7  A    between atoms: C_16  and  C_18
REMARK    8  A    between atoms: C_20  and  C_21
REMARK    9  A    between atoms: C_25  and  O_26
REMARK   10  A    between atoms: C_27  and  C_28
REMARK   11  A    between atoms: C_27  and  C_29
REMARK                            x       y       z     vdW  Elec       q    Type
REMARK                         _______ _______ _______ _____ _____    ______ ____
ROOT
ATOM      1  N   UNL     1       0.842   8.781  19.281  0.00  0.00    +0.000 N 
ATOM      2  C   UNL     1       1.384   8.141  20.372  0.00  0.00    +0.000 C 
ATOM      3  O   UNL     1       1.514   8.605  21.502  0.00  0.00    +0.000 OA
ATOM      4  H   UNL     1       0.694   8.199  18.458  0.00  0.00    +0.000 HD
ENDROOT
BRANCH   1   9
ATOM      5  C   UNL     1      -1.435  11.723  19.416  0.00  0.00    +0.000 A 
ATOM      6  C   UNL     1      -0.523  12.769  19.217  0.00  0.00    +0.000 A 
ATOM      7  C   UNL     1       0.827  12.502  19.007  0.00  0.00    +0.000 A 
ATOM      8  C   UNL     1       1.290  11.190  19.018  0.00  0.00    +0.000 A 
ATOM      9  C   UNL     1       0.414  10.125  19.238  0.00  0.00    +0.000 A 
ATOM     10  C   UNL     1      -0.947  10.399  19.414  0.00  0.00    +0.000 A 
BRANCH   5  12
ATOM     11  C   UNL     1      -3.737  12.072  18.329  0.00  0.00    +0.000 C 
ATOM     12  C   UNL     1      -2.929  11.968  19.636  0.00  0.00    +0.000 C 
BRANCH  12  13
ATOM     13  C   UNL     1      -3.127  13.219  20.525  0.00  0.00    +0.000 C 
BRANCH  13  14
ATOM     14  C   UNL     1      -3.614  12.883  21.892  0.00  0.00    +0.000 A 
ATOM     15  N   UNL     1      -4.830  12.493  22.216  0.00  0.00    +0.000 NA
ATOM     16  N   UNL     1      -4.886  12.357  23.584  0.00  0.00    +0.000 NA
ATOM     17  C   UNL     1      -3.700  12.654  24.062  0.00  0.00    +0.000 A 
ATOM     18  N   UNL     1      -2.861  12.955  23.035  0.00  0.00    +0.000 N 
ATOM     19  C   UNL     1      -1.463  13.274  23.143  0.00  0.00    +0.000 C 
ENDBRANCH  13  14
ENDBRANCH  12  13
ENDBRANCH   5  12
ENDBRANCH   1   9
BRANCH   2  20
ATOM     20  C   UNL     1       1.805   6.728  20.140  0.00  0.00    +0.000 A 
ATOM     21  C   UNL     1       2.613   6.475  19.046  0.00  0.00    +0.000 A 
ATOM     22  C   UNL     1       3.116   5.197  18.870  0.00  0.00    +0.000 A 
ATOM     23  C   UNL     1       2.698   4.186  19.736  0.00  0.00    +0.000 A 
ATOM     24  C   UNL     1       1.837   4.521  20.773  0.00  0.00    +0.000 A 
ATOM     25  N   UNL     1       1.396   5.779  21.019  0.00  0.00    +0.000 NA
BRANCH  22  26
ATOM     26  C   UNL     1       3.988   4.878  17.703  0.00  0.00    +0.000 C 
ATOM     27  O   UNL     1       3.591   4.017  16.918  0.00  0.00    +0.000 OA
ATOM     28  N   UNL     1       5.180   5.560  17.527  0.00  0.00    +0.000 N 
ATOM     29  C   UNL     1       5.913   5.487  16.270  0.00  0.00    +0.000 C 
ATOM     30  C   UNL     1       7.382   5.438  16.697  0.00  0.00    +0.000 C 
ATOM     31  C   UNL     1       7.437   6.273  17.996  0.00  0.00    +0.000 C 
ATOM     32  C   UNL     1       7.748   7.747  17.678  0.00  0.00    +0.000 C 
ATOM     33  C   UNL     1       8.461   5.756  19.013  0.00  0.00    +0.000 C 
ATOM     34  C   UNL     1       6.012   6.150  18.575  0.00  0.00    +0.000 C 
BRANCH  30  35
ATOM     35  O   UNL     1       7.768   4.083  16.929  0.00  0.00    +0.000 OA
ATOM     36  H   UNL     1       7.327   3.788  17.748  0.00  0.00    +0.000 HD
ENDBRANCH  30  35
ENDBRANCH  22  26
ENDBRANCH   2  20
TORSDOF 7
ENDMDL
