MODEL 1
REMARK VINA RESULT:      -9.6      0.000      0.000
REMARK  Name = 
REMARK  9 active torsions:
REMARK  status: ('A' for Active; 'I' for Inactive)
REMARK    1  A    between atoms: C_1  and  C_2
REMARK    2  A    between atoms: C_2  and  C_3
REMARK    3  A    between atoms: C_2  and  C_10
REMARK    4  A    between atoms: C_3  and  C_4
REMARK    5  A    between atoms: N_8  and  C_9
REMARK    6  A    between atoms: C_14  and  C_15
REMARK    7  A    between atoms: C_19  and  N_20
REMARK    8  A    between atoms: C_23  and  O_24
REMARK    9  A    between atoms: C_27  and  C_28
REMARK                            x       y       z     vdW  Elec       q    Type
REMARK                         _______ _______ _______ _____ _____    ______ ____
ROOT
ATOM      1  C   UNL     1       2.170   8.051  19.086  0.00  0.00    +0.000 A 
ATOM      2  N   UNL     1       2.930   8.489  18.035  0.00  0.00    +0.000 N 
ATOM      3  N   UNL     1       3.749   7.576  17.494  0.00  0.00    +0.000 NA
ATOM      4  C   UNL     1       3.539   6.448  18.207  0.00  0.00    +0.000 A 
ATOM      5  C   UNL     1       4.124   5.154  18.057  0.00  0.00    +0.000 A 
ATOM      6  C   UNL     1       3.608   4.260  19.024  0.00  0.00    +0.000 A 
ATOM      7  C   UNL     1       2.648   4.622  20.015  0.00  0.00    +0.000 A 
ATOM      8  N   UNL     1       2.086   5.866  20.146  0.00  0.00    +0.000 NA
ATOM      9  C   UNL     1       2.557   6.738  19.227  0.00  0.00    +0.000 A 
ATOM     10  H   UNL     1       2.916   9.413  17.617  0.00  0.00    +0.000 HD
ENDROOT
BRANCH   1  15
ATOM     11  C   UNL     1      -0.421  10.748  19.676  0.00  0.00    +0.000 A 
ATOM     12  C   UNL     1      -0.719  10.516  21.026  0.00  0.00    +0.000 A 
ATOM     13  C   UNL     1      -0.084   9.497  21.737  0.00  0.00    +0.000 A 
ATOM     14  C   UNL     1       0.854   8.679  21.108  0.00  0.00    +0.000 A 
ATOM     15  C   UNL     1       1.180   8.883  19.763  0.00  0.00    +0.000 A 
ATOM     16  C   UNL     1       0.545   9.926  19.070  0.00  0.00    +0.000 A 
BRANCH  11  18
ATOM     17  C   UNL     1      -0.904  13.254  19.418  0.00  0.00    +0.000 C 
ATOM     18  C   UNL     1      -1.087  11.842  18.840  0.00  0.00    +0.000 C 
BRANCH  18  19
ATOM     19  C   UNL     1      -2.582  11.503  18.617  0.00  0.00    +0.000 C 
BRANCH  19  20
ATOM     20  C   UNL     1      -2.890  11.009  17.245  0.00  0.00    +0.000 A 
ATOM     21  N   UNL     1      -2.083  10.291  16.489  0.00  0.00    +0.000 NA
ATOM     22  N   UNL     1      -2.708  10.054  15.290  0.00  0.00    +0.000 NA
ATOM     23  C   UNL     1      -3.884  10.636  15.334  0.00  0.00    +0.000 A 
ATOM     24  N   UNL     1      -4.046  11.239  16.545  0.00  0.00    +0.000 N 
ATOM     25  C   UNL     1      -5.210  11.967  16.974  0.00  0.00    +0.000 C 
ENDBRANCH  19  20
ENDBRANCH  18  19
ENDBRANCH  11  18
ENDBRANCH   1  15
BRANCH   5  26
ATOM     26  N   UNL     1       5.040   4.782  17.093  0.00  0.00    +0.000 N 
ATOM     27  C   UNL     1       4.681   3.802  16.063  0.00  0.00    +0.000 C 
ATOM     28  C   UNL     1       5.847   3.830  15.085  0.00  0.00    +0.000 C 
ATOM     29  C   UNL     1       6.366   5.256  15.191  0.00  0.00    +0.000 C 
ATOM     30  C   UNL     1       6.177   5.597  16.676  0.00  0.00    +0.000 C 
BRANCH  29  31
ATOM     31  O   UNL     1       7.717   5.346  14.765  0.00  0.00    +0.000 OA
ATOM     32  H   UNL     1       7.827   6.185  14.285  0.00  0.00    +0.000 HD
ENDBRANCH  29  31
ENDBRANCH   5  26
BRANCH   7  33
ATOM     33  C   UNL     1       2.186   3.554  21.005  0.00  0.00    +0.000 C 
ATOM     34  F   UNL     1       0.845   3.297  20.948  0.00  0.00    +0.000 F 
ATOM     35  F   UNL     1       2.794   2.349  20.815  0.00  0.00    +0.000 F 
ATOM     36  F   UNL     1       2.433   3.897  22.304  0.00  0.00    +0.000 F 
ENDBRANCH   7  33
TORSDOF 7
ENDMDL
MODEL 2
REMARK VINA RESULT:      -9.3      0.624      1.147
REMARK  Name = 
REMARK  9 active torsions:
REMARK  status: ('A' for Active; 'I' for Inactive)
REMARK    1  A    between atoms: C_1  and  C_2
REMARK    2  A    between atoms: C_2  and  C_3
REMARK    3  A    between atoms: C_2  and  C_10
REMARK    4  A    between atoms: C_3  and  C_4
REMARK    5  A    between atoms: N_8  and  C_9
REMARK    6  A    between atoms: C_14  and  C_15
REMARK    7  A    between atoms: C_19  and  N_20
REMARK    8  A    between atoms: C_23  and  O_24
REMARK    9  A    between atoms: C_27  and  C_28
REMARK                            x       y       z     vdW  Elec       q    Type
REMARK                         _______ _______ _______ _____ _____    ______ ____
ROOT
ATOM      1  C   UNL     1       2.119   8.135  19.091  0.00  0.00    +0.000 A 
ATOM      2  N   UNL     1       2.791   8.673  18.026  0.00  0.00    +0.000 N 
ATOM      3  N   UNL     1       3.623   7.839  17.387  0.00  0.00    +0.000 NA
ATOM      4  C   UNL     1       3.516   6.663  18.043  0.00  0.00    +0.000 A 
ATOM      5  C   UNL     1       4.159   5.415  17.785  0.00  0.00    +0.000 A 
ATOM      6  C   UNL     1       3.750   4.440  18.725  0.00  0.00    +0.000 A 
ATOM      7  C   UNL     1       2.832   4.692  19.788  0.00  0.00    +0.000 A 
ATOM      8  N   UNL     1       2.214   5.893  20.023  0.00  0.00    +0.000 NA
ATOM      9  C   UNL     1       2.583   6.840  19.132  0.00  0.00    +0.000 A 
ATOM     10  H   UNL     1       2.703   9.616  17.664  0.00  0.00    +0.000 HD
ENDROOT
BRANCH   1  15
ATOM     11  C   UNL     1      -0.581  10.636  19.980  0.00  0.00    +0.000 A 
ATOM     12  C   UNL     1      -0.775  10.322  21.332  0.00  0.00    +0.000 A 
ATOM     13  C   UNL     1      -0.036   9.311  21.949  0.00  0.00    +0.000 A 
ATOM     14  C   UNL     1       0.905   8.584  21.221  0.00  0.00    +0.000 A 
ATOM     15  C   UNL     1       1.129   8.872  19.870  0.00  0.00    +0.000 A 
ATOM     16  C   UNL     1       0.389   9.904  19.272  0.00  0.00    +0.000 A 
BRANCH  11  18
ATOM     17  C   UNL     1      -1.426  13.058  20.006  0.00  0.00    +0.000 C 
ATOM     18  C   UNL     1      -1.365  11.724  19.244  0.00  0.00    +0.000 C 
BRANCH  18  19
ATOM     19  C   UNL     1      -2.779  11.207  18.880  0.00  0.00    +0.000 C 
BRANCH  19  20
ATOM     20  C   UNL     1      -2.953  10.898  17.432  0.00  0.00    +0.000 A 
ATOM     21  N   UNL     1      -2.097  10.235  16.680  0.00  0.00    +0.000 NA
ATOM     22  N   UNL     1      -2.594  10.177  15.402  0.00  0.00    +0.000 NA
ATOM     23  C   UNL     1      -3.744  10.809  15.396  0.00  0.00    +0.000 A 
ATOM     24  N   UNL     1      -4.015  11.270  16.650  0.00  0.00    +0.000 N 
ATOM     25  C   UNL     1      -5.189  12.001  17.043  0.00  0.00    +0.000 C 
ENDBRANCH  19  20
ENDBRANCH  18  19
ENDBRANCH  11  18
ENDBRANCH   1  15
BRANCH   5  26
ATOM     26  N   UNL     1       5.034   5.148  16.750  0.00  0.00    +0.000 N 
ATOM     27  C   UNL     1       6.472   5.384  16.911  0.00  0.00    +0.000 C 
ATOM     28  C   UNL     1       7.102   4.771  15.668  0.00  0.00    +0.000 C 
ATOM     29  C   UNL     1       6.152   3.640  15.309  0.00  0.00    +0.000 C 
ATOM     30  C   UNL     1       4.769   4.205  15.668  0.00  0.00    +0.000 C 
BRANCH  29  31
ATOM     31  O   UNL     1       6.269   3.283  13.940  0.00  0.00    +0.000 OA
ATOM     32  H   UNL     1       6.080   2.332  13.859  0.00  0.00    +0.000 HD
ENDBRANCH  29  31
ENDBRANCH   5  26
BRANCH   7  33
ATOM     33  C   UNL     1       2.487   3.546  20.738  0.00  0.00    +0.000 C 
ATOM     34  F   UNL     1       3.494   2.634  20.887  0.00  0.00    +0.000 F 
ATOM     35  F   UNL     1       2.190   3.968  22.000  0.00  0.00    +0.000 F 
ATOM     36  F   UNL     1       1.404   2.824  20.321  0.00  0.00    +0.000 F 
ENDBRANCH   7  33
TORSDOF 7
ENDMDL
MODEL 3
REMARK VINA RESULT:      -9.2      0.848      1.264
REMARK  Name = 
REMARK  9 active torsions:
REMARK  status: ('A' for Active; 'I' for Inactive)
REMARK    1  A    between atoms: C_1  and  C_2
REMARK    2  A    between atoms: C_2  and  C_3
REMARK    3  A    between atoms: C_2  and  C_10
REMARK    4  A    between atoms: C_3  and  C_4
REMARK    5  A    between atoms: N_8  and  C_9
REMARK    6  A    between atoms: C_14  and  C_15
REMARK    7  A    between atoms: C_19  and  N_20
REMARK    8  A    between atoms: C_23  and  O_24
REMARK    9  A    between atoms: C_27  and  C_28
REMARK                            x       y       z     vdW  Elec       q    Type
REMARK                         _______ _______ _______ _____ _____    ______ ____
ROOT
ATOM      1  C   UNL     1       2.202   7.999  19.070  0.00  0.00    +0.000 A 
ATOM      2  N   UNL     1       2.973   8.443  18.029  0.00  0.00    +0.000 N 
ATOM      3  N   UNL     1       3.799   7.533  17.494  0.00  0.00    +0.000 NA
ATOM      4  C   UNL     1       3.583   6.402  18.201  0.00  0.00    +0.000 A 
ATOM      5  C   UNL     1       4.173   5.110  18.054  0.00  0.00    +0.000 A 
ATOM      6  C   UNL     1       3.648   4.212  19.012  0.00  0.00    +0.000 A 
ATOM      7  C   UNL     1       2.675   4.568  19.993  0.00  0.00    +0.000 A 
ATOM      8  N   UNL     1       2.110   5.811  20.122  0.00  0.00    +0.000 NA
ATOM      9  C   UNL     1       2.590   6.687  19.211  0.00  0.00    +0.000 A 
ATOM     10  H   UNL     1       2.962   9.367  17.614  0.00  0.00    +0.000 HD
ENDROOT
BRANCH   1  15
ATOM     11  C   UNL     1      -0.390  10.699  19.644  0.00  0.00    +0.000 A 
ATOM     12  C   UNL     1      -0.713  10.454  20.985  0.00  0.00    +0.000 A 
ATOM     13  C   UNL     1      -0.093   9.424  21.697  0.00  0.00    +0.000 A 
ATOM     14  C   UNL     1       0.852   8.611  21.076  0.00  0.00    +0.000 A 
ATOM     15  C   UNL     1       1.203   8.828  19.739  0.00  0.00    +0.000 A 
ATOM     16  C   UNL     1       0.584   9.880  19.045  0.00  0.00    +0.000 A 
BRANCH  11  18
ATOM     17  C   UNL     1      -0.161  13.058  18.661  0.00  0.00    +0.000 C 
ATOM     18  C   UNL     1      -1.039  11.805  18.807  0.00  0.00    +0.000 C 
BRANCH  18  19
ATOM     19  C   UNL     1      -2.438  12.147  19.375  0.00  0.00    +0.000 C 
BRANCH  19  20
ATOM     20  C   UNL     1      -3.560  11.819  18.449  0.00  0.00    +0.000 A 
ATOM     21  N   UNL     1      -3.432  11.423  17.199  0.00  0.00    +0.000 NA
ATOM     22  N   UNL     1      -4.686  11.246  16.669  0.00  0.00    +0.000 NA
ATOM     23  C   UNL     1      -5.558  11.542  17.605  0.00  0.00    +0.000 A 
ATOM     24  N   UNL     1      -4.897  11.897  18.743  0.00  0.00    +0.000 N 
ATOM     25  C   UNL     1      -5.508  12.276  19.988  0.00  0.00    +0.000 C 
ENDBRANCH  19  20
ENDBRANCH  18  19
ENDBRANCH  11  18
ENDBRANCH   1  15
BRANCH   5  26
ATOM     26  N   UNL     1       5.100   4.742  17.099  0.00  0.00    +0.000 N 
ATOM     27  C   UNL     1       4.764   3.742  16.081  0.00  0.00    +0.000 C 
ATOM     28  C   UNL     1       5.935   3.780  15.107  0.00  0.00    +0.000 C 
ATOM     29  C   UNL     1       6.425   5.216  15.196  0.00  0.00    +0.000 C 
ATOM     30  C   UNL     1       6.223   5.574  16.676  0.00  0.00    +0.000 C 
BRANCH  29  31
ATOM     31  O   UNL     1       7.777   5.326  14.776  0.00  0.00    +0.000 OA
ATOM     32  H   UNL     1       7.806   5.181  13.814  0.00  0.00    +0.000 HD
ENDBRANCH  29  31
ENDBRANCH   5  26
BRANCH   7  33
ATOM     33  C   UNL     1       2.204   3.496  20.974  0.00  0.00    +0.000 C 
ATOM     34  F   UNL     1       2.493   3.781  22.279  0.00  0.00    +0.000 F 
ATOM     35  F   UNL     1       0.856   3.292  20.937  0.00  0.00    +0.000 F 
ATOM     36  F   UNL     1       2.772   2.277  20.736  0.00  0.00    +0.000 F 
ENDBRANCH   7  33
TORSDOF 7
ENDMDL
MODEL 4
REMARK VINA RESULT:      -9.2      0.965      1.247
REMARK  Name = 
REMARK  9 active torsions:
REMARK  status: ('A' for Active; 'I' for Inactive)
REMARK    1  A    between atoms: C_1  and  C_2
REMARK    2  A    between atoms: C_2  and  C_3
REMARK    3  A    between atoms: C_2  and  C_10
REMARK    4  A    between atoms: C_3  and  C_4
REMARK    5  A    between atoms: N_8  and  C_9
REMARK    6  A    between atoms: C_14  and  C_15
REMARK    7  A    between atoms: C_19  and  N_20
REMARK    8  A    between atoms: C_23  and  O_24
REMARK    9  A    between atoms: C_27  and  C_28
REMARK                            x       y       z     vdW  Elec       q    Type
REMARK                         _______ _______ _______ _____ _____    ______ ____
ROOT
ATOM      1  C   UNL     1       2.546   7.544  18.634  0.00  0.00    +0.000 A 
ATOM      2  N   UNL     1       3.447   8.112  17.774  0.00  0.00    +0.000 N 
ATOM      3  N   UNL     1       4.235   7.252  17.113  0.00  0.00    +0.000 NA
ATOM      4  C   UNL     1       3.854   6.027  17.538  0.00  0.00    +0.000 A 
ATOM      5  C   UNL     1       4.337   4.739  17.154  0.00  0.00    +0.000 A 
ATOM      6  C   UNL     1       3.646   3.721  17.851  0.00  0.00    +0.000 A 
ATOM      7  C   UNL     1       2.623   3.965  18.815  0.00  0.00    +0.000 A 
ATOM      8  N   UNL     1       2.161   5.206  19.172  0.00  0.00    +0.000 NA
ATOM      9  C   UNL     1       2.800   6.198  18.511  0.00  0.00    +0.000 A 
ATOM     10  H   UNL     1       3.558   9.099  17.572  0.00  0.00    +0.000 HD
ENDROOT
BRANCH   1  15
ATOM     11  C   UNL     1      -0.235   9.988  19.427  0.00  0.00    +0.000 A 
ATOM     12  C   UNL     1      -0.319   9.828  20.817  0.00  0.00    +0.000 A 
ATOM     13  C   UNL     1       0.521   8.939  21.489  0.00  0.00    +0.000 A 
ATOM     14  C   UNL     1       1.453   8.181  20.783  0.00  0.00    +0.000 A 
ATOM     15  C   UNL     1       1.568   8.316  19.395  0.00  0.00    +0.000 A 
ATOM     16  C   UNL     1       0.728   9.229  18.738  0.00  0.00    +0.000 A 
BRANCH  11  18
ATOM     17  C   UNL     1      -1.335  12.303  19.308  0.00  0.00    +0.000 C 
ATOM     18  C   UNL     1      -1.132  10.939  18.630  0.00  0.00    +0.000 C 
BRANCH  18  19
ATOM     19  C   UNL     1      -2.482  10.251  18.309  0.00  0.00    +0.000 C 
BRANCH  19  20
ATOM     20  C   UNL     1      -2.849  10.288  16.865  0.00  0.00    +0.000 A 
ATOM     21  N   UNL     1      -2.188   9.696  15.890  0.00  0.00    +0.000 NA
ATOM     22  N   UNL     1      -2.816   9.981  14.704  0.00  0.00    +0.000 NA
ATOM     23  C   UNL     1      -3.847  10.746  14.975  0.00  0.00    +0.000 A 
ATOM     24  N   UNL     1      -3.914  10.957  16.320  0.00  0.00    +0.000 N 
ATOM     25  C   UNL     1      -4.913  11.733  17.002  0.00  0.00    +0.000 C 
ENDBRANCH  19  20
ENDBRANCH  18  19
ENDBRANCH  11  18
ENDBRANCH   1  15
BRANCH   5  26
ATOM     26  N   UNL     1       5.312   4.483  16.210  0.00  0.00    +0.000 N 
ATOM     27  C   UNL     1       5.006   3.684  15.020  0.00  0.00    +0.000 C 
ATOM     28  C   UNL     1       6.243   3.817  14.141  0.00  0.00    +0.000 C 
ATOM     29  C   UNL     1       6.786   5.191  14.499  0.00  0.00    +0.000 C 
ATOM     30  C   UNL     1       6.496   5.311  16.003  0.00  0.00    +0.000 C 
BRANCH  29  31
ATOM     31  O   UNL     1       8.167   5.296  14.188  0.00  0.00    +0.000 OA
ATOM     32  H   UNL     1       8.352   6.219  13.944  0.00  0.00    +0.000 HD
ENDBRANCH  29  31
ENDBRANCH   5  26
BRANCH   7  33
ATOM     33  C   UNL     1       1.967   2.767  19.501  0.00  0.00    +0.000 C 
ATOM     34  F   UNL     1       2.262   2.668  20.831  0.00  0.00    +0.000 F 
ATOM     35  F   UNL     1       0.606   2.789  19.431  0.00  0.00    +0.000 F 
ATOM     36  F   UNL     1       2.350   1.574  18.956  0.00  0.00    +0.000 F 
ENDBRANCH   7  33
TORSDOF 7
ENDMDL
MODEL 5
REMARK VINA RESULT:      -9.0      1.865      2.930
REMARK  Name = 
REMARK  9 active torsions:
REMARK  status: ('A' for Active; 'I' for Inactive)
REMARK    1  A    between atoms: C_1  and  C_2
REMARK    2  A    between atoms: C_2  and  C_3
REMARK    3  A    between atoms: C_2  and  C_10
REMARK    4  A    between atoms: C_3  and  C_4
REMARK    5  A    between atoms: N_8  and  C_9
REMARK    6  A    between atoms: C_14  and  C_15
REMARK    7  A    between atoms: C_19  and  N_20
REMARK    8  A    between atoms: C_23  and  O_24
REMARK    9  A    between atoms: C_27  and  C_28
REMARK                            x       y       z     vdW  Elec       q    Type
REMARK                         _______ _______ _______ _____ _____    ______ ____
ROOT
ATOM      1  C   UNL     1       2.133   8.041  19.122  0.00  0.00    +0.000 A 
ATOM      2  N   UNL     1       2.883   8.487  18.067  0.00  0.00    +0.000 N 
ATOM      3  N   UNL     1       3.705   7.581  17.519  0.00  0.00    +0.000 NA
ATOM      4  C   UNL     1       3.508   6.450  18.231  0.00  0.00    +0.000 A 
ATOM      5  C   UNL     1       4.102   5.161  18.075  0.00  0.00    +0.000 A 
ATOM      6  C   UNL     1       3.598   4.261  19.044  0.00  0.00    +0.000 A 
ATOM      7  C   UNL     1       2.642   4.614  20.041  0.00  0.00    +0.000 A 
ATOM      8  N   UNL     1       2.072   5.854  20.179  0.00  0.00    +0.000 NA
ATOM      9  C   UNL     1       2.531   6.731  19.258  0.00  0.00    +0.000 A 
ATOM     10  H   UNL     1       2.860   9.411  17.650  0.00  0.00    +0.000 HD
ENDROOT
BRANCH   1  15
ATOM     11  C   UNL     1      -0.721  10.466  19.679  0.00  0.00    +0.000 A 
ATOM     12  C   UNL     1      -0.771  10.474  21.080  0.00  0.00    +0.000 A 
ATOM     13  C   UNL     1       0.114   9.703  21.835  0.00  0.00    +0.000 A 
ATOM     14  C   UNL     1       1.060   8.897  21.203  0.00  0.00    +0.000 A 
ATOM     15  C   UNL     1       1.142   8.866  19.807  0.00  0.00    +0.000 A 
ATOM     16  C   UNL     1       0.256   9.663  19.065  0.00  0.00    +0.000 A 
BRANCH  11  18
ATOM     17  C   UNL     1      -2.527  10.418  17.858  0.00  0.00    +0.000 C 
ATOM     18  C   UNL     1      -1.667  11.281  18.795  0.00  0.00    +0.000 C 
BRANCH  18  19
ATOM     19  C   UNL     1      -0.871  12.356  18.015  0.00  0.00    +0.000 C 
BRANCH  19  20
ATOM     20  C   UNL     1      -0.232  13.383  18.886  0.00  0.00    +0.000 A 
ATOM     21  N   UNL     1      -0.871  14.234  19.665  0.00  0.00    +0.000 NA
ATOM     22  N   UNL     1       0.056  15.033  20.287  0.00  0.00    +0.000 NA
ATOM     23  C   UNL     1       1.244  14.659  19.874  0.00  0.00    +0.000 A 
ATOM     24  N   UNL     1       1.113  13.619  19.002  0.00  0.00    +0.000 N 
ATOM     25  C   UNL     1       2.191  12.929  18.347  0.00  0.00    +0.000 C 
ENDBRANCH  19  20
ENDBRANCH  18  19
ENDBRANCH  11  18
ENDBRANCH   1  15
BRANCH   5  26
ATOM     26  N   UNL     1       5.014   4.796  17.105  0.00  0.00    +0.000 N 
ATOM     27  C   UNL     1       4.630   3.878  16.028  0.00  0.00    +0.000 C 
ATOM     28  C   UNL     1       5.808   3.905  15.064  0.00  0.00    +0.000 C 
ATOM     29  C   UNL     1       6.378   5.303  15.238  0.00  0.00    +0.000 C 
ATOM     30  C   UNL     1       6.185   5.585  16.736  0.00  0.00    +0.000 C 
BRANCH  29  31
ATOM     31  O   UNL     1       7.737   5.360  14.831  0.00  0.00    +0.000 OA
ATOM     32  H   UNL     1       8.293   5.238  15.620  0.00  0.00    +0.000 HD
ENDBRANCH  29  31
ENDBRANCH   5  26
BRANCH   7  33
ATOM     33  C   UNL     1       2.193   3.541  21.032  0.00  0.00    +0.000 C 
ATOM     34  F   UNL     1       2.850   2.352  20.888  0.00  0.00    +0.000 F 
ATOM     35  F   UNL     1       2.380   3.903  22.334  0.00  0.00    +0.000 F 
ATOM     36  F   UNL     1       0.866   3.237  20.916  0.00  0.00    +0.000 F 
ENDBRANCH   7  33
TORSDOF 7
ENDMDL
MODEL 6
REMARK VINA RESULT:      -9.0      1.335      1.753
REMARK  Name = 
REMARK  9 active torsions:
REMARK  status: ('A' for Active; 'I' for Inactive)
REMARK    1  A    between atoms: C_1  and  C_2
REMARK    2  A    between atoms: C_2  and  C_3
REMARK    3  A    between atoms: C_2  and  C_10
REMARK    4  A    between atoms: C_3  and  C_4
REMARK    5  A    between atoms: N_8  and  C_9
REMARK    6  A    between atoms: C_14  and  C_15
REMARK    7  A    between atoms: C_19  and  N_20
REMARK    8  A    between atoms: C_23  and  O_24
REMARK    9  A    between atoms: C_27  and  C_28
REMARK                            x       y       z     vdW  Elec       q    Type
REMARK                         _______ _______ _______ _____ _____    ______ ____
ROOT
ATOM      1  C   UNL     1       3.068   7.237  18.220  0.00  0.00    +0.000 A 
ATOM      2  N   UNL     1       3.844   7.880  17.293  0.00  0.00    +0.000 N 
ATOM      3  N   UNL     1       4.627   7.088  16.546  0.00  0.00    +0.000 NA
ATOM      4  C   UNL     1       4.376   5.834  16.980  0.00  0.00    +0.000 A 
ATOM      5  C   UNL     1       4.912   4.590  16.529  0.00  0.00    +0.000 A 
ATOM      6  C   UNL     1       4.364   3.515  17.266  0.00  0.00    +0.000 A 
ATOM      7  C   UNL     1       3.418   3.671  18.323  0.00  0.00    +0.000 A 
ATOM      8  N   UNL     1       2.903   4.870  18.745  0.00  0.00    +0.000 NA
ATOM      9  C   UNL     1       3.406   5.914  18.048  0.00  0.00    +0.000 A 
ATOM     10  H   UNL     1       3.864   8.875  17.100  0.00  0.00    +0.000 HD
ENDROOT
BRANCH   1  15
ATOM     11  C   UNL     1       0.515   9.767  19.411  0.00  0.00    +0.000 A 
ATOM     12  C   UNL     1       0.273   9.286  20.705  0.00  0.00    +0.000 A 
ATOM     13  C   UNL     1       0.934   8.154  21.187  0.00  0.00    +0.000 A 
ATOM     14  C   UNL     1       1.841   7.472  20.378  0.00  0.00    +0.000 A 
ATOM     15  C   UNL     1       2.111   7.925  19.082  0.00  0.00    +0.000 A 
ATOM     16  C   UNL     1       1.452   9.075  18.621  0.00  0.00    +0.000 A 
BRANCH  11  18
ATOM     17  C   UNL     1       0.361  12.327  19.362  0.00  0.00    +0.000 C 
ATOM     18  C   UNL     1      -0.182  10.995  18.821  0.00  0.00    +0.000 C 
BRANCH  18  19
ATOM     19  C   UNL     1      -1.714  10.879  19.015  0.00  0.00    +0.000 C 
BRANCH  19  20
ATOM     20  C   UNL     1      -2.476  10.774  17.738  0.00  0.00    +0.000 A 
ATOM     21  N   UNL     1      -2.031  10.235  16.620  0.00  0.00    +0.000 NA
ATOM     22  N   UNL     1      -3.008  10.349  15.663  0.00  0.00    +0.000 NA
ATOM     23  C   UNL     1      -4.032  10.960  16.213  0.00  0.00    +0.000 A 
ATOM     24  N   UNL     1      -3.748  11.236  17.517  0.00  0.00    +0.000 N 
ATOM     25  C   UNL     1      -4.626  11.887  18.450  0.00  0.00    +0.000 C 
ENDBRANCH  19  20
ENDBRANCH  18  19
ENDBRANCH  11  18
ENDBRANCH   1  15
BRANCH   5  26
ATOM     26  N   UNL     1       5.812   4.418  15.496  0.00  0.00    +0.000 N 
ATOM     27  C   UNL     1       5.374   3.868  14.209  0.00  0.00    +0.000 C 
ATOM     28  C   UNL     1       6.575   4.044  13.289  0.00  0.00    +0.000 C 
ATOM     29  C   UNL     1       7.266   5.281  13.839  0.00  0.00    +0.000 C 
ATOM     30  C   UNL     1       7.060   5.163  15.357  0.00  0.00    +0.000 C 
BRANCH  29  31
ATOM     31  O   UNL     1       8.634   5.318  13.463  0.00  0.00    +0.000 OA
ATOM     32  H   UNL     1       9.012   6.155  13.783  0.00  0.00    +0.000 HD
ENDBRANCH  29  31
ENDBRANCH   5  26
BRANCH   7  33
ATOM     33  C   UNL     1       2.917   2.420  19.043  0.00  0.00    +0.000 C 
ATOM     34  F   UNL     1       3.014   1.280  18.295  0.00  0.00    +0.000 F 
ATOM     35  F   UNL     1       3.596   2.156  20.195  0.00  0.00    +0.000 F 
ATOM     36  F   UNL     1       1.600   2.507  19.398  0.00  0.00    +0.000 F 
ENDBRANCH   7  33
TORSDOF 7
ENDMDL
MODEL 7
REMARK VINA RESULT:      -9.0      2.713      3.723
REMARK  Name = 
REMARK  9 active torsions:
REMARK  status: ('A' for Active; 'I' for Inactive)
REMARK    1  A    between atoms: C_1  and  C_2
REMARK    2  A    between atoms: C_2  and  C_3
REMARK    3  A    between atoms: C_2  and  C_10
REMARK    4  A    between atoms: C_3  and  C_4
REMARK    5  A    between atoms: N_8  and  C_9
REMARK    6  A    between atoms: C_14  and  C_15
REMARK    7  A    between atoms: C_19  and  N_20
REMARK    8  A    between atoms: C_23  and  O_24
REMARK    9  A    between atoms: C_27  and  C_28
REMARK                            x       y       z     vdW  Elec       q    Type
REMARK                         _______ _______ _______ _____ _____    ______ ____
ROOT
ATOM      1  C   UNL     1       2.072   8.377  18.518  0.00  0.00    +0.000 A 
ATOM      2  N   UNL     1       2.931   8.745  17.518  0.00  0.00    +0.000 N 
ATOM      3  N   UNL     1       3.809   7.806  17.138  0.00  0.00    +0.000 NA
ATOM      4  C   UNL     1       3.539   6.734  17.914  0.00  0.00    +0.000 A 
ATOM      5  C   UNL     1       4.149   5.444  17.930  0.00  0.00    +0.000 A 
ATOM      6  C   UNL     1       3.546   4.620  18.908  0.00  0.00    +0.000 A 
ATOM      7  C   UNL     1       2.485   5.042  19.764  0.00  0.00    +0.000 A 
ATOM      8  N   UNL     1       1.901   6.282  19.737  0.00  0.00    +0.000 NA
ATOM      9  C   UNL     1       2.455   7.086  18.803  0.00  0.00    +0.000 A 
ATOM     10  H   UNL     1       2.951   9.631  17.027  0.00  0.00    +0.000 HD
ENDROOT
BRANCH   1  15
ATOM     11  C   UNL     1      -0.096  10.331  20.931  0.00  0.00    +0.000 A 
ATOM     12  C   UNL     1      -1.020  10.891  20.039  0.00  0.00    +0.000 A 
ATOM     13  C   UNL     1      -0.942  10.634  18.668  0.00  0.00    +0.000 A 
ATOM     14  C   UNL     1       0.072   9.823  18.162  0.00  0.00    +0.000 A 
ATOM     15  C   UNL     1       1.010   9.243  19.023  0.00  0.00    +0.000 A 
ATOM     16  C   UNL     1       0.904   9.497  20.399  0.00  0.00    +0.000 A 
BRANCH  11  18
ATOM     17  C   UNL     1       0.211   9.331  23.274  0.00  0.00    +0.000 C 
ATOM     18  C   UNL     1      -0.122  10.580  22.441  0.00  0.00    +0.000 C 
BRANCH  18  19
ATOM     19  C   UNL     1      -1.479  11.200  22.854  0.00  0.00    +0.000 C 
BRANCH  19  20
ATOM     20  C   UNL     1      -1.420  12.668  23.103  0.00  0.00    +0.000 A 
ATOM     21  N   UNL     1      -0.319  13.386  23.203  0.00  0.00    +0.000 NA
ATOM     22  N   UNL     1      -0.670  14.687  23.459  0.00  0.00    +0.000 NA
ATOM     23  C   UNL     1      -1.980  14.741  23.516  0.00  0.00    +0.000 A 
ATOM     24  N   UNL     1      -2.495  13.499  23.288  0.00  0.00    +0.000 N 
ATOM     25  C   UNL     1      -3.891  13.159  23.257  0.00  0.00    +0.000 C 
ENDBRANCH  19  20
ENDBRANCH  18  19
ENDBRANCH  11  18
ENDBRANCH   1  15
BRANCH   5  26
ATOM     26  N   UNL     1       5.162   5.012  17.096  0.00  0.00    +0.000 N 
ATOM     27  C   UNL     1       5.022   3.766  16.337  0.00  0.00    +0.000 C 
ATOM     28  C   UNL     1       6.217   3.757  15.393  0.00  0.00    +0.000 C 
ATOM     29  C   UNL     1       6.488   5.233  15.148  0.00  0.00    +0.000 C 
ATOM     30  C   UNL     1       6.170   5.885  16.502  0.00  0.00    +0.000 C 
BRANCH  29  31
ATOM     31  O   UNL     1       7.826   5.448  14.727  0.00  0.00    +0.000 OA
ATOM     32  H   UNL     1       8.411   5.289  15.488  0.00  0.00    +0.000 HD
ENDBRANCH  29  31
ENDBRANCH   5  26
BRANCH   7  33
ATOM     33  C   UNL     1       1.934   4.047  20.786  0.00  0.00    +0.000 C 
ATOM     34  F   UNL     1       0.570   4.027  20.851  0.00  0.00    +0.000 F 
ATOM     35  F   UNL     1       2.305   2.760  20.532  0.00  0.00    +0.000 F 
ATOM     36  F   UNL     1       2.353   4.313  22.059  0.00  0.00    +0.000 F 
ENDBRANCH   7  33
TORSDOF 7
ENDMDL
MODEL 8
REMARK VINA RESULT:      -9.0      2.440      3.085
REMARK  Name = 
REMARK  9 active torsions:
REMARK  status: ('A' for Active; 'I' for Inactive)
REMARK    1  A    between atoms: C_1  and  C_2
REMARK    2  A    between atoms: C_2  and  C_3
REMARK    3  A    between atoms: C_2  and  C_10
REMARK    4  A    between atoms: C_3  and  C_4
REMARK    5  A    between atoms: N_8  and  C_9
REMARK    6  A    between atoms: C_14  and  C_15
REMARK    7  A    between atoms: C_19  and  N_20
REMARK    8  A    between atoms: C_23  and  O_24
REMARK    9  A    between atoms: C_27  and  C_28
REMARK                            x       y       z     vdW  Elec       q    Type
REMARK                         _______ _______ _______ _____ _____    ______ ____
ROOT
ATOM      1  C   UNL     1       1.810   8.270  19.716  0.00  0.00    +0.000 A 
ATOM      2  N   UNL     1       2.374   8.839  18.606  0.00  0.00    +0.000 N 
ATOM      3  N   UNL     1       3.065   8.003  17.817  0.00  0.00    +0.000 NA
ATOM      4  C   UNL     1       2.968   6.795  18.413  0.00  0.00    +0.000 A 
ATOM      5  C   UNL     1       3.493   5.533  18.003  0.00  0.00    +0.000 A 
ATOM      6  C   UNL     1       3.146   4.523  18.930  0.00  0.00    +0.000 A 
ATOM      7  C   UNL     1       2.388   4.755  20.117  0.00  0.00    +0.000 A 
ATOM      8  N   UNL     1       1.881   5.971  20.499  0.00  0.00    +0.000 NA
ATOM      9  C   UNL     1       2.193   6.952  19.623  0.00  0.00    +0.000 A 
ATOM     10  H   UNL     1       2.301   9.806  18.313  0.00  0.00    +0.000 HD
ENDROOT
BRANCH   1  15
ATOM     11  C   UNL     1      -0.691  10.770  21.069  0.00  0.00    +0.000 A 
ATOM     12  C   UNL     1      -0.639  10.461  22.435  0.00  0.00    +0.000 A 
ATOM     13  C   UNL     1       0.201   9.453  22.912  0.00  0.00    +0.000 A 
ATOM     14  C   UNL     1       0.997   8.725  22.029  0.00  0.00    +0.000 A 
ATOM     15  C   UNL     1       0.975   9.008  20.659  0.00  0.00    +0.000 A 
ATOM     16  C   UNL     1       0.138  10.038  20.201  0.00  0.00    +0.000 A 
BRANCH  11  18
ATOM     17  C   UNL     1      -1.109  12.396  19.129  0.00  0.00    +0.000 C 
ATOM     18  C   UNL     1      -1.596  11.856  20.483  0.00  0.00    +0.000 C 
BRANCH  18  19
ATOM     19  C   UNL     1      -1.798  12.993  21.515  0.00  0.00    +0.000 C 
BRANCH  19  20
ATOM     20  C   UNL     1      -3.197  13.109  22.017  0.00  0.00    +0.000 A 
ATOM     21  N   UNL     1      -3.812  12.232  22.785  0.00  0.00    +0.000 NA
ATOM     22  N   UNL     1      -5.091  12.675  23.013  0.00  0.00    +0.000 NA
ATOM     23  C   UNL     1      -5.236  13.814  22.375  0.00  0.00    +0.000 A 
ATOM     24  N   UNL     1      -4.070  14.131  21.744  0.00  0.00    +0.000 N 
ATOM     25  C   UNL     1      -3.833  15.309  20.955  0.00  0.00    +0.000 C 
ENDBRANCH  19  20
ENDBRANCH  18  19
ENDBRANCH  11  18
ENDBRANCH   1  15
BRANCH   5  26
ATOM     26  N   UNL     1       4.212   5.286  16.849  0.00  0.00    +0.000 N 
ATOM     27  C   UNL     1       5.049   6.332  16.255  0.00  0.00    +0.000 C 
ATOM     28  C   UNL     1       5.831   5.620  15.159  0.00  0.00    +0.000 C 
ATOM     29  C   UNL     1       5.960   4.198  15.681  0.00  0.00    +0.000 C 
ATOM     30  C   UNL     1       4.625   3.959  16.403  0.00  0.00    +0.000 C 
BRANCH  29  31
ATOM     31  O   UNL     1       6.195   3.280  14.624  0.00  0.00    +0.000 OA
ATOM     32  H   UNL     1       5.555   2.552  14.710  0.00  0.00    +0.000 HD
ENDBRANCH  29  31
ENDBRANCH   5  26
BRANCH   7  33
ATOM     33  C   UNL     1       2.094   3.571  21.036  0.00  0.00    +0.000 C 
ATOM     34  F   UNL     1       0.779   3.198  21.048  0.00  0.00    +0.000 F 
ATOM     35  F   UNL     1       2.787   2.447  20.699  0.00  0.00    +0.000 F 
ATOM     36  F   UNL     1       2.409   3.826  22.341  0.00  0.00    +0.000 F 
ENDBRANCH   7  33
TORSDOF 7
ENDMDL
MODEL 9
REMARK VINA RESULT:      -9.0      1.061      1.404
REMARK  Name = 
REMARK  9 active torsions:
REMARK  status: ('A' for Active; 'I' for Inactive)
REMARK    1  A    between atoms: C_1  and  C_2
REMARK    2  A    between atoms: C_2  and  C_3
REMARK    3  A    between atoms: C_2  and  C_10
REMARK    4  A    between atoms: C_3  and  C_4
REMARK    5  A    between atoms: N_8  and  C_9
REMARK    6  A    between atoms: C_14  and  C_15
REMARK    7  A    between atoms: C_19  and  N_20
REMARK    8  A    between atoms: C_23  and  O_24
REMARK    9  A    between atoms: C_27  and  C_28
REMARK                            x       y       z     vdW  Elec       q    Type
REMARK                         _______ _______ _______ _____ _____    ______ ____
ROOT
ATOM      1  C   UNL     1       2.099   8.153  19.138  0.00  0.00    +0.000 A 
ATOM      2  N   UNL     1       2.851   8.654  18.110  0.00  0.00    +0.000 N 
ATOM      3  N   UNL     1       3.697   7.787  17.536  0.00  0.00    +0.000 NA
ATOM      4  C   UNL     1       3.516   6.626  18.202  0.00  0.00    +0.000 A 
ATOM      5  C   UNL     1       4.138   5.356  18.003  0.00  0.00    +0.000 A 
ATOM      6  C   UNL     1       3.643   4.409  18.930  0.00  0.00    +0.000 A 
ATOM      7  C   UNL     1       2.669   4.703  19.930  0.00  0.00    +0.000 A 
ATOM      8  N   UNL     1       2.072   5.925  20.109  0.00  0.00    +0.000 NA
ATOM      9  C   UNL     1       2.522   6.846  19.228  0.00  0.00    +0.000 A 
ATOM     10  H   UNL     1       2.812   9.593  17.729  0.00  0.00    +0.000 HD
ENDROOT
BRANCH   1  15
ATOM     11  C   UNL     1      -0.569  10.750  19.824  0.00  0.00    +0.000 A 
ATOM     12  C   UNL     1      -0.865  10.456  21.162  0.00  0.00    +0.000 A 
ATOM     13  C   UNL     1      -0.203   9.427  21.835  0.00  0.00    +0.000 A 
ATOM     14  C   UNL     1       0.759   8.663  21.178  0.00  0.00    +0.000 A 
ATOM     15  C   UNL     1       1.084   8.929  19.844  0.00  0.00    +0.000 A 
ATOM     16  C   UNL     1       0.422   9.980  19.189  0.00  0.00    +0.000 A 
BRANCH  11  18
ATOM     17  C   UNL     1      -0.465  13.169  18.977  0.00  0.00    +0.000 C 
ATOM     18  C   UNL     1      -1.264  11.857  19.028  0.00  0.00    +0.000 C 
BRANCH  18  19
ATOM     19  C   UNL     1      -2.698  12.080  19.570  0.00  0.00    +0.000 C 
BRANCH  19  20
ATOM     20  C   UNL     1      -3.769  11.807  18.569  0.00  0.00    +0.000 A 
ATOM     21  N   UNL     1      -3.576  11.541  17.292  0.00  0.00    +0.000 NA
ATOM     22  N   UNL     1      -4.800  11.375  16.694  0.00  0.00    +0.000 NA
ATOM     23  C   UNL     1      -5.719  11.547  17.615  0.00  0.00    +0.000 A 
ATOM     24  N   UNL     1      -5.118  11.811  18.810  0.00  0.00    +0.000 N 
ATOM     25  C   UNL     1      -5.792  12.044  20.058  0.00  0.00    +0.000 C 
ENDBRANCH  19  20
ENDBRANCH  18  19
ENDBRANCH  11  18
ENDBRANCH   1  15
BRANCH   5  26
ATOM     26  N   UNL     1       5.067   5.048  17.029  0.00  0.00    +0.000 N 
ATOM     27  C   UNL     1       6.486   4.906  17.372  0.00  0.00    +0.000 C 
ATOM     28  C   UNL     1       7.132   4.357  16.107  0.00  0.00    +0.000 C 
ATOM     29  C   UNL     1       6.016   3.553  15.458  0.00  0.00    +0.000 C 
ATOM     30  C   UNL     1       4.754   4.370  15.775  0.00  0.00    +0.000 C 
BRANCH  29  31
ATOM     31  O   UNL     1       6.239   3.390  14.066  0.00  0.00    +0.000 OA
ATOM     32  H   UNL     1       6.122   4.256  13.639  0.00  0.00    +0.000 HD
ENDBRANCH  29  31
ENDBRANCH   5  26
BRANCH   7  33
ATOM     33  C   UNL     1       2.233   3.584  20.874  0.00  0.00    +0.000 C 
ATOM     34  F   UNL     1       0.928   3.210  20.717  0.00  0.00    +0.000 F 
ATOM     35  F   UNL     1       2.959   2.440  20.719  0.00  0.00    +0.000 F 
ATOM     36  F   UNL     1       2.355   3.927  22.191  0.00  0.00    +0.000 F 
ENDBRANCH   7  33
TORSDOF 7
ENDMDL
