MODEL 1
REMARK VINA RESULT:     -10.4      0.000      0.000
REMARK  Name = 
REMARK  9 active torsions:
REMARK  status: ('A' for Active; 'I' for Inactive)
REMARK    1  A    between atoms: C_1  and  N_2
REMARK    2  A    between atoms: C_6  and  C_7
REMARK    3  A    between atoms: C_7  and  C_8
REMARK    4  A    between atoms: C_8  and  C_9
REMARK    5  A    between atoms: C_13  and  N_14
REMARK    6  A    between atoms: C_19  and  C_20
REMARK    7  A    between atoms: C_20  and  N_21
REMARK    8  A    between atoms: C_25  and  C_26
REMARK    9  A    between atoms: C_32  and  C_33
REMARK                            x       y       z     vdW  Elec       q    Type
REMARK                         _______ _______ _______ _____ _____    ______ ____
ROOT
ATOM      1  N   UNL     1       1.420   7.952  20.148  0.00  0.00    +0.000 N 
ATOM      2  C   UNL     1       1.471   6.631  20.721  0.00  0.00    +0.000 C 
ATOM      3  C   UNL     1       2.140   5.807  19.684  0.00  0.00    +0.000 A 
ATOM      4  C   UNL     1       2.579   6.601  18.623  0.00  0.00    +0.000 A 
ATOM      5  C   UNL     1       3.460   6.071  17.664  0.00  0.00    +0.000 A 
ATOM      6  C   UNL     1       3.855   4.712  17.783  0.00  0.00    +0.000 A 
ATOM      7  C   UNL     1       3.257   3.917  18.802  0.00  0.00    +0.000 A 
ATOM      8  C   UNL     1       2.433   4.458  19.788  0.00  0.00    +0.000 A 
ATOM      9  C   UNL     1       2.041   7.984  18.884  0.00  0.00    +0.000 C 
ATOM     10  O   UNL     1       2.153   8.916  18.101  0.00  0.00    +0.000 OA
ENDROOT
BRANCH   1  15
ATOM     11  C   UNL     1      -0.707  11.032  20.666  0.00  0.00    +0.000 A 
ATOM     12  C   UNL     1      -0.581  11.154  22.057  0.00  0.00    +0.000 A 
ATOM     13  C   UNL     1       0.079  10.183  22.825  0.00  0.00    +0.000 A 
ATOM     14  C   UNL     1       0.687   9.068  22.234  0.00  0.00    +0.000 A 
ATOM     15  C   UNL     1       0.656   8.931  20.852  0.00  0.00    +0.000 A 
ATOM     16  C   UNL     1      -0.092   9.891  20.111  0.00  0.00    +0.000 A 
BRANCH  11  17
ATOM     17  C   UNL     1      -1.467  12.135  19.733  0.00  0.00    +0.000 C 
ATOM     18  C   UNL     1      -0.635  12.690  18.541  0.00  0.00    +0.000 C 
ATOM     19  O   UNL     1      -0.713  14.043  19.025  0.00  0.00    +0.000 OA
ATOM     20  C   UNL     1      -1.459  13.625  20.188  0.00  0.00    +0.000 C 
BRANCH  17  21
ATOM     21  C   UNL     1      -2.861  11.636  19.275  0.00  0.00    +0.000 C 
BRANCH  21  27
ATOM     22  C   UNL     1      -5.176  12.099  17.165  0.00  0.00    +0.000 C 
ATOM     23  N   UNL     1      -3.948  11.379  16.968  0.00  0.00    +0.000 N 
ATOM     24  C   UNL     1      -3.596  10.746  15.814  0.00  0.00    +0.000 A 
ATOM     25  N   UNL     1      -2.435  10.160  15.973  0.00  0.00    +0.000 NA
ATOM     26  N   UNL     1      -2.018  10.405  17.257  0.00  0.00    +0.000 NA
ATOM     27  C   UNL     1      -2.921  11.159  17.856  0.00  0.00    +0.000 A 
ENDBRANCH  21  27
ENDBRANCH  17  21
ENDBRANCH  11  17
ENDBRANCH   1  15
BRANCH   8  28
ATOM     28  C   UNL     1       2.001   3.619  20.963  0.00  0.00    +0.000 C 
ATOM     29  F   UNL     1       2.426   4.095  22.159  0.00  0.00    +0.000 F 
ATOM     30  F   UNL     1       0.650   3.504  21.053  0.00  0.00    +0.000 F 
ATOM     31  F   UNL     1       2.487   2.348  20.886  0.00  0.00    +0.000 F 
ENDBRANCH   8  28
BRANCH   6  32
ATOM     32  C   UNL     1       5.121   4.065  17.204  0.00  0.00    +0.000 C 
BRANCH  32  33
ATOM     33  N   UNL     1       6.446   4.250  17.792  0.00  0.00    +0.000 NA
ATOM     34  C   UNL     1       6.574   5.530  18.505  0.00  0.00    +0.000 C 
ATOM     35  C   UNL     1       6.773   6.814  17.662  0.00  0.00    +0.000 C 
ATOM     36  O   UNL     1       6.903   6.693  16.250  0.00  0.00    +0.000 OA
ATOM     37  C   UNL     1       7.428   5.483  15.703  0.00  0.00    +0.000 C 
ATOM     38  C   UNL     1       7.469   4.288  16.707  0.00  0.00    +0.000 C 
BRANCH  37  39
ATOM     39  C   UNL     1       6.582   5.204  14.440  0.00  0.00    +0.000 C 
ATOM     40  C   UNL     1       7.353   5.108  13.092  0.00  0.00    +0.000 C 
ATOM     41  C   UNL     1       6.786   3.706  12.854  0.00  0.00    +0.000 C 
ATOM     42  C   UNL     1       5.993   3.802  14.160  0.00  0.00    +0.000 C 
ENDBRANCH  37  39
ENDBRANCH  32  33
ENDBRANCH   6  32
TORSDOF 8
ENDMDL
MODEL 2
REMARK VINA RESULT:     -10.3      0.925      1.473
REMARK  Name = 
REMARK  9 active torsions:
REMARK  status: ('A' for Active; 'I' for Inactive)
REMARK    1  A    between atoms: C_1  and  N_2
REMARK    2  A    between atoms: C_6  and  C_7
REMARK    3  A    between atoms: C_7  and  C_8
REMARK    4  A    between atoms: C_8  and  C_9
REMARK    5  A    between atoms: C_13  and  N_14
REMARK    6  A    between atoms: C_19  and  C_20
REMARK    7  A    between atoms: C_20  and  N_21
REMARK    8  A    between atoms: C_25  and  C_26
REMARK    9  A    between atoms: C_32  and  C_33
REMARK                            x       y       z     vdW  Elec       q    Type
REMARK                         _______ _______ _______ _____ _____    ______ ____
ROOT
ATOM      1  N   UNL     1       1.204   8.220  20.324  0.00  0.00    +0.000 N 
ATOM      2  C   UNL     1       1.348   6.865  20.793  0.00  0.00    +0.000 C 
ATOM      3  C   UNL     1       1.977   6.148  19.656  0.00  0.00    +0.000 A 
ATOM      4  C   UNL     1       2.309   7.035  18.630  0.00  0.00    +0.000 A 
ATOM      5  C   UNL     1       3.142   6.615  17.578  0.00  0.00    +0.000 A 
ATOM      6  C   UNL     1       3.600   5.271  17.570  0.00  0.00    +0.000 A 
ATOM      7  C   UNL     1       3.108   4.379  18.565  0.00  0.00    +0.000 A 
ATOM      8  C   UNL     1       2.332   4.810  19.640  0.00  0.00    +0.000 A 
ATOM      9  C   UNL     1       1.734   8.370  19.028  0.00  0.00    +0.000 C 
ATOM     10  O   UNL     1       1.755   9.359  18.311  0.00  0.00    +0.000 OA
ENDROOT
BRANCH   1  15
ATOM     11  C   UNL     1      -0.623  11.373  21.321  0.00  0.00    +0.000 A 
ATOM     12  C   UNL     1      -0.707  11.151  22.703  0.00  0.00    +0.000 A 
ATOM     13  C   UNL     1      -0.290   9.942  23.281  0.00  0.00    +0.000 A 
ATOM     14  C   UNL     1       0.277   8.918  22.512  0.00  0.00    +0.000 A 
ATOM     15  C   UNL     1       0.451   9.110  21.148  0.00  0.00    +0.000 A 
ATOM     16  C   UNL     1      -0.058  10.313  20.581  0.00  0.00    +0.000 A 
BRANCH  11  17
ATOM     17  C   UNL     1      -1.099  12.761  20.605  0.00  0.00    +0.000 C 
ATOM     18  C   UNL     1      -0.208  14.003  20.898  0.00  0.00    +0.000 C 
ATOM     19  O   UNL     1      -1.296  14.731  21.494  0.00  0.00    +0.000 OA
ATOM     20  C   UNL     1      -2.196  13.619  21.303  0.00  0.00    +0.000 C 
BRANCH  17  21
ATOM     21  C   UNL     1      -1.334  12.570  19.085  0.00  0.00    +0.000 C 
BRANCH  21  27
ATOM     22  C   UNL     1      -1.719  10.048  17.209  0.00  0.00    +0.000 C 
ATOM     23  N   UNL     1      -2.740  10.779  17.909  0.00  0.00    +0.000 N 
ATOM     24  C   UNL     1      -4.073  10.502  17.846  0.00  0.00    +0.000 A 
ATOM     25  N   UNL     1      -4.734  11.371  18.570  0.00  0.00    +0.000 NA
ATOM     26  N   UNL     1      -3.822  12.240  19.113  0.00  0.00    +0.000 NA
ATOM     27  C   UNL     1      -2.613  11.873  18.732  0.00  0.00    +0.000 A 
ENDBRANCH  21  27
ENDBRANCH  17  21
ENDBRANCH  11  17
ENDBRANCH   1  15
BRANCH   8  28
ATOM     28  C   UNL     1       2.017   3.871  20.775  0.00  0.00    +0.000 C 
ATOM     29  F   UNL     1       2.536   2.628  20.617  0.00  0.00    +0.000 F 
ATOM     30  F   UNL     1       2.473   4.327  21.972  0.00  0.00    +0.000 F 
ATOM     31  F   UNL     1       0.675   3.686  20.925  0.00  0.00    +0.000 F 
ENDBRANCH   8  28
BRANCH   6  32
ATOM     32  C   UNL     1       4.848   4.725  16.862  0.00  0.00    +0.000 C 
BRANCH  32  33
ATOM     33  N   UNL     1       6.099   4.442  17.565  0.00  0.00    +0.000 NA
ATOM     34  C   UNL     1       6.637   5.622  18.258  0.00  0.00    +0.000 C 
ATOM     35  C   UNL     1       7.363   6.694  17.408  0.00  0.00    +0.000 C 
ATOM     36  O   UNL     1       7.547   6.457  16.017  0.00  0.00    +0.000 OA
ATOM     37  C   UNL     1       7.626   5.110  15.548  0.00  0.00    +0.000 C 
ATOM     38  C   UNL     1       7.142   4.041  16.578  0.00  0.00    +0.000 C 
BRANCH  37  39
ATOM     39  C   UNL     1       6.836   5.092  14.219  0.00  0.00    +0.000 C 
ATOM     40  C   UNL     1       7.676   5.082  12.910  0.00  0.00    +0.000 C 
ATOM     41  C   UNL     1       6.979   3.795  12.459  0.00  0.00    +0.000 C 
ATOM     42  C   UNL     1       6.119   3.814  13.726  0.00  0.00    +0.000 C 
ENDBRANCH  37  39
ENDBRANCH  32  33
ENDBRANCH   6  32
TORSDOF 8
ENDMDL
MODEL 3
REMARK VINA RESULT:     -10.3      2.119      2.689
REMARK  Name = 
REMARK  9 active torsions:
REMARK  status: ('A' for Active; 'I' for Inactive)
REMARK    1  A    between atoms: C_1  and  N_2
REMARK    2  A    between atoms: C_6  and  C_7
REMARK    3  A    between atoms: C_7  and  C_8
REMARK    4  A    between atoms: C_8  and  C_9
REMARK    5  A    between atoms: C_13  and  N_14
REMARK    6  A    between atoms: C_19  and  C_20
REMARK    7  A    between atoms: C_20  and  N_21
REMARK    8  A    between atoms: C_25  and  C_26
REMARK    9  A    between atoms: C_32  and  C_33
REMARK                            x       y       z     vdW  Elec       q    Type
REMARK                         _______ _______ _______ _____ _____    ______ ____
ROOT
ATOM      1  N   UNL     1       1.060   8.460  20.414  0.00  0.00    +0.000 N 
ATOM      2  C   UNL     1       1.186   7.085  20.825  0.00  0.00    +0.000 C 
ATOM      3  C   UNL     1       1.845   6.417  19.675  0.00  0.00    +0.000 A 
ATOM      4  C   UNL     1       2.208   7.347  18.699  0.00  0.00    +0.000 A 
ATOM      5  C   UNL     1       3.068   6.972  17.653  0.00  0.00    +0.000 A 
ATOM      6  C   UNL     1       3.521   5.627  17.597  0.00  0.00    +0.000 A 
ATOM      7  C   UNL     1       2.998   4.693  18.536  0.00  0.00    +0.000 A 
ATOM      8  C   UNL     1       2.195   5.079  19.608  0.00  0.00    +0.000 A 
ATOM      9  C   UNL     1       1.626   8.666  19.141  0.00  0.00    +0.000 C 
ATOM     10  O   UNL     1       1.670   9.686  18.470  0.00  0.00    +0.000 OA
ENDROOT
BRANCH   1  15
ATOM     11  C   UNL     1      -0.869  11.535  21.462  0.00  0.00    +0.000 A 
ATOM     12  C   UNL     1      -0.921  11.301  22.844  0.00  0.00    +0.000 A 
ATOM     13  C   UNL     1      -0.448  10.106  23.406  0.00  0.00    +0.000 A 
ATOM     14  C   UNL     1       0.144   9.109  22.622  0.00  0.00    +0.000 A 
ATOM     15  C   UNL     1       0.288   9.316  21.256  0.00  0.00    +0.000 A 
ATOM     16  C   UNL     1      -0.277  10.502  20.706  0.00  0.00    +0.000 A 
BRANCH  11  17
ATOM     17  C   UNL     1      -1.409  12.908  20.764  0.00  0.00    +0.000 C 
ATOM     18  C   UNL     1      -1.310  14.188  21.642  0.00  0.00    +0.000 C 
ATOM     19  O   UNL     1      -2.731  14.411  21.602  0.00  0.00    +0.000 OA
ATOM     20  C   UNL     1      -2.935  13.218  20.816  0.00  0.00    +0.000 C 
BRANCH  17  21
ATOM     21  C   UNL     1      -0.781  13.124  19.364  0.00  0.00    +0.000 C 
BRANCH  21  27
ATOM     22  C   UNL     1      -0.243  16.156  18.625  0.00  0.00    +0.000 C 
ATOM     23  N   UNL     1       0.722  15.174  19.038  0.00  0.00    +0.000 N 
ATOM     24  C   UNL     1       2.061  15.402  19.153  0.00  0.00    +0.000 A 
ATOM     25  N   UNL     1       2.663  14.297  19.518  0.00  0.00    +0.000 NA
ATOM     26  N   UNL     1       1.705  13.322  19.638  0.00  0.00    +0.000 NA
ATOM     27  C   UNL     1       0.527  13.853  19.369  0.00  0.00    +0.000 A 
ENDBRANCH  21  27
ENDBRANCH  17  21
ENDBRANCH  11  17
ENDBRANCH   1  15
BRANCH   8  28
ATOM     28  C   UNL     1       1.845   4.091  20.691  0.00  0.00    +0.000 C 
ATOM     29  F   UNL     1       2.313   4.435  21.916  0.00  0.00    +0.000 F 
ATOM     30  F   UNL     1       0.503   3.919  20.827  0.00  0.00    +0.000 F 
ATOM     31  F   UNL     1       2.364   2.856  20.439  0.00  0.00    +0.000 F 
ENDBRANCH   8  28
BRANCH   6  32
ATOM     32  C   UNL     1       4.787   5.108  16.899  0.00  0.00    +0.000 C 
BRANCH  32  33
ATOM     33  N   UNL     1       5.987   4.706  17.631  0.00  0.00    +0.000 NA
ATOM     34  C   UNL     1       6.662   5.843  18.276  0.00  0.00    +0.000 C 
ATOM     35  C   UNL     1       7.520   6.777  17.388  0.00  0.00    +0.000 C 
ATOM     36  O   UNL     1       7.684   6.454  16.012  0.00  0.00    +0.000 OA
ATOM     37  C   UNL     1       7.600   5.088  15.605  0.00  0.00    +0.000 C 
ATOM     38  C   UNL     1       6.981   4.135  16.677  0.00  0.00    +0.000 C 
BRANCH  37  39
ATOM     39  C   UNL     1       6.824   5.104  14.268  0.00  0.00    +0.000 C 
ATOM     40  C   UNL     1       7.677   5.097  12.968  0.00  0.00    +0.000 C 
ATOM     41  C   UNL     1       6.960   3.831  12.491  0.00  0.00    +0.000 C 
ATOM     42  C   UNL     1       6.087   3.848  13.749  0.00  0.00    +0.000 C 
ENDBRANCH  37  39
ENDBRANCH  32  33
ENDBRANCH   6  32
TORSDOF 8
ENDMDL
MODEL 4
REMARK VINA RESULT:     -10.2      2.023      2.934
REMARK  Name = 
REMARK  9 active torsions:
REMARK  status: ('A' for Active; 'I' for Inactive)
REMARK    1  A    between atoms: C_1  and  N_2
REMARK    2  A    between atoms: C_6  and  C_7
REMARK    3  A    between atoms: C_7  and  C_8
REMARK    4  A    between atoms: C_8  and  C_9
REMARK    5  A    between atoms: C_13  and  N_14
REMARK    6  A    between atoms: C_19  and  C_20
REMARK    7  A    between atoms: C_20  and  N_21
REMARK    8  A    between atoms: C_25  and  C_26
REMARK    9  A    between atoms: C_32  and  C_33
REMARK                            x       y       z     vdW  Elec       q    Type
REMARK                         _______ _______ _______ _____ _____    ______ ____
ROOT
ATOM      1  N   UNL     1       1.059   8.376  20.516  0.00  0.00    +0.000 N 
ATOM      2  C   UNL     1       1.222   7.000  20.911  0.00  0.00    +0.000 C 
ATOM      3  C   UNL     1       1.868   6.356  19.741  0.00  0.00    +0.000 A 
ATOM      4  C   UNL     1       2.192   7.303  18.767  0.00  0.00    +0.000 A 
ATOM      5  C   UNL     1       3.037   6.954  17.699  0.00  0.00    +0.000 A 
ATOM      6  C   UNL     1       3.515   5.619  17.620  0.00  0.00    +0.000 A 
ATOM      7  C   UNL     1       3.030   4.667  18.561  0.00  0.00    +0.000 A 
ATOM      8  C   UNL     1       2.243   5.026  19.653  0.00  0.00    +0.000 A 
ATOM      9  C   UNL     1       1.595   8.605  19.234  0.00  0.00    +0.000 C 
ATOM     10  O   UNL     1       1.604   9.633  18.572  0.00  0.00    +0.000 OA
ENDROOT
BRANCH   1  15
ATOM     11  C   UNL     1      -1.031  11.335  21.589  0.00  0.00    +0.000 A 
ATOM     12  C   UNL     1      -0.950  11.169  22.979  0.00  0.00    +0.000 A 
ATOM     13  C   UNL     1      -0.333  10.046  23.551  0.00  0.00    +0.000 A 
ATOM     14  C   UNL     1       0.276   9.061  22.764  0.00  0.00    +0.000 A 
ATOM     15  C   UNL     1       0.289   9.209  21.383  0.00  0.00    +0.000 A 
ATOM     16  C   UNL     1      -0.417  10.316  20.832  0.00  0.00    +0.000 A 
BRANCH  11  17
ATOM     17  C   UNL     1      -1.741  12.622  20.880  0.00  0.00    +0.000 C 
ATOM     18  C   UNL     1      -3.290  12.691  21.016  0.00  0.00    +0.000 C 
ATOM     19  O   UNL     1      -3.487  12.653  19.592  0.00  0.00    +0.000 OA
ATOM     20  C   UNL     1      -2.066  12.547  19.358  0.00  0.00    +0.000 C 
BRANCH  17  21
ATOM     21  C   UNL     1      -1.069  13.953  21.304  0.00  0.00    +0.000 C 
BRANCH  21  27
ATOM     22  C   UNL     1       0.431  15.015  18.725  0.00  0.00    +0.000 C 
ATOM     23  N   UNL     1       1.023  14.483  19.922  0.00  0.00    +0.000 N 
ATOM     24  C   UNL     1       2.362  14.327  20.121  0.00  0.00    +0.000 A 
ATOM     25  N   UNL     1       2.569  13.788  21.297  0.00  0.00    +0.000 NA
ATOM     26  N   UNL     1       1.345  13.578  21.879  0.00  0.00    +0.000 NA
ATOM     27  C   UNL     1       0.408  14.016  21.059  0.00  0.00    +0.000 A 
ENDBRANCH  21  27
ENDBRANCH  17  21
ENDBRANCH  11  17
ENDBRANCH   1  15
BRANCH   8  28
ATOM     28  C   UNL     1       1.936   4.022  20.734  0.00  0.00    +0.000 C 
ATOM     29  F   UNL     1       2.454   2.791  20.499  0.00  0.00    +0.000 F 
ATOM     30  F   UNL     1       2.400   4.408  21.952  0.00  0.00    +0.000 F 
ATOM     31  F   UNL     1       0.595   3.828  20.882  0.00  0.00    +0.000 F 
ENDBRANCH   8  28
BRANCH   6  32
ATOM     32  C   UNL     1       4.775   5.132  16.891  0.00  0.00    +0.000 C 
BRANCH  32  33
ATOM     33  N   UNL     1       5.982   4.702  17.595  0.00  0.00    +0.000 NA
ATOM     34  C   UNL     1       6.700   5.823  18.222  0.00  0.00    +0.000 C 
ATOM     35  C   UNL     1       7.559   6.734  17.311  0.00  0.00    +0.000 C 
ATOM     36  O   UNL     1       7.682   6.405  15.933  0.00  0.00    +0.000 OA
ATOM     37  C   UNL     1       7.556   5.040  15.531  0.00  0.00    +0.000 C 
ATOM     38  C   UNL     1       6.939   4.105  16.620  0.00  0.00    +0.000 C 
BRANCH  37  39
ATOM     39  C   UNL     1       6.749   5.074  14.213  0.00  0.00    +0.000 C 
ATOM     40  C   UNL     1       7.571   5.038  12.893  0.00  0.00    +0.000 C 
ATOM     41  C   UNL     1       6.808   3.790  12.438  0.00  0.00    +0.000 C 
ATOM     42  C   UNL     1       5.966   3.836  13.716  0.00  0.00    +0.000 C 
ENDBRANCH  37  39
ENDBRANCH  32  33
ENDBRANCH   6  32
TORSDOF 8
ENDMDL
MODEL 5
REMARK VINA RESULT:     -10.2      2.375      3.044
REMARK  Name = 
REMARK  9 active torsions:
REMARK  status: ('A' for Active; 'I' for Inactive)
REMARK    1  A    between atoms: C_1  and  N_2
REMARK    2  A    between atoms: C_6  and  C_7
REMARK    3  A    between atoms: C_7  and  C_8
REMARK    4  A    between atoms: C_8  and  C_9
REMARK    5  A    between atoms: C_13  and  N_14
REMARK    6  A    between atoms: C_19  and  C_20
REMARK    7  A    between atoms: C_20  and  N_21
REMARK    8  A    between atoms: C_25  and  C_26
REMARK    9  A    between atoms: C_32  and  C_33
REMARK                            x       y       z     vdW  Elec       q    Type
REMARK                         _______ _______ _______ _____ _____    ______ ____
ROOT
ATOM      1  N   UNL     1       1.113   8.675  20.279  0.00  0.00    +0.000 N 
ATOM      2  C   UNL     1       1.272   7.328  20.764  0.00  0.00    +0.000 C 
ATOM      3  C   UNL     1       1.904   6.603  19.634  0.00  0.00    +0.000 A 
ATOM      4  C   UNL     1       2.223   7.480  18.595  0.00  0.00    +0.000 A 
ATOM      5  C   UNL     1       3.056   7.055  17.546  0.00  0.00    +0.000 A 
ATOM      6  C   UNL     1       3.526   5.716  17.553  0.00  0.00    +0.000 A 
ATOM      7  C   UNL     1       3.047   4.831  18.560  0.00  0.00    +0.000 A 
ATOM      8  C   UNL     1       2.271   5.268  19.633  0.00  0.00    +0.000 A 
ATOM      9  C   UNL     1       1.637   8.814  18.979  0.00  0.00    +0.000 C 
ATOM     10  O   UNL     1       1.644   9.795  18.249  0.00  0.00    +0.000 OA
ENDROOT
BRANCH   1  15
ATOM     11  C   UNL     1      -0.223  11.967  21.568  0.00  0.00    +0.000 A 
ATOM     12  C   UNL     1      -0.755  11.525  22.787  0.00  0.00    +0.000 A 
ATOM     13  C   UNL     1      -0.790  10.164  23.126  0.00  0.00    +0.000 A 
ATOM     14  C   UNL     1      -0.249   9.184  22.284  0.00  0.00    +0.000 A 
ATOM     15  C   UNL     1       0.355   9.569  21.095  0.00  0.00    +0.000 A 
ATOM     16  C   UNL     1       0.299  10.948  20.744  0.00  0.00    +0.000 A 
BRANCH  11  17
ATOM     17  C   UNL     1      -0.165  13.538  21.131  0.00  0.00    +0.000 C 
ATOM     18  C   UNL     1       0.978  14.370  21.781  0.00  0.00    +0.000 C 
ATOM     19  O   UNL     1       0.055  15.279  22.407  0.00  0.00    +0.000 OA
ATOM     20  C   UNL     1      -1.077  14.553  21.883  0.00  0.00    +0.000 C 
BRANCH  17  21
ATOM     21  C   UNL     1      -0.190  13.706  19.591  0.00  0.00    +0.000 C 
BRANCH  21  27
ATOM     22  C   UNL     1       2.755  13.177  18.556  0.00  0.00    +0.000 C 
ATOM     23  N   UNL     1       2.064  14.436  18.614  0.00  0.00    +0.000 N 
ATOM     24  C   UNL     1       2.600  15.633  18.245  0.00  0.00    +0.000 A 
ATOM     25  N   UNL     1       1.725  16.586  18.450  0.00  0.00    +0.000 NA
ATOM     26  N   UNL     1       0.595  16.008  18.971  0.00  0.00    +0.000 NA
ATOM     27  C   UNL     1       0.789  14.705  19.053  0.00  0.00    +0.000 A 
ENDBRANCH  21  27
ENDBRANCH  17  21
ENDBRANCH  11  17
ENDBRANCH   1  15
BRANCH   8  28
ATOM     28  C   UNL     1       1.970   4.341  20.782  0.00  0.00    +0.000 C 
ATOM     29  F   UNL     1       2.364   4.818  21.988  0.00  0.00    +0.000 F 
ATOM     30  F   UNL     1       0.644   4.062  20.894  0.00  0.00    +0.000 F 
ATOM     31  F   UNL     1       2.600   3.140  20.644  0.00  0.00    +0.000 F 
ENDBRANCH   8  28
BRANCH   6  32
ATOM     32  C   UNL     1       4.777   5.173  16.846  0.00  0.00    +0.000 C 
BRANCH  32  33
ATOM     33  N   UNL     1       5.960   4.711  17.571  0.00  0.00    +0.000 NA
ATOM     34  C   UNL     1       6.697   5.812  18.210  0.00  0.00    +0.000 C 
ATOM     35  C   UNL     1       7.596   6.698  17.314  0.00  0.00    +0.000 C 
ATOM     36  O   UNL     1       7.735   6.365  15.938  0.00  0.00    +0.000 OA
ATOM     37  C   UNL     1       7.577   5.004  15.535  0.00  0.00    +0.000 C 
ATOM     38  C   UNL     1       6.916   4.087  16.613  0.00  0.00    +0.000 C 
BRANCH  37  39
ATOM     39  C   UNL     1       6.795   5.058  14.203  0.00  0.00    +0.000 C 
ATOM     40  C   UNL     1       7.641   5.065  12.898  0.00  0.00    +0.000 C 
ATOM     41  C   UNL     1       6.904   3.819  12.400  0.00  0.00    +0.000 C 
ATOM     42  C   UNL     1       6.038   3.823  13.662  0.00  0.00    +0.000 C 
ENDBRANCH  37  39
ENDBRANCH  32  33
ENDBRANCH   6  32
TORSDOF 8
ENDMDL
MODEL 6
REMARK VINA RESULT:     -10.1      1.879      2.794
REMARK  Name = 
REMARK  9 active torsions:
REMARK  status: ('A' for Active; 'I' for Inactive)
REMARK    1  A    between atoms: C_1  and  N_2
REMARK    2  A    between atoms: C_6  and  C_7
REMARK    3  A    between atoms: C_7  and  C_8
REMARK    4  A    between atoms: C_8  and  C_9
REMARK    5  A    between atoms: C_13  and  N_14
REMARK    6  A    between atoms: C_19  and  C_20
REMARK    7  A    between atoms: C_20  and  N_21
REMARK    8  A    between atoms: C_25  and  C_26
REMARK    9  A    between atoms: C_32  and  C_33
REMARK                            x       y       z     vdW  Elec       q    Type
REMARK                         _______ _______ _______ _____ _____    ______ ____
ROOT
ATOM      1  N   UNL     1       1.398   7.938  20.226  0.00  0.00    +0.000 N 
ATOM      2  C   UNL     1       1.456   6.608  20.776  0.00  0.00    +0.000 C 
ATOM      3  C   UNL     1       2.116   5.802  19.720  0.00  0.00    +0.000 A 
ATOM      4  C   UNL     1       2.545   6.614  18.668  0.00  0.00    +0.000 A 
ATOM      5  C   UNL     1       3.417   6.101  17.693  0.00  0.00    +0.000 A 
ATOM      6  C   UNL     1       3.815   4.741  17.786  0.00  0.00    +0.000 A 
ATOM      7  C   UNL     1       3.227   3.928  18.797  0.00  0.00    +0.000 A 
ATOM      8  C   UNL     1       2.412   4.451  19.799  0.00  0.00    +0.000 A 
ATOM      9  C   UNL     1       2.007   7.992  18.958  0.00  0.00    +0.000 C 
ATOM     10  O   UNL     1       2.112   8.937  18.190  0.00  0.00    +0.000 OA
ENDROOT
BRANCH   1  15
ATOM     11  C   UNL     1      -0.604  11.083  20.841  0.00  0.00    +0.000 A 
ATOM     12  C   UNL     1      -0.561  11.100  22.243  0.00  0.00    +0.000 A 
ATOM     13  C   UNL     1       0.000  10.043  22.975  0.00  0.00    +0.000 A 
ATOM     14  C   UNL     1       0.590   8.942  22.342  0.00  0.00    +0.000 A 
ATOM     15  C   UNL     1       0.640   8.904  20.954  0.00  0.00    +0.000 A 
ATOM     16  C   UNL     1      -0.011   9.952  20.242  0.00  0.00    +0.000 A 
BRANCH  11  17
ATOM     17  C   UNL     1      -1.249  12.288  19.949  0.00  0.00    +0.000 C 
ATOM     18  C   UNL     1      -2.748  12.112  19.572  0.00  0.00    +0.000 C 
ATOM     19  O   UNL     1      -2.468  12.131  18.161  0.00  0.00    +0.000 OA
ATOM     20  C   UNL     1      -1.050  12.257  18.404  0.00  0.00    +0.000 C 
BRANCH  17  21
ATOM     21  C   UNL     1      -0.976  13.677  20.580  0.00  0.00    +0.000 C 
BRANCH  21  27
ATOM     22  C   UNL     1       2.182  13.443  20.596  0.00  0.00    +0.000 C 
ATOM     23  N   UNL     1       1.381  14.390  19.870  0.00  0.00    +0.000 N 
ATOM     24  C   UNL     1       1.879  15.378  19.074  0.00  0.00    +0.000 A 
ATOM     25  N   UNL     1       0.890  16.086  18.586  0.00  0.00    +0.000 NA
ATOM     26  N   UNL     1      -0.279  15.560  19.075  0.00  0.00    +0.000 NA
ATOM     27  C   UNL     1       0.012  14.521  19.835  0.00  0.00    +0.000 A 
ENDBRANCH  21  27
ENDBRANCH  17  21
ENDBRANCH  11  17
ENDBRANCH   1  15
BRANCH   8  28
ATOM     28  C   UNL     1       1.991   3.593  20.963  0.00  0.00    +0.000 C 
ATOM     29  F   UNL     1       2.460   2.322  20.902  0.00  0.00    +0.000 F 
ATOM     30  F   UNL     1       2.402   4.096  22.158  0.00  0.00    +0.000 F 
ATOM     31  F   UNL     1       0.636   3.476  21.046  0.00  0.00    +0.000 F 
ENDBRANCH   8  28
BRANCH   6  32
ATOM     32  C   UNL     1       5.076   4.105  17.184  0.00  0.00    +0.000 C 
BRANCH  32  33
ATOM     33  N   UNL     1       6.401   4.251  17.784  0.00  0.00    +0.000 NA
ATOM     34  C   UNL     1       6.561   5.527  18.497  0.00  0.00    +0.000 C 
ATOM     35  C   UNL     1       6.807   6.802  17.655  0.00  0.00    +0.000 C 
ATOM     36  O   UNL     1       6.947   6.676  16.244  0.00  0.00    +0.000 OA
ATOM     37  C   UNL     1       7.440   5.450  15.703  0.00  0.00    +0.000 C 
ATOM     38  C   UNL     1       7.435   4.255  16.709  0.00  0.00    +0.000 C 
BRANCH  37  39
ATOM     39  C   UNL     1       6.597   5.194  14.432  0.00  0.00    +0.000 C 
ATOM     40  C   UNL     1       7.373   5.121  13.086  0.00  0.00    +0.000 C 
ATOM     41  C   UNL     1       6.804   3.724  12.821  0.00  0.00    +0.000 C 
ATOM     42  C   UNL     1       6.006   3.798  14.126  0.00  0.00    +0.000 C 
ENDBRANCH  37  39
ENDBRANCH  32  33
ENDBRANCH   6  32
TORSDOF 8
ENDMDL
MODEL 7
REMARK VINA RESULT:     -10.1      2.777      3.631
REMARK  Name = 
REMARK  9 active torsions:
REMARK  status: ('A' for Active; 'I' for Inactive)
REMARK    1  A    between atoms: C_1  and  N_2
REMARK    2  A    between atoms: C_6  and  C_7
REMARK    3  A    between atoms: C_7  and  C_8
REMARK    4  A    between atoms: C_8  and  C_9
REMARK    5  A    between atoms: C_13  and  N_14
REMARK    6  A    between atoms: C_19  and  C_20
REMARK    7  A    between atoms: C_20  and  N_21
REMARK    8  A    between atoms: C_25  and  C_26
REMARK    9  A    between atoms: C_32  and  C_33
REMARK                            x       y       z     vdW  Elec       q    Type
REMARK                         _______ _______ _______ _____ _____    ______ ____
ROOT
ATOM      1  N   UNL     1       1.120   8.662  20.366  0.00  0.00    +0.000 N 
ATOM      2  C   UNL     1       1.272   7.306  20.828  0.00  0.00    +0.000 C 
ATOM      3  C   UNL     1       1.908   6.599  19.689  0.00  0.00    +0.000 A 
ATOM      4  C   UNL     1       2.237   7.493  18.668  0.00  0.00    +0.000 A 
ATOM      5  C   UNL     1       3.075   7.084  17.617  0.00  0.00    +0.000 A 
ATOM      6  C   UNL     1       3.541   5.743  17.603  0.00  0.00    +0.000 A 
ATOM      7  C   UNL     1       3.052   4.843  18.591  0.00  0.00    +0.000 A 
ATOM      8  C   UNL     1       2.271   5.263  19.667  0.00  0.00    +0.000 A 
ATOM      9  C   UNL     1       1.653   8.822  19.072  0.00  0.00    +0.000 C 
ATOM     10  O   UNL     1       1.669   9.816  18.360  0.00  0.00    +0.000 OA
ENDROOT
BRANCH   1  15
ATOM     11  C   UNL     1      -0.262  11.931  21.664  0.00  0.00    +0.000 A 
ATOM     12  C   UNL     1      -0.758  11.485  22.897  0.00  0.00    +0.000 A 
ATOM     13  C   UNL     1      -0.755  10.125  23.244  0.00  0.00    +0.000 A 
ATOM     14  C   UNL     1      -0.210   9.152  22.397  0.00  0.00    +0.000 A 
ATOM     15  C   UNL     1       0.360   9.544  21.193  0.00  0.00    +0.000 A 
ATOM     16  C   UNL     1       0.266  10.919  20.835  0.00  0.00    +0.000 A 
BRANCH  11  17
ATOM     17  C   UNL     1      -0.248  13.500  21.217  0.00  0.00    +0.000 C 
ATOM     18  C   UNL     1      -0.194  13.758  19.684  0.00  0.00    +0.000 C 
ATOM     19  O   UNL     1       1.049  14.475  19.777  0.00  0.00    +0.000 OA
ATOM     20  C   UNL     1       1.113  14.257  21.203  0.00  0.00    +0.000 C 
BRANCH  17  21
ATOM     21  C   UNL     1      -1.393  14.298  21.892  0.00  0.00    +0.000 C 
BRANCH  21  27
ATOM     22  C   UNL     1      -0.812  17.409  21.763  0.00  0.00    +0.000 C 
ATOM     23  N   UNL     1      -0.711  16.549  22.911  0.00  0.00    +0.000 N 
ATOM     24  C   UNL     1      -0.311  16.953  24.149  0.00  0.00    +0.000 A 
ATOM     25  N   UNL     1      -0.295  15.925  24.961  0.00  0.00    +0.000 NA
ATOM     26  N   UNL     1      -0.684  14.823  24.242  0.00  0.00    +0.000 NA
ATOM     27  C   UNL     1      -0.956  15.200  23.007  0.00  0.00    +0.000 A 
ENDBRANCH  21  27
ENDBRANCH  17  21
ENDBRANCH  11  17
ENDBRANCH   1  15
BRANCH   8  28
ATOM     28  C   UNL     1       1.959   4.316  20.797  0.00  0.00    +0.000 C 
ATOM     29  F   UNL     1       2.378   4.755  22.009  0.00  0.00    +0.000 F 
ATOM     30  F   UNL     1       0.627   4.069  20.918  0.00  0.00    +0.000 F 
ATOM     31  F   UNL     1       2.556   3.104  20.623  0.00  0.00    +0.000 F 
ENDBRANCH   8  28
BRANCH   6  32
ATOM     32  C   UNL     1       4.795   5.209  16.895  0.00  0.00    +0.000 C 
BRANCH  32  33
ATOM     33  N   UNL     1       5.978   4.748  17.619  0.00  0.00    +0.000 NA
ATOM     34  C   UNL     1       6.717   5.850  18.254  0.00  0.00    +0.000 C 
ATOM     35  C   UNL     1       7.615   6.734  17.354  0.00  0.00    +0.000 C 
ATOM     36  O   UNL     1       7.751   6.396  15.978  0.00  0.00    +0.000 OA
ATOM     37  C   UNL     1       7.592   5.035  15.579  0.00  0.00    +0.000 C 
ATOM     38  C   UNL     1       6.933   4.121  16.660  0.00  0.00    +0.000 C 
BRANCH  37  39
ATOM     39  C   UNL     1       6.807   5.086  14.248  0.00  0.00    +0.000 C 
ATOM     40  C   UNL     1       7.650   5.056  12.941  0.00  0.00    +0.000 C 
ATOM     41  C   UNL     1       6.884   3.818  12.463  0.00  0.00    +0.000 C 
ATOM     42  C   UNL     1       6.023   3.859  13.728  0.00  0.00    +0.000 C 
ENDBRANCH  37  39
ENDBRANCH  32  33
ENDBRANCH   6  32
TORSDOF 8
ENDMDL
MODEL 8
REMARK VINA RESULT:     -10.1      2.543      3.612
REMARK  Name = 
REMARK  9 active torsions:
REMARK  status: ('A' for Active; 'I' for Inactive)
REMARK    1  A    between atoms: C_1  and  N_2
REMARK    2  A    between atoms: C_6  and  C_7
REMARK    3  A    between atoms: C_7  and  C_8
REMARK    4  A    between atoms: C_8  and  C_9
REMARK    5  A    between atoms: C_13  and  N_14
REMARK    6  A    between atoms: C_19  and  C_20
REMARK    7  A    between atoms: C_20  and  N_21
REMARK    8  A    between atoms: C_25  and  C_26
REMARK    9  A    between atoms: C_32  and  C_33
REMARK                            x       y       z     vdW  Elec       q    Type
REMARK                         _______ _______ _______ _____ _____    ______ ____
ROOT
ATOM      1  N   UNL     1       1.073   8.682  20.375  0.00  0.00    +0.000 N 
ATOM      2  C   UNL     1       1.219   7.323  20.829  0.00  0.00    +0.000 C 
ATOM      3  C   UNL     1       1.857   6.621  19.688  0.00  0.00    +0.000 A 
ATOM      4  C   UNL     1       2.192   7.520  18.673  0.00  0.00    +0.000 A 
ATOM      5  C   UNL     1       3.032   7.115  17.622  0.00  0.00    +0.000 A 
ATOM      6  C   UNL     1       3.493   5.772  17.602  0.00  0.00    +0.000 A 
ATOM      7  C   UNL     1       2.998   4.867  18.583  0.00  0.00    +0.000 A 
ATOM      8  C   UNL     1       2.215   5.284  19.658  0.00  0.00    +0.000 A 
ATOM      9  C   UNL     1       1.611   8.849  19.083  0.00  0.00    +0.000 C 
ATOM     10  O   UNL     1       1.633   9.847  18.378  0.00  0.00    +0.000 OA
ENDROOT
BRANCH   1  15
ATOM     11  C   UNL     1      -0.377  11.938  21.629  0.00  0.00    +0.000 A 
ATOM     12  C   UNL     1      -0.809  11.513  22.894  0.00  0.00    +0.000 A 
ATOM     13  C   UNL     1      -0.743  10.166  23.280  0.00  0.00    +0.000 A 
ATOM     14  C   UNL     1      -0.196   9.187  22.441  0.00  0.00    +0.000 A 
ATOM     15  C   UNL     1       0.313   9.562  21.204  0.00  0.00    +0.000 A 
ATOM     16  C   UNL     1       0.156  10.921  20.810  0.00  0.00    +0.000 A 
BRANCH  11  17
ATOM     17  C   UNL     1      -0.437  13.493  21.137  0.00  0.00    +0.000 C 
ATOM     18  C   UNL     1      -0.770  14.533  22.246  0.00  0.00    +0.000 C 
ATOM     19  O   UNL     1      -1.957  14.981  21.568  0.00  0.00    +0.000 OA
ATOM     20  C   UNL     1      -1.760  14.022  20.506  0.00  0.00    +0.000 C 
BRANCH  17  21
ATOM     21  C   UNL     1       0.831  13.891  20.341  0.00  0.00    +0.000 C 
BRANCH  21  27
ATOM     22  C   UNL     1       1.641  16.949  20.186  0.00  0.00    +0.000 C 
ATOM     23  N   UNL     1       2.201  15.941  21.044  0.00  0.00    +0.000 N 
ATOM     24  C   UNL     1       3.215  16.152  21.929  0.00  0.00    +0.000 A 
ATOM     25  N   UNL     1       3.511  15.026  22.530  0.00  0.00    +0.000 NA
ATOM     26  N   UNL     1       2.684  14.055  22.026  0.00  0.00    +0.000 NA
ATOM     27  C   UNL     1       1.875  14.609  21.142  0.00  0.00    +0.000 A 
ENDBRANCH  21  27
ENDBRANCH  17  21
ENDBRANCH  11  17
ENDBRANCH   1  15
BRANCH   8  28
ATOM     28  C   UNL     1       1.896   4.331  20.781  0.00  0.00    +0.000 C 
ATOM     29  F   UNL     1       2.432   4.692  21.973  0.00  0.00    +0.000 F 
ATOM     30  F   UNL     1       0.558   4.196  20.987  0.00  0.00    +0.000 F 
ATOM     31  F   UNL     1       2.371   3.078  20.535  0.00  0.00    +0.000 F 
ENDBRANCH   8  28
BRANCH   6  32
ATOM     32  C   UNL     1       4.748   5.238  16.895  0.00  0.00    +0.000 C 
BRANCH  32  33
ATOM     33  N   UNL     1       5.922   4.757  17.620  0.00  0.00    +0.000 NA
ATOM     34  C   UNL     1       6.688   5.847  18.242  0.00  0.00    +0.000 C 
ATOM     35  C   UNL     1       7.604   6.701  17.332  0.00  0.00    +0.000 C 
ATOM     36  O   UNL     1       7.728   6.348  15.959  0.00  0.00    +0.000 OA
ATOM     37  C   UNL     1       7.537   4.986  15.573  0.00  0.00    +0.000 C 
ATOM     38  C   UNL     1       6.859   4.098  16.665  0.00  0.00    +0.000 C 
BRANCH  37  39
ATOM     39  C   UNL     1       6.750   5.044  14.244  0.00  0.00    +0.000 C 
ATOM     40  C   UNL     1       7.592   5.106  12.938  0.00  0.00    +0.000 C 
ATOM     41  C   UNL     1       6.894   3.847  12.415  0.00  0.00    +0.000 C 
ATOM     42  C   UNL     1       6.032   3.796  13.679  0.00  0.00    +0.000 C 
ENDBRANCH  37  39
ENDBRANCH  32  33
ENDBRANCH   6  32
TORSDOF 8
ENDMDL
MODEL 9
REMARK VINA RESULT:     -10.0      2.105      3.109
REMARK  Name = 
REMARK  9 active torsions:
REMARK  status: ('A' for Active; 'I' for Inactive)
REMARK    1  A    between atoms: C_1  and  N_2
REMARK    2  A    between atoms: C_6  and  C_7
REMARK    3  A    between atoms: C_7  and  C_8
REMARK    4  A    between atoms: C_8  and  C_9
REMARK    5  A    between atoms: C_13  and  N_14
REMARK    6  A    between atoms: C_19  and  C_20
REMARK    7  A    between atoms: C_20  and  N_21
REMARK    8  A    between atoms: C_25  and  C_26
REMARK    9  A    between atoms: C_32  and  C_33
REMARK                            x       y       z     vdW  Elec       q    Type
REMARK                         _______ _______ _______ _____ _____    ______ ____
ROOT
ATOM      1  N   UNL     1       1.398   7.903  20.291  0.00  0.00    +0.000 N 
ATOM      2  C   UNL     1       1.443   6.561  20.813  0.00  0.00    +0.000 C 
ATOM      3  C   UNL     1       2.097   5.771  19.740  0.00  0.00    +0.000 A 
ATOM      4  C   UNL     1       2.534   6.601  18.706  0.00  0.00    +0.000 A 
ATOM      5  C   UNL     1       3.402   6.101  17.720  0.00  0.00    +0.000 A 
ATOM      6  C   UNL     1       3.788   4.736  17.785  0.00  0.00    +0.000 A 
ATOM      7  C   UNL     1       3.192   3.908  18.779  0.00  0.00    +0.000 A 
ATOM      8  C   UNL     1       2.381   4.417  19.791  0.00  0.00    +0.000 A 
ATOM      9  C   UNL     1       2.009   7.978  19.023  0.00  0.00    +0.000 C 
ATOM     10  O   UNL     1       2.122   8.938  18.276  0.00  0.00    +0.000 OA
ENDROOT
BRANCH   1  15
ATOM     11  C   UNL     1      -0.367  11.158  21.045  0.00  0.00    +0.000 A 
ATOM     12  C   UNL     1      -0.496  11.021  22.434  0.00  0.00    +0.000 A 
ATOM     13  C   UNL     1      -0.130   9.838  23.094  0.00  0.00    +0.000 A 
ATOM     14  C   UNL     1       0.429   8.755  22.405  0.00  0.00    +0.000 A 
ATOM     15  C   UNL     1       0.648   8.861  21.037  0.00  0.00    +0.000 A 
ATOM     16  C   UNL     1       0.189  10.042  20.386  0.00  0.00    +0.000 A 
BRANCH  11  17
ATOM     17  C   UNL     1      -0.782  12.513  20.235  0.00  0.00    +0.000 C 
ATOM     18  C   UNL     1      -2.017  12.380  19.298  0.00  0.00    +0.000 C 
ATOM     19  O   UNL     1      -1.256  12.727  18.128  0.00  0.00    +0.000 OA
ATOM     20  C   UNL     1      -0.042  12.839  18.903  0.00  0.00    +0.000 C 
BRANCH  17  21
ATOM     21  C   UNL     1      -0.912  13.731  21.185  0.00  0.00    +0.000 C 
BRANCH  21  27
ATOM     22  C   UNL     1       0.011  16.526  20.018  0.00  0.00    +0.000 C 
ATOM     23  N   UNL     1       0.738  15.675  20.920  0.00  0.00    +0.000 N 
ATOM     24  C   UNL     1       1.984  15.940  21.402  0.00  0.00    +0.000 A 
ATOM     25  N   UNL     1       2.374  14.953  22.171  0.00  0.00    +0.000 NA
ATOM     26  N   UNL     1       1.371  14.018  22.188  0.00  0.00    +0.000 NA
ATOM     27  C   UNL     1       0.370  14.460  21.449  0.00  0.00    +0.000 A 
ENDBRANCH  21  27
ENDBRANCH  17  21
ENDBRANCH  11  17
ENDBRANCH   1  15
BRANCH   8  28
ATOM     28  C   UNL     1       1.952   3.538  20.937  0.00  0.00    +0.000 C 
ATOM     29  F   UNL     1       0.607   3.407  21.051  0.00  0.00    +0.000 F 
ATOM     30  F   UNL     1       2.454   2.278  20.845  0.00  0.00    +0.000 F 
ATOM     31  F   UNL     1       2.371   4.028  22.138  0.00  0.00    +0.000 F 
ENDBRANCH   8  28
BRANCH   6  32
ATOM     32  C   UNL     1       5.044   4.102  17.171  0.00  0.00    +0.000 C 
BRANCH  32  33
ATOM     33  N   UNL     1       6.371   4.229  17.771  0.00  0.00    +0.000 NA
ATOM     34  C   UNL     1       6.548   5.502  18.486  0.00  0.00    +0.000 C 
ATOM     35  C   UNL     1       6.810   6.775  17.645  0.00  0.00    +0.000 C 
ATOM     36  O   UNL     1       6.948   6.649  16.234  0.00  0.00    +0.000 OA
ATOM     37  C   UNL     1       7.424   5.417  15.691  0.00  0.00    +0.000 C 
ATOM     38  C   UNL     1       7.404   4.222  16.696  0.00  0.00    +0.000 C 
BRANCH  37  39
ATOM     39  C   UNL     1       6.578   5.175  14.420  0.00  0.00    +0.000 C 
ATOM     40  C   UNL     1       7.351   5.107  13.072  0.00  0.00    +0.000 C 
ATOM     41  C   UNL     1       6.775   3.714  12.799  0.00  0.00    +0.000 C 
ATOM     42  C   UNL     1       5.980   3.784  14.105  0.00  0.00    +0.000 C 
ENDBRANCH  37  39
ENDBRANCH  32  33
ENDBRANCH   6  32
TORSDOF 8
ENDMDL
