MODEL 1
REMARK VINA RESULT:      -9.1      0.000      0.000
REMARK  Name = 
REMARK  9 active torsions:
REMARK  status: ('A' for Active; 'I' for Inactive)
REMARK    1  A    between atoms: C_1  and  C_2
REMARK    2  A    between atoms: C_2  and  C_3
REMARK    3  A    between atoms: C_2  and  C_10
REMARK    4  A    between atoms: C_3  and  C_4
REMARK    5  A    between atoms: N_8  and  C_9
REMARK    6  A    between atoms: C_14  and  C_15
REMARK    7  A    between atoms: C_19  and  N_20
REMARK    8  A    between atoms: C_22  and  O_23
REMARK    9  A    between atoms: C_26  and  C_27
REMARK                            x       y       z     vdW  Elec       q    Type
REMARK                         _______ _______ _______ _____ _____    ______ ____
ROOT
ATOM      1  C   UNL     1       2.376   7.755  18.704  0.00  0.00    +0.000 A 
ATOM      2  N   UNL     1       3.241   8.329  17.806  0.00  0.00    +0.000 N 
ATOM      3  N   UNL     1       4.011   7.468  17.111  0.00  0.00    +0.000 NA
ATOM      4  C   UNL     1       3.640   6.244  17.548  0.00  0.00    +0.000 A 
ATOM      5  C   UNL     1       4.112   4.959  17.183  0.00  0.00    +0.000 A 
ATOM      6  C   UNL     1       3.444   3.931  17.879  0.00  0.00    +0.000 A 
ATOM      7  C   UNL     1       2.444   4.172  18.853  0.00  0.00    +0.000 A 
ATOM      8  N   UNL     1       1.992   5.412  19.220  0.00  0.00    +0.000 NA
ATOM      9  C   UNL     1       2.609   6.412  18.546  0.00  0.00    +0.000 A 
ATOM     10  H   UNL     1       3.351   9.317  17.610  0.00  0.00    +0.000 HD
ENDROOT
BRANCH   1  15
ATOM     11  C   UNL     1      -0.204  10.307  19.851  0.00  0.00    +0.000 A 
ATOM     12  C   UNL     1      -0.319   9.939  21.198  0.00  0.00    +0.000 A 
ATOM     13  C   UNL     1       0.429   8.888  21.729  0.00  0.00    +0.000 A 
ATOM     14  C   UNL     1       1.311   8.173  20.921  0.00  0.00    +0.000 A 
ATOM     15  C   UNL     1       1.466   8.510  19.572  0.00  0.00    +0.000 A 
ATOM     16  C   UNL     1       0.711   9.584  19.059  0.00  0.00    +0.000 A 
BRANCH  11  18
ATOM     17  C   UNL     1      -0.940  12.756  20.045  0.00  0.00    +0.000 C 
ATOM     18  C   UNL     1      -1.008  11.457  19.223  0.00  0.00    +0.000 C 
BRANCH  18  19
ATOM     19  C   UNL     1      -2.474  11.035  18.954  0.00  0.00    +0.000 C 
BRANCH  19  20
ATOM     20  C   UNL     1      -2.776  10.749  17.518  0.00  0.00    +0.000 A 
ATOM     21  N   UNL     1      -2.002  10.085  16.681  0.00  0.00    +0.000 NA
ATOM     22  N   UNL     1      -2.600  10.083  15.444  0.00  0.00    +0.000 NA
ATOM     23  C   UNL     1      -3.726  10.748  15.546  0.00  0.00    +0.000 A 
ATOM     24  N   UNL     1      -3.895  11.156  16.832  0.00  0.00    +0.000 N 
ATOM     25  C   UNL     1      -5.034  11.867  17.346  0.00  0.00    +0.000 C 
ENDBRANCH  19  20
ENDBRANCH  18  19
ENDBRANCH  11  18
ENDBRANCH   1  15
BRANCH   5  26
ATOM     26  N   UNL     1       5.084   4.644  16.224  0.00  0.00    +0.000 N 
ATOM     27  C   UNL     1       5.548   5.418  15.109  0.00  0.00    +0.000 C 
ATOM     28  C   UNL     1       6.647   4.338  14.956  0.00  0.00    +0.000 C 
ATOM     29  C   UNL     1       6.378   4.064  16.448  0.00  0.00    +0.000 C 
BRANCH  28  30
ATOM     30  O   UNL     1       6.346   3.242  14.055  0.00  0.00    +0.000 OA
ATOM     31  H   UNL     1       5.630   3.596  13.496  0.00  0.00    +0.000 HD
ENDBRANCH  28  30
ENDBRANCH   5  26
BRANCH   7  32
ATOM     32  C   UNL     1       1.826   2.967  19.558  0.00  0.00    +0.000 C 
ATOM     33  F   UNL     1       2.446   1.787  19.259  0.00  0.00    +0.000 F 
ATOM     34  F   UNL     1       1.870   3.067  20.916  0.00  0.00    +0.000 F 
ATOM     35  F   UNL     1       0.513   2.777  19.234  0.00  0.00    +0.000 F 
ENDBRANCH   7  32
TORSDOF 7
ENDMDL
MODEL 2
REMARK VINA RESULT:      -9.0      0.757      1.121
REMARK  Name = 
REMARK  9 active torsions:
REMARK  status: ('A' for Active; 'I' for Inactive)
REMARK    1  A    between atoms: C_1  and  C_2
REMARK    2  A    between atoms: C_2  and  C_3
REMARK    3  A    between atoms: C_2  and  C_10
REMARK    4  A    between atoms: C_3  and  C_4
REMARK    5  A    between atoms: N_8  and  C_9
REMARK    6  A    between atoms: C_14  and  C_15
REMARK    7  A    between atoms: C_19  and  N_20
REMARK    8  A    between atoms: C_22  and  O_23
REMARK    9  A    between atoms: C_26  and  C_27
REMARK                            x       y       z     vdW  Elec       q    Type
REMARK                         _______ _______ _______ _____ _____    ______ ____
ROOT
ATOM      1  C   UNL     1       2.381   7.872  18.880  0.00  0.00    +0.000 A 
ATOM      2  N   UNL     1       3.195   8.445  17.935  0.00  0.00    +0.000 N 
ATOM      3  N   UNL     1       4.065   7.610  17.334  0.00  0.00    +0.000 NA
ATOM      4  C   UNL     1       3.821   6.401  17.889  0.00  0.00    +0.000 A 
ATOM      5  C   UNL     1       4.435   5.146  17.658  0.00  0.00    +0.000 A 
ATOM      6  C   UNL     1       3.871   4.125  18.450  0.00  0.00    +0.000 A 
ATOM      7  C   UNL     1       2.833   4.351  19.388  0.00  0.00    +0.000 A 
ATOM      8  N   UNL     1       2.243   5.564  19.626  0.00  0.00    +0.000 NA
ATOM      9  C   UNL     1       2.761   6.554  18.860  0.00  0.00    +0.000 A 
ATOM     10  H   UNL     1       3.200   9.415  17.641  0.00  0.00    +0.000 HD
ENDROOT
BRANCH   1  15
ATOM     11  C   UNL     1      -0.492  10.213  19.747  0.00  0.00    +0.000 A 
ATOM     12  C   UNL     1      -0.577   9.984  21.126  0.00  0.00    +0.000 A 
ATOM     13  C   UNL     1       0.284   9.092  21.767  0.00  0.00    +0.000 A 
ATOM     14  C   UNL     1       1.252   8.402  21.041  0.00  0.00    +0.000 A 
ATOM     15  C   UNL     1       1.380   8.606  19.663  0.00  0.00    +0.000 A 
ATOM     16  C   UNL     1       0.509   9.520  19.036  0.00  0.00    +0.000 A 
BRANCH  11  18
ATOM     17  C   UNL     1      -1.694  12.479  19.784  0.00  0.00    +0.000 C 
ATOM     18  C   UNL     1      -1.418  11.185  18.998  0.00  0.00    +0.000 C 
BRANCH  18  19
ATOM     19  C   UNL     1      -2.737  10.489  18.576  0.00  0.00    +0.000 C 
BRANCH  19  20
ATOM     20  C   UNL     1      -2.972  10.464  17.100  0.00  0.00    +0.000 A 
ATOM     21  N   UNL     1      -2.228   9.836  16.208  0.00  0.00    +0.000 NA
ATOM     22  N   UNL     1      -2.735  10.097  14.959  0.00  0.00    +0.000 NA
ATOM     23  C   UNL     1      -3.777  10.881  15.107  0.00  0.00    +0.000 A 
ATOM     24  N   UNL     1      -3.983  11.111  16.432  0.00  0.00    +0.000 N 
ATOM     25  C   UNL     1      -5.059  11.881  16.994  0.00  0.00    +0.000 C 
ENDBRANCH  19  20
ENDBRANCH  18  19
ENDBRANCH  11  18
ENDBRANCH   1  15
BRANCH   5  26
ATOM     26  N   UNL     1       5.452   4.846  16.742  0.00  0.00    +0.000 N 
ATOM     27  C   UNL     1       6.788   4.386  16.982  0.00  0.00    +0.000 C 
ATOM     28  C   UNL     1       6.874   4.170  15.451  0.00  0.00    +0.000 C 
ATOM     29  C   UNL     1       5.337   4.090  15.526  0.00  0.00    +0.000 C 
BRANCH  28  30
ATOM     30  O   UNL     1       7.405   5.276  14.677  0.00  0.00    +0.000 OA
ATOM     31  H   UNL     1       8.368   5.212  14.818  0.00  0.00    +0.000 HD
ENDBRANCH  28  30
ENDBRANCH   5  26
BRANCH   7  32
ATOM     32  C   UNL     1       2.337   3.160  20.206  0.00  0.00    +0.000 C 
ATOM     33  F   UNL     1       1.105   3.358  20.760  0.00  0.00    +0.000 F 
ATOM     34  F   UNL     1       2.225   2.021  19.468  0.00  0.00    +0.000 F 
ATOM     35  F   UNL     1       3.160   2.855  21.252  0.00  0.00    +0.000 F 
ENDBRANCH   7  32
TORSDOF 7
ENDMDL
MODEL 3
REMARK VINA RESULT:      -8.8      2.881      3.961
REMARK  Name = 
REMARK  9 active torsions:
REMARK  status: ('A' for Active; 'I' for Inactive)
REMARK    1  A    between atoms: C_1  and  C_2
REMARK    2  A    between atoms: C_2  and  C_3
REMARK    3  A    between atoms: C_2  and  C_10
REMARK    4  A    between atoms: C_3  and  C_4
REMARK    5  A    between atoms: N_8  and  C_9
REMARK    6  A    between atoms: C_14  and  C_15
REMARK    7  A    between atoms: C_19  and  N_20
REMARK    8  A    between atoms: C_22  and  O_23
REMARK    9  A    between atoms: C_26  and  C_27
REMARK                            x       y       z     vdW  Elec       q    Type
REMARK                         _______ _______ _______ _____ _____    ______ ____
ROOT
ATOM      1  C   UNL     1       2.056   8.413  18.478  0.00  0.00    +0.000 A 
ATOM      2  N   UNL     1       2.961   8.838  17.537  0.00  0.00    +0.000 N 
ATOM      3  N   UNL     1       3.920   7.950  17.212  0.00  0.00    +0.000 NA
ATOM      4  C   UNL     1       3.646   6.857  17.959  0.00  0.00    +0.000 A 
ATOM      5  C   UNL     1       4.320   5.615  18.047  0.00  0.00    +0.000 A 
ATOM      6  C   UNL     1       3.694   4.734  18.953  0.00  0.00    +0.000 A 
ATOM      7  C   UNL     1       2.545   5.079  19.707  0.00  0.00    +0.000 A 
ATOM      8  N   UNL     1       1.897   6.283  19.637  0.00  0.00    +0.000 NA
ATOM      9  C   UNL     1       2.474   7.136  18.756  0.00  0.00    +0.000 A 
ATOM     10  H   UNL     1       2.973   9.734  17.064  0.00  0.00    +0.000 HD
ENDROOT
BRANCH   1  15
ATOM     11  C   UNL     1      -0.169  10.357  20.877  0.00  0.00    +0.000 A 
ATOM     12  C   UNL     1      -1.133  10.829  19.977  0.00  0.00    +0.000 A 
ATOM     13  C   UNL     1      -1.069  10.519  18.618  0.00  0.00    +0.000 A 
ATOM     14  C   UNL     1      -0.032   9.731  18.123  0.00  0.00    +0.000 A 
ATOM     15  C   UNL     1       0.948   9.229  18.986  0.00  0.00    +0.000 A 
ATOM     16  C   UNL     1       0.858   9.542  20.357  0.00  0.00    +0.000 A 
BRANCH  11  18
ATOM     17  C   UNL     1      -0.112   9.412  23.261  0.00  0.00    +0.000 C 
ATOM     18  C   UNL     1      -0.198  10.672  22.381  0.00  0.00    +0.000 C 
BRANCH  18  19
ATOM     19  C   UNL     1      -1.432  11.534  22.749  0.00  0.00    +0.000 C 
BRANCH  19  20
ATOM     20  C   UNL     1      -1.123  12.977  22.990  0.00  0.00    +0.000 A 
ATOM     21  N   UNL     1      -0.021  13.605  22.623  0.00  0.00    +0.000 NA
ATOM     22  N   UNL     1      -0.088  14.900  23.074  0.00  0.00    +0.000 NA
ATOM     23  C   UNL     1      -1.226  15.041  23.711  0.00  0.00    +0.000 A 
ATOM     24  N   UNL     1      -1.922  13.873  23.657  0.00  0.00    +0.000 N 
ATOM     25  C   UNL     1      -3.236  13.651  24.196  0.00  0.00    +0.000 C 
ENDBRANCH  19  20
ENDBRANCH  18  19
ENDBRANCH  11  18
ENDBRANCH   1  15
BRANCH   5  26
ATOM     26  N   UNL     1       5.447   5.199  17.326  0.00  0.00    +0.000 N 
ATOM     27  C   UNL     1       6.784   4.955  17.786  0.00  0.00    +0.000 C 
ATOM     28  C   UNL     1       7.046   4.368  16.377  0.00  0.00    +0.000 C 
ATOM     29  C   UNL     1       5.521   4.153  16.345  0.00  0.00    +0.000 C 
BRANCH  28  30
ATOM     30  O   UNL     1       7.567   5.292  15.387  0.00  0.00    +0.000 OA
ATOM     31  H   UNL     1       8.479   5.459  15.687  0.00  0.00    +0.000 HD
ENDBRANCH  28  30
ENDBRANCH   5  26
BRANCH   7  32
ATOM     32  C   UNL     1       1.989   4.042  20.679  0.00  0.00    +0.000 C 
ATOM     33  F   UNL     1       0.624   3.997  20.704  0.00  0.00    +0.000 F 
ATOM     34  F   UNL     1       2.388   2.772  20.385  0.00  0.00    +0.000 F 
ATOM     35  F   UNL     1       2.367   4.268  21.971  0.00  0.00    +0.000 F 
ENDBRANCH   7  32
TORSDOF 7
ENDMDL
MODEL 4
REMARK VINA RESULT:      -8.7      2.171      3.274
REMARK  Name = 
REMARK  9 active torsions:
REMARK  status: ('A' for Active; 'I' for Inactive)
REMARK    1  A    between atoms: C_1  and  C_2
REMARK    2  A    between atoms: C_2  and  C_3
REMARK    3  A    between atoms: C_2  and  C_10
REMARK    4  A    between atoms: C_3  and  C_4
REMARK    5  A    between atoms: N_8  and  C_9
REMARK    6  A    between atoms: C_14  and  C_15
REMARK    7  A    between atoms: C_19  and  N_20
REMARK    8  A    between atoms: C_22  and  O_23
REMARK    9  A    between atoms: C_26  and  C_27
REMARK                            x       y       z     vdW  Elec       q    Type
REMARK                         _______ _______ _______ _____ _____    ______ ____
ROOT
ATOM      1  C   UNL     1       2.286   7.864  18.978  0.00  0.00    +0.000 A 
ATOM      2  N   UNL     1       2.919   8.401  17.884  0.00  0.00    +0.000 N 
ATOM      3  N   UNL     1       3.738   7.564  17.218  0.00  0.00    +0.000 NA
ATOM      4  C   UNL     1       3.647   6.391  17.883  0.00  0.00    +0.000 A 
ATOM      5  C   UNL     1       4.291   5.152  17.648  0.00  0.00    +0.000 A 
ATOM      6  C   UNL     1       3.908   4.168  18.583  0.00  0.00    +0.000 A 
ATOM      7  C   UNL     1       3.008   4.416  19.649  0.00  0.00    +0.000 A 
ATOM      8  N   UNL     1       2.391   5.614  19.890  0.00  0.00    +0.000 NA
ATOM      9  C   UNL     1       2.734   6.567  18.989  0.00  0.00    +0.000 A 
ATOM     10  H   UNL     1       2.826   9.346  17.528  0.00  0.00    +0.000 HD
ENDROOT
BRANCH   1  15
ATOM     11  C   UNL     1      -0.392  10.314  20.120  0.00  0.00    +0.000 A 
ATOM     12  C   UNL     1      -0.426  10.009  21.486  0.00  0.00    +0.000 A 
ATOM     13  C   UNL     1       0.408   9.032  22.031  0.00  0.00    +0.000 A 
ATOM     14  C   UNL     1       1.296   8.330  21.219  0.00  0.00    +0.000 A 
ATOM     15  C   UNL     1       1.371   8.607  19.850  0.00  0.00    +0.000 A 
ATOM     16  C   UNL     1       0.530   9.607  19.321  0.00  0.00    +0.000 A 
BRANCH  11  18
ATOM     17  C   UNL     1      -2.242  10.805  18.412  0.00  0.00    +0.000 C 
ATOM     18  C   UNL     1      -1.291  11.382  19.475  0.00  0.00    +0.000 C 
BRANCH  18  19
ATOM     19  C   UNL     1      -0.451  12.552  18.906  0.00  0.00    +0.000 C 
BRANCH  19  20
ATOM     20  C   UNL     1       0.642  13.020  19.812  0.00  0.00    +0.000 A 
ATOM     21  N   UNL     1       0.487  13.478  21.040  0.00  0.00    +0.000 NA
ATOM     22  N   UNL     1       1.716  13.858  21.520  0.00  0.00    +0.000 NA
ATOM     23  C   UNL     1       2.600  13.631  20.577  0.00  0.00    +0.000 A 
ATOM     24  N   UNL     1       1.979  13.077  19.501  0.00  0.00    +0.000 N 
ATOM     25  C   UNL     1       2.622  12.640  18.292  0.00  0.00    +0.000 C 
ENDBRANCH  19  20
ENDBRANCH  18  19
ENDBRANCH  11  18
ENDBRANCH   1  15
BRANCH   5  26
ATOM     26  N   UNL     1       5.178   4.830  16.612  0.00  0.00    +0.000 N 
ATOM     27  C   UNL     1       5.460   5.544  15.400  0.00  0.00    +0.000 C 
ATOM     28  C   UNL     1       6.618   4.535  15.204  0.00  0.00    +0.000 C 
ATOM     29  C   UNL     1       6.530   4.362  16.732  0.00  0.00    +0.000 C 
BRANCH  28  30
ATOM     30  O   UNL     1       6.310   3.352  14.422  0.00  0.00    +0.000 OA
ATOM     31  H   UNL     1       7.169   2.897  14.348  0.00  0.00    +0.000 HD
ENDBRANCH  28  30
ENDBRANCH   5  26
BRANCH   7  32
ATOM     32  C   UNL     1       2.706   3.269  20.611  0.00  0.00    +0.000 C 
ATOM     33  F   UNL     1       2.348   3.688  21.861  0.00  0.00    +0.000 F 
ATOM     34  F   UNL     1       1.681   2.477  20.187  0.00  0.00    +0.000 F 
ATOM     35  F   UNL     1       3.773   2.438  20.800  0.00  0.00    +0.000 F 
ENDBRANCH   7  32
TORSDOF 7
ENDMDL
MODEL 5
REMARK VINA RESULT:      -8.6      1.974      2.715
REMARK  Name = 
REMARK  9 active torsions:
REMARK  status: ('A' for Active; 'I' for Inactive)
REMARK    1  A    between atoms: C_1  and  C_2
REMARK    2  A    between atoms: C_2  and  C_3
REMARK    3  A    between atoms: C_2  and  C_10
REMARK    4  A    between atoms: C_3  and  C_4
REMARK    5  A    between atoms: N_8  and  C_9
REMARK    6  A    between atoms: C_14  and  C_15
REMARK    7  A    between atoms: C_19  and  N_20
REMARK    8  A    between atoms: C_22  and  O_23
REMARK    9  A    between atoms: C_26  and  C_27
REMARK                            x       y       z     vdW  Elec       q    Type
REMARK                         _______ _______ _______ _____ _____    ______ ____
ROOT
ATOM      1  C   UNL     1       2.147   7.978  19.168  0.00  0.00    +0.000 A 
ATOM      2  N   UNL     1       2.863   8.525  18.132  0.00  0.00    +0.000 N 
ATOM      3  N   UNL     1       3.654   7.668  17.457  0.00  0.00    +0.000 NA
ATOM      4  C   UNL     1       3.456   6.472  18.055  0.00  0.00    +0.000 A 
ATOM      5  C   UNL     1       4.028   5.206  17.783  0.00  0.00    +0.000 A 
ATOM      6  C   UNL     1       3.539   4.205  18.647  0.00  0.00    +0.000 A 
ATOM      7  C   UNL     1       2.609   4.459  19.685  0.00  0.00    +0.000 A 
ATOM      8  N   UNL     1       2.062   5.684  19.963  0.00  0.00    +0.000 NA
ATOM      9  C   UNL     1       2.507   6.655  19.130  0.00  0.00    +0.000 A 
ATOM     10  H   UNL     1       2.848   9.490  17.823  0.00  0.00    +0.000 HD
ENDROOT
BRANCH   1  15
ATOM     11  C   UNL     1      -0.509  10.457  20.303  0.00  0.00    +0.000 A 
ATOM     12  C   UNL     1      -0.531  10.170  21.673  0.00  0.00    +0.000 A 
ATOM     13  C   UNL     1       0.303   9.195  22.223  0.00  0.00    +0.000 A 
ATOM     14  C   UNL     1       1.179   8.478  21.412  0.00  0.00    +0.000 A 
ATOM     15  C   UNL     1       1.243   8.737  20.039  0.00  0.00    +0.000 A 
ATOM     16  C   UNL     1       0.402   9.734  19.505  0.00  0.00    +0.000 A 
BRANCH  11  18
ATOM     17  C   UNL     1      -0.797  12.125  18.376  0.00  0.00    +0.000 C 
ATOM     18  C   UNL     1      -1.408  11.520  19.652  0.00  0.00    +0.000 C 
BRANCH  18  19
ATOM     19  C   UNL     1      -1.797  12.623  20.669  0.00  0.00    +0.000 C 
BRANCH  19  20
ATOM     20  C   UNL     1      -3.260  12.696  20.966  0.00  0.00    +0.000 A 
ATOM     21  N   UNL     1      -4.221  12.881  20.081  0.00  0.00    +0.000 NA
ATOM     22  N   UNL     1      -5.420  12.945  20.748  0.00  0.00    +0.000 NA
ATOM     23  C   UNL     1      -5.171  12.802  22.028  0.00  0.00    +0.000 A 
ATOM     24  N   UNL     1      -3.837  12.610  22.210  0.00  0.00    +0.000 N 
ATOM     25  C   UNL     1      -3.186  12.364  23.468  0.00  0.00    +0.000 C 
ENDBRANCH  19  20
ENDBRANCH  18  19
ENDBRANCH  11  18
ENDBRANCH   1  15
BRANCH   5  26
ATOM     26  N   UNL     1       4.938   4.877  16.769  0.00  0.00    +0.000 N 
ATOM     27  C   UNL     1       5.215   5.558  15.538  0.00  0.00    +0.000 C 
ATOM     28  C   UNL     1       6.406   4.579  15.390  0.00  0.00    +0.000 C 
ATOM     29  C   UNL     1       6.302   4.454  16.921  0.00  0.00    +0.000 C 
BRANCH  28  30
ATOM     30  O   UNL     1       6.144   3.362  14.645  0.00  0.00    +0.000 OA
ATOM     31  H   UNL     1       6.907   3.295  14.042  0.00  0.00    +0.000 HD
ENDBRANCH  28  30
ENDBRANCH   5  26
BRANCH   7  32
ATOM     32  C   UNL     1       2.189   3.289  20.572  0.00  0.00    +0.000 C 
ATOM     33  F   UNL     1       0.843   3.056  20.561  0.00  0.00    +0.000 F 
ATOM     34  F   UNL     1       2.763   2.110  20.201  0.00  0.00    +0.000 F 
ATOM     35  F   UNL     1       2.514   3.473  21.885  0.00  0.00    +0.000 F 
ENDBRANCH   7  32
TORSDOF 7
ENDMDL
MODEL 6
REMARK VINA RESULT:      -8.6      2.179      3.103
REMARK  Name = 
REMARK  9 active torsions:
REMARK  status: ('A' for Active; 'I' for Inactive)
REMARK    1  A    between atoms: C_1  and  C_2
REMARK    2  A    between atoms: C_2  and  C_3
REMARK    3  A    between atoms: C_2  and  C_10
REMARK    4  A    between atoms: C_3  and  C_4
REMARK    5  A    between atoms: N_8  and  C_9
REMARK    6  A    between atoms: C_14  and  C_15
REMARK    7  A    between atoms: C_19  and  N_20
REMARK    8  A    between atoms: C_22  and  O_23
REMARK    9  A    between atoms: C_26  and  C_27
REMARK                            x       y       z     vdW  Elec       q    Type
REMARK                         _______ _______ _______ _____ _____    ______ ____
ROOT
ATOM      1  C   UNL     1       2.363   7.792  18.991  0.00  0.00    +0.000 A 
ATOM      2  N   UNL     1       3.049   8.358  17.946  0.00  0.00    +0.000 N 
ATOM      3  N   UNL     1       3.939   7.553  17.332  0.00  0.00    +0.000 NA
ATOM      4  C   UNL     1       3.843   6.373  17.984  0.00  0.00    +0.000 A 
ATOM      5  C   UNL     1       4.543   5.158  17.786  0.00  0.00    +0.000 A 
ATOM      6  C   UNL     1       4.131   4.155  18.687  0.00  0.00    +0.000 A 
ATOM      7  C   UNL     1       3.154   4.364  19.691  0.00  0.00    +0.000 A 
ATOM      8  N   UNL     1       2.482   5.540  19.896  0.00  0.00    +0.000 NA
ATOM      9  C   UNL     1       2.852   6.510  19.026  0.00  0.00    +0.000 A 
ATOM     10  H   UNL     1       2.949   9.301  17.590  0.00  0.00    +0.000 HD
ENDROOT
BRANCH   1  15
ATOM     11  C   UNL     1      -0.399  10.213  19.986  0.00  0.00    +0.000 A 
ATOM     12  C   UNL     1      -0.582   9.830  21.320  0.00  0.00    +0.000 A 
ATOM     13  C   UNL     1       0.178   8.809  21.891  0.00  0.00    +0.000 A 
ATOM     14  C   UNL     1       1.141   8.142  21.138  0.00  0.00    +0.000 A 
ATOM     15  C   UNL     1       1.366   8.497  19.804  0.00  0.00    +0.000 A 
ATOM     16  C   UNL     1       0.596   9.539  19.249  0.00  0.00    +0.000 A 
BRANCH  11  18
ATOM     17  C   UNL     1      -2.065  10.829  18.135  0.00  0.00    +0.000 C 
ATOM     18  C   UNL     1      -1.213  11.331  19.314  0.00  0.00    +0.000 C 
BRANCH  18  19
ATOM     19  C   UNL     1      -0.302  12.510  18.890  0.00  0.00    +0.000 C 
BRANCH  19  20
ATOM     20  C   UNL     1       0.349  13.224  20.031  0.00  0.00    +0.000 A 
ATOM     21  N   UNL     1       1.584  13.036  20.458  0.00  0.00    +0.000 NA
ATOM     22  N   UNL     1       1.790  13.835  21.556  0.00  0.00    +0.000 NA
ATOM     23  C   UNL     1       0.678  14.494  21.783  0.00  0.00    +0.000 A 
ATOM     24  N   UNL     1      -0.242  14.169  20.835  0.00  0.00    +0.000 N 
ATOM     25  C   UNL     1      -1.562  14.724  20.718  0.00  0.00    +0.000 C 
ENDBRANCH  19  20
ENDBRANCH  18  19
ENDBRANCH  11  18
ENDBRANCH   1  15
BRANCH   5  26
ATOM     26  N   UNL     1       5.508   4.874  16.810  0.00  0.00    +0.000 N 
ATOM     27  C   UNL     1       6.842   4.371  16.967  0.00  0.00    +0.000 C 
ATOM     28  C   UNL     1       6.851   4.222  15.426  0.00  0.00    +0.000 C 
ATOM     29  C   UNL     1       5.318   4.177  15.569  0.00  0.00    +0.000 C 
BRANCH  28  30
ATOM     30  O   UNL     1       7.375   5.349  14.677  0.00  0.00    +0.000 OA
ATOM     31  H   UNL     1       8.212   5.556  15.132  0.00  0.00    +0.000 HD
ENDBRANCH  28  30
ENDBRANCH   5  26
BRANCH   7  32
ATOM     32  C   UNL     1       2.826   3.200  20.624  0.00  0.00    +0.000 C 
ATOM     33  F   UNL     1       3.886   2.367  20.845  0.00  0.00    +0.000 F 
ATOM     34  F   UNL     1       2.423   3.609  21.860  0.00  0.00    +0.000 F 
ATOM     35  F   UNL     1       1.830   2.400  20.146  0.00  0.00    +0.000 F 
ENDBRANCH   7  32
TORSDOF 7
ENDMDL
MODEL 7
REMARK VINA RESULT:      -8.6      2.095      3.072
REMARK  Name = 
REMARK  9 active torsions:
REMARK  status: ('A' for Active; 'I' for Inactive)
REMARK    1  A    between atoms: C_1  and  C_2
REMARK    2  A    between atoms: C_2  and  C_3
REMARK    3  A    between atoms: C_2  and  C_10
REMARK    4  A    between atoms: C_3  and  C_4
REMARK    5  A    between atoms: N_8  and  C_9
REMARK    6  A    between atoms: C_14  and  C_15
REMARK    7  A    between atoms: C_19  and  N_20
REMARK    8  A    between atoms: C_22  and  O_23
REMARK    9  A    between atoms: C_26  and  C_27
REMARK                            x       y       z     vdW  Elec       q    Type
REMARK                         _______ _______ _______ _____ _____    ______ ____
ROOT
ATOM      1  C   UNL     1       2.222   8.071  18.915  0.00  0.00    +0.000 A 
ATOM      2  N   UNL     1       2.962   8.575  17.875  0.00  0.00    +0.000 N 
ATOM      3  N   UNL     1       3.853   7.723  17.330  0.00  0.00    +0.000 NA
ATOM      4  C   UNL     1       3.702   6.574  18.027  0.00  0.00    +0.000 A 
ATOM      5  C   UNL     1       4.377   5.335  17.909  0.00  0.00    +0.000 A 
ATOM      6  C   UNL     1       3.905   4.382  18.834  0.00  0.00    +0.000 A 
ATOM      7  C   UNL     1       2.896   4.659  19.790  0.00  0.00    +0.000 A 
ATOM      8  N   UNL     1       2.248   5.858  19.919  0.00  0.00    +0.000 NA
ATOM      9  C   UNL     1       2.676   6.781  19.023  0.00  0.00    +0.000 A 
ATOM     10  H   UNL     1       2.900   9.504  17.475  0.00  0.00    +0.000 HD
ENDROOT
BRANCH   1  15
ATOM     11  C   UNL     1      -0.732  10.354  19.651  0.00  0.00    +0.000 A 
ATOM     12  C   UNL     1      -0.757  10.267  21.049  0.00  0.00    +0.000 A 
ATOM     13  C   UNL     1       0.169   9.488  21.743  0.00  0.00    +0.000 A 
ATOM     14  C   UNL     1       1.144   8.771  21.053  0.00  0.00    +0.000 A 
ATOM     15  C   UNL     1       1.214   8.835  19.658  0.00  0.00    +0.000 A 
ATOM     16  C   UNL     1       0.277   9.638  18.976  0.00  0.00    +0.000 A 
BRANCH  11  18
ATOM     17  C   UNL     1      -2.595  10.358  17.887  0.00  0.00    +0.000 C 
ATOM     18  C   UNL     1      -1.732  11.199  18.844  0.00  0.00    +0.000 C 
BRANCH  18  19
ATOM     19  C   UNL     1      -1.015  12.350  18.093  0.00  0.00    +0.000 C 
BRANCH  19  20
ATOM     20  C   UNL     1      -0.340  13.339  18.987  0.00  0.00    +0.000 A 
ATOM     21  N   UNL     1      -0.944  14.178  19.809  0.00  0.00    +0.000 NA
ATOM     22  N   UNL     1       0.011  14.959  20.412  0.00  0.00    +0.000 NA
ATOM     23  C   UNL     1       1.181  14.587  19.947  0.00  0.00    +0.000 A 
ATOM     24  N   UNL     1       1.014  13.555  19.077  0.00  0.00    +0.000 N 
ATOM     25  C   UNL     1       2.065  12.845  18.402  0.00  0.00    +0.000 C 
ENDBRANCH  19  20
ENDBRANCH  18  19
ENDBRANCH  11  18
ENDBRANCH   1  15
BRANCH   5  26
ATOM     26  N   UNL     1       5.371   4.986  16.984  0.00  0.00    +0.000 N 
ATOM     27  C   UNL     1       6.678   4.442  17.214  0.00  0.00    +0.000 C 
ATOM     28  C   UNL     1       6.745   4.242  15.680  0.00  0.00    +0.000 C 
ATOM     29  C   UNL     1       5.207   4.256  15.759  0.00  0.00    +0.000 C 
BRANCH  28  30
ATOM     30  O   UNL     1       7.341   5.324  14.919  0.00  0.00    +0.000 OA
ATOM     31  H   UNL     1       6.579   5.885  14.684  0.00  0.00    +0.000 HD
ENDBRANCH  28  30
ENDBRANCH   5  26
BRANCH   7  32
ATOM     32  C   UNL     1       2.503   3.545  20.758  0.00  0.00    +0.000 C 
ATOM     33  F   UNL     1       2.322   3.979  22.040  0.00  0.00    +0.000 F 
ATOM     34  F   UNL     1       1.335   2.932  20.414  0.00  0.00    +0.000 F 
ATOM     35  F   UNL     1       3.441   2.556  20.839  0.00  0.00    +0.000 F 
ENDBRANCH   7  32
TORSDOF 7
ENDMDL
MODEL 8
REMARK VINA RESULT:      -8.5      1.107      1.542
REMARK  Name = 
REMARK  9 active torsions:
REMARK  status: ('A' for Active; 'I' for Inactive)
REMARK    1  A    between atoms: C_1  and  C_2
REMARK    2  A    between atoms: C_2  and  C_3
REMARK    3  A    between atoms: C_2  and  C_10
REMARK    4  A    between atoms: C_3  and  C_4
REMARK    5  A    between atoms: N_8  and  C_9
REMARK    6  A    between atoms: C_14  and  C_15
REMARK    7  A    between atoms: C_19  and  N_20
REMARK    8  A    between atoms: C_22  and  O_23
REMARK    9  A    between atoms: C_26  and  C_27
REMARK                            x       y       z     vdW  Elec       q    Type
REMARK                         _______ _______ _______ _____ _____    ______ ____
ROOT
ATOM      1  C   UNL     1       2.321   7.879  18.865  0.00  0.00    +0.000 A 
ATOM      2  N   UNL     1       3.004   8.415  17.803  0.00  0.00    +0.000 N 
ATOM      3  N   UNL     1       3.816   7.565  17.145  0.00  0.00    +0.000 NA
ATOM      4  C   UNL     1       3.667   6.383  17.784  0.00  0.00    +0.000 A 
ATOM      5  C   UNL     1       4.279   5.128  17.544  0.00  0.00    +0.000 A 
ATOM      6  C   UNL     1       3.836   4.140  18.446  0.00  0.00    +0.000 A 
ATOM      7  C   UNL     1       2.911   4.396  19.489  0.00  0.00    +0.000 A 
ATOM      8  N   UNL     1       2.326   5.609  19.735  0.00  0.00    +0.000 NA
ATOM      9  C   UNL     1       2.726   6.568  18.864  0.00  0.00    +0.000 A 
ATOM     10  H   UNL     1       2.953   9.369  17.463  0.00  0.00    +0.000 HD
ENDROOT
BRANCH   1  15
ATOM     11  C   UNL     1      -0.144  10.533  20.029  0.00  0.00    +0.000 A 
ATOM     12  C   UNL     1      -0.396  10.071  21.326  0.00  0.00    +0.000 A 
ATOM     13  C   UNL     1       0.225   8.923  21.820  0.00  0.00    +0.000 A 
ATOM     14  C   UNL     1       1.113   8.205  21.023  0.00  0.00    +0.000 A 
ATOM     15  C   UNL     1       1.403   8.634  19.724  0.00  0.00    +0.000 A 
ATOM     16  C   UNL     1       0.775   9.803  19.248  0.00  0.00    +0.000 A 
BRANCH  11  18
ATOM     17  C   UNL     1       0.073  13.049  19.575  0.00  0.00    +0.000 C 
ATOM     18  C   UNL     1      -0.805  11.792  19.442  0.00  0.00    +0.000 C 
BRANCH  18  19
ATOM     19  C   UNL     1      -2.213  12.020  20.048  0.00  0.00    +0.000 C 
BRANCH  19  20
ATOM     20  C   UNL     1      -3.330  11.915  19.060  0.00  0.00    +0.000 A 
ATOM     21  N   UNL     1      -3.215  11.555  17.796  0.00  0.00    +0.000 NA
ATOM     22  N   UNL     1      -4.452  11.637  17.206  0.00  0.00    +0.000 NA
ATOM     23  C   UNL     1      -5.301  12.048  18.118  0.00  0.00    +0.000 A 
ATOM     24  N   UNL     1      -4.651  12.205  19.302  0.00  0.00    +0.000 N 
ATOM     25  C   UNL     1      -5.254  12.592  20.548  0.00  0.00    +0.000 C 
ENDBRANCH  19  20
ENDBRANCH  18  19
ENDBRANCH  11  18
ENDBRANCH   1  15
BRANCH   5  26
ATOM     26  N   UNL     1       5.187   4.798  16.529  0.00  0.00    +0.000 N 
ATOM     27  C   UNL     1       5.501   5.506  15.322  0.00  0.00    +0.000 C 
ATOM     28  C   UNL     1       6.657   4.490  15.154  0.00  0.00    +0.000 C 
ATOM     29  C   UNL     1       6.533   4.322  16.680  0.00  0.00    +0.000 C 
BRANCH  28  30
ATOM     30  O   UNL     1       6.360   3.306  14.370  0.00  0.00    +0.000 OA
ATOM     31  H   UNL     1       5.407   3.391  14.179  0.00  0.00    +0.000 HD
ENDBRANCH  28  30
ENDBRANCH   5  26
BRANCH   7  32
ATOM     32  C   UNL     1       2.543   3.242  20.418  0.00  0.00    +0.000 C 
ATOM     33  F   UNL     1       1.906   3.644  21.558  0.00  0.00    +0.000 F 
ATOM     34  F   UNL     1       1.705   2.338  19.834  0.00  0.00    +0.000 F 
ATOM     35  F   UNL     1       3.630   2.533  20.841  0.00  0.00    +0.000 F 
ENDBRANCH   7  32
TORSDOF 7
ENDMDL
MODEL 9
REMARK VINA RESULT:      -8.5      2.411      2.971
REMARK  Name = 
REMARK  9 active torsions:
REMARK  status: ('A' for Active; 'I' for Inactive)
REMARK    1  A    between atoms: C_1  and  C_2
REMARK    2  A    between atoms: C_2  and  C_3
REMARK    3  A    between atoms: C_2  and  C_10
REMARK    4  A    between atoms: C_3  and  C_4
REMARK    5  A    between atoms: N_8  and  C_9
REMARK    6  A    between atoms: C_14  and  C_15
REMARK    7  A    between atoms: C_19  and  N_20
REMARK    8  A    between atoms: C_22  and  O_23
REMARK    9  A    between atoms: C_26  and  C_27
REMARK                            x       y       z     vdW  Elec       q    Type
REMARK                         _______ _______ _______ _____ _____    ______ ____
ROOT
ATOM      1  C   UNL     1       2.028   8.068  19.343  0.00  0.00    +0.000 A 
ATOM      2  N   UNL     1       2.585   8.627  18.220  0.00  0.00    +0.000 N 
ATOM      3  N   UNL     1       3.305   7.788  17.449  0.00  0.00    +0.000 NA
ATOM      4  C   UNL     1       3.222   6.591  18.072  0.00  0.00    +0.000 A 
ATOM      5  C   UNL     1       3.788   5.339  17.730  0.00  0.00    +0.000 A 
ATOM      6  C   UNL     1       3.446   4.331  18.654  0.00  0.00    +0.000 A 
ATOM      7  C   UNL     1       2.655   4.567  19.806  0.00  0.00    +0.000 A 
ATOM      8  N   UNL     1       2.114   5.777  20.150  0.00  0.00    +0.000 NA
ATOM      9  C   UNL     1       2.418   6.755  19.262  0.00  0.00    +0.000 A 
ATOM     10  H   UNL     1       2.503   9.589  17.912  0.00  0.00    +0.000 HD
ENDROOT
BRANCH   1  15
ATOM     11  C   UNL     1      -0.525  10.478  20.811  0.00  0.00    +0.000 A 
ATOM     12  C   UNL     1      -0.357  10.201  22.174  0.00  0.00    +0.000 A 
ATOM     13  C   UNL     1       0.571   9.255  22.612  0.00  0.00    +0.000 A 
ATOM     14  C   UNL     1       1.353   8.557  21.694  0.00  0.00    +0.000 A 
ATOM     15  C   UNL     1       1.226   8.808  20.323  0.00  0.00    +0.000 A 
ATOM     16  C   UNL     1       0.293   9.776  19.902  0.00  0.00    +0.000 A 
BRANCH  11  18
ATOM     17  C   UNL     1      -1.226  11.970  18.846  0.00  0.00    +0.000 C 
ATOM     18  C   UNL     1      -1.534  11.511  20.282  0.00  0.00    +0.000 C 
BRANCH  18  19
ATOM     19  C   UNL     1      -1.658  12.717  21.246  0.00  0.00    +0.000 C 
BRANCH  19  20
ATOM     20  C   UNL     1      -2.895  12.708  22.085  0.00  0.00    +0.000 A 
ATOM     21  N   UNL     1      -3.051  12.066  23.228  0.00  0.00    +0.000 NA
ATOM     22  N   UNL     1      -4.340  12.256  23.661  0.00  0.00    +0.000 NA
ATOM     23  C   UNL     1      -4.950  13.008  22.776  0.00  0.00    +0.000 A 
ATOM     24  N   UNL     1      -4.077  13.342  21.788  0.00  0.00    +0.000 N 
ATOM     25  C   UNL     1      -4.361  14.197  20.668  0.00  0.00    +0.000 C 
ENDBRANCH  19  20
ENDBRANCH  18  19
ENDBRANCH  11  18
ENDBRANCH   1  15
BRANCH   5  26
ATOM     26  N   UNL     1       4.566   5.029  16.606  0.00  0.00    +0.000 N 
ATOM     27  C   UNL     1       5.238   5.907  15.693  0.00  0.00    +0.000 C 
ATOM     28  C   UNL     1       5.893   4.628  15.116  0.00  0.00    +0.000 C 
ATOM     29  C   UNL     1       5.586   4.024  16.499  0.00  0.00    +0.000 C 
BRANCH  28  30
ATOM     30  O   UNL     1       5.208   4.008  13.997  0.00  0.00    +0.000 OA
ATOM     31  H   UNL     1       5.934   3.641  13.460  0.00  0.00    +0.000 HD
ENDBRANCH  28  30
ENDBRANCH   5  26
BRANCH   7  32
ATOM     32  C   UNL     1       2.388   3.391  20.744  0.00  0.00    +0.000 C 
ATOM     33  F   UNL     1       3.402   2.476  20.769  0.00  0.00    +0.000 F 
ATOM     34  F   UNL     1       2.215   3.776  22.039  0.00  0.00    +0.000 F 
ATOM     35  F   UNL     1       1.271   2.684  20.405  0.00  0.00    +0.000 F 
ENDBRANCH   7  32
TORSDOF 7
ENDMDL
