MODEL 1
REMARK VINA RESULT:      -9.1      0.000      0.000
REMARK  Name = 
REMARK  7 active torsions:
REMARK  status: ('A' for Active; 'I' for Inactive)
REMARK    1  A    between atoms: C_1  and  C_2
REMARK    2  A    between atoms: C_2  and  C_3
REMARK    3  A    between atoms: C_2  and  C_10
REMARK    4  A    between atoms: C_3  and  C_4
REMARK    5  A    between atoms: N_8  and  C_9
REMARK    6  A    between atoms: C_14  and  N_15
REMARK    7  A    between atoms: C_16  and  C_18
REMARK                            x       y       z     vdW  Elec       q    Type
REMARK                         _______ _______ _______ _____ _____    ______ ____
ROOT
ATOM      1  C   UNL     1       6.419   5.851  17.167  0.00  0.00    +0.000 A 
ATOM      2  C   UNL     1       7.017   5.103  18.193  0.00  0.00    +0.000 A 
ATOM      3  C   UNL     1       7.929   5.691  19.068  0.00  0.00    +0.000 A 
ATOM      4  C   UNL     1       8.282   7.028  18.921  0.00  0.00    +0.000 A 
ATOM      5  C   UNL     1       7.718   7.803  17.907  0.00  0.00    +0.000 A 
ATOM      6  C   UNL     1       6.764   7.218  17.059  0.00  0.00    +0.000 A 
ENDROOT
BRANCH   5   7
ATOM      7  N   UNL     1       8.069   9.151  17.695  0.00  0.00    +0.000 N 
ATOM      8  C   UNL     1       8.811   9.959  18.543  0.00  0.00    +0.000 C 
ATOM      9  O   UNL     1       9.304   9.626  19.616  0.00  0.00    +0.000 OA
ATOM     10  H   UNL     1       7.848   9.585  16.802  0.00  0.00    +0.000 HD
BRANCH   8  11
ATOM     11  C   UNL     1       9.025  11.313  18.004  0.00  0.00    +0.000 A 
ATOM     12  N   UNL     1       8.017  12.079  17.506  0.00  0.00    +0.000 NA
ATOM     13  N   UNL     1       8.625  13.228  17.102  0.00  0.00    +0.000 N 
ATOM     14  C   UNL     1       9.957  13.186  17.308  0.00  0.00    +0.000 A 
ATOM     15  C   UNL     1      10.245  11.994  17.888  0.00  0.00    +0.000 A 
ATOM     16  C   UNL     1      11.685  11.825  18.138  0.00  0.00    +0.000 C 
ATOM     17  C   UNL     1      12.282  13.173  17.587  0.00  0.00    +0.000 C 
ATOM     18  C   UNL     1      11.103  14.056  17.034  0.00  0.00    +0.000 C 
ATOM     19  H   UNL     1       8.059  13.964  16.690  0.00  0.00    +0.000 HD
ENDBRANCH   8  11
ENDBRANCH   5   7
BRANCH   1  21
ATOM     20  C   UNL     1       4.129   4.724  16.824  0.00  0.00    +0.000 C 
ATOM     21  C   UNL     1       5.429   5.232  16.171  0.00  0.00    +0.000 C 
BRANCH  21  22
ATOM     22  C   UNL     1       6.119   4.103  15.364  0.00  0.00    +0.000 C 
BRANCH  22  23
ATOM     23  C   UNL     1       6.861   4.607  14.169  0.00  0.00    +0.000 A 
ATOM     24  N   UNL     1       7.829   5.500  14.169  0.00  0.00    +0.000 NA
ATOM     25  N   UNL     1       8.208   5.720  12.866  0.00  0.00    +0.000 NA
ATOM     26  C   UNL     1       7.473   4.950  12.101  0.00  0.00    +0.000 A 
ATOM     27  N   UNL     1       6.626   4.221  12.874  0.00  0.00    +0.000 N 
ATOM     28  C   UNL     1       5.683   3.242  12.407  0.00  0.00    +0.000 C 
ENDBRANCH  22  23
ENDBRANCH  21  22
ENDBRANCH   1  21
TORSDOF 5
ENDMDL
MODEL 2
REMARK VINA RESULT:      -8.4      4.893      7.363
REMARK  Name = 
REMARK  7 active torsions:
REMARK  status: ('A' for Active; 'I' for Inactive)
REMARK    1  A    between atoms: C_1  and  C_2
REMARK    2  A    between atoms: C_2  and  C_3
REMARK    3  A    between atoms: C_2  and  C_10
REMARK    4  A    between atoms: C_3  and  C_4
REMARK    5  A    between atoms: N_8  and  C_9
REMARK    6  A    between atoms: C_14  and  N_15
REMARK    7  A    between atoms: C_16  and  C_18
REMARK                            x       y       z     vdW  Elec       q    Type
REMARK                         _______ _______ _______ _____ _____    ______ ____
ROOT
ATOM      1  C   UNL     1       4.258   5.039  17.065  0.00  0.00    +0.000 A 
ATOM      2  C   UNL     1       3.714   3.798  17.427  0.00  0.00    +0.000 A 
ATOM      3  C   UNL     1       2.609   3.720  18.274  0.00  0.00    +0.000 A 
ATOM      4  C   UNL     1       2.042   4.877  18.796  0.00  0.00    +0.000 A 
ATOM      5  C   UNL     1       2.560   6.131  18.470  0.00  0.00    +0.000 A 
ATOM      6  C   UNL     1       3.643   6.205  17.578  0.00  0.00    +0.000 A 
ENDROOT
BRANCH   5   7
ATOM      7  N   UNL     1       2.044   7.329  19.001  0.00  0.00    +0.000 N 
ATOM      8  C   UNL     1       1.989   8.563  18.370  0.00  0.00    +0.000 C 
ATOM      9  O   UNL     1       2.367   8.811  17.229  0.00  0.00    +0.000 OA
ATOM     10  H   UNL     1       1.576   7.308  19.904  0.00  0.00    +0.000 HD
BRANCH   8  11
ATOM     11  C   UNL     1       1.357   9.604  19.198  0.00  0.00    +0.000 A 
ATOM     12  N   UNL     1       1.285  10.909  18.819  0.00  0.00    +0.000 NA
ATOM     13  N   UNL     1       0.653  11.531  19.852  0.00  0.00    +0.000 N 
ATOM     14  C   UNL     1       0.361  10.673  20.849  0.00  0.00    +0.000 A 
ATOM     15  C   UNL     1       0.781   9.440  20.466  0.00  0.00    +0.000 A 
ATOM     16  C   UNL     1       0.536   8.419  21.495  0.00  0.00    +0.000 C 
ATOM     17  C   UNL     1      -0.137   9.255  22.646  0.00  0.00    +0.000 C 
ATOM     18  C   UNL     1      -0.232  10.757  22.186  0.00  0.00    +0.000 C 
ATOM     19  H   UNL     1       0.483  12.531  19.791  0.00  0.00    +0.000 HD
ENDBRANCH   8  11
ENDBRANCH   5   7
BRANCH   1  21
ATOM     20  C   UNL     1       5.491   4.166  14.979  0.00  0.00    +0.000 C 
ATOM     21  C   UNL     1       5.487   5.163  16.155  0.00  0.00    +0.000 C 
BRANCH  21  22
ATOM     22  C   UNL     1       6.785   5.034  16.991  0.00  0.00    +0.000 C 
BRANCH  22  23
ATOM     23  C   UNL     1       7.320   6.351  17.450  0.00  0.00    +0.000 A 
ATOM     24  N   UNL     1       7.298   7.482  16.775  0.00  0.00    +0.000 NA
ATOM     25  N   UNL     1       7.931   8.443  17.527  0.00  0.00    +0.000 NA
ATOM     26  C   UNL     1       8.317   7.881  18.648  0.00  0.00    +0.000 A 
ATOM     27  N   UNL     1       7.942   6.576  18.653  0.00  0.00    +0.000 N 
ATOM     28  C   UNL     1       8.156   5.636  19.718  0.00  0.00    +0.000 C 
ENDBRANCH  22  23
ENDBRANCH  21  22
ENDBRANCH   1  21
TORSDOF 5
ENDMDL
MODEL 3
REMARK VINA RESULT:      -8.3      5.228      7.585
REMARK  Name = 
REMARK  7 active torsions:
REMARK  status: ('A' for Active; 'I' for Inactive)
REMARK    1  A    between atoms: C_1  and  C_2
REMARK    2  A    between atoms: C_2  and  C_3
REMARK    3  A    between atoms: C_2  and  C_10
REMARK    4  A    between atoms: C_3  and  C_4
REMARK    5  A    between atoms: N_8  and  C_9
REMARK    6  A    between atoms: C_14  and  N_15
REMARK    7  A    between atoms: C_16  and  C_18
REMARK                            x       y       z     vdW  Elec       q    Type
REMARK                         _______ _______ _______ _____ _____    ______ ____
ROOT
ATOM      1  C   UNL     1       4.382   5.231  16.854  0.00  0.00    +0.000 A 
ATOM      2  C   UNL     1       3.855   3.983  17.215  0.00  0.00    +0.000 A 
ATOM      3  C   UNL     1       2.727   3.890  18.030  0.00  0.00    +0.000 A 
ATOM      4  C   UNL     1       2.121   5.041  18.522  0.00  0.00    +0.000 A 
ATOM      5  C   UNL     1       2.621   6.302  18.195  0.00  0.00    +0.000 A 
ATOM      6  C   UNL     1       3.728   6.389  17.335  0.00  0.00    +0.000 A 
ENDROOT
BRANCH   5   7
ATOM      7  N   UNL     1       2.064   7.494  18.697  0.00  0.00    +0.000 N 
ATOM      8  C   UNL     1       1.632   7.729  19.994  0.00  0.00    +0.000 C 
ATOM      9  O   UNL     1       1.682   6.936  20.929  0.00  0.00    +0.000 OA
ATOM     10  H   UNL     1       2.039   8.318  18.100  0.00  0.00    +0.000 HD
BRANCH   8  11
ATOM     11  C   UNL     1       1.129   9.099  20.192  0.00  0.00    +0.000 A 
ATOM     12  N   UNL     1       1.393  10.117  19.329  0.00  0.00    +0.000 NA
ATOM     13  N   UNL     1       0.772  11.198  19.875  0.00  0.00    +0.000 N 
ATOM     14  C   UNL     1       0.165  10.893  21.038  0.00  0.00    +0.000 A 
ATOM     15  C   UNL     1       0.360   9.569  21.267  0.00  0.00    +0.000 A 
ATOM     16  C   UNL     1      -0.241   9.124  22.533  0.00  0.00    +0.000 C 
ATOM     17  C   UNL     1      -0.872  10.452  23.092  0.00  0.00    +0.000 C 
ATOM     18  C   UNL     1      -0.577  11.616  22.074  0.00  0.00    +0.000 C 
ATOM     19  H   UNL     1       0.831  12.092  19.394  0.00  0.00    +0.000 HD
ENDBRANCH   8  11
ENDBRANCH   5   7
BRANCH   1  21
ATOM     20  C   UNL     1       5.645   4.432  14.756  0.00  0.00    +0.000 C 
ATOM     21  C   UNL     1       5.635   5.371  15.979  0.00  0.00    +0.000 C 
BRANCH  21  22
ATOM     22  C   UNL     1       6.910   5.174  16.837  0.00  0.00    +0.000 C 
BRANCH  22  23
ATOM     23  C   UNL     1       7.421   6.447  17.429  0.00  0.00    +0.000 A 
ATOM     24  N   UNL     1       7.460   7.623  16.837  0.00  0.00    +0.000 NA
ATOM     25  N   UNL     1       8.045   8.517  17.702  0.00  0.00    +0.000 NA
ATOM     26  C   UNL     1       8.340   7.871  18.805  0.00  0.00    +0.000 A 
ATOM     27  N   UNL     1       7.953   6.575  18.687  0.00  0.00    +0.000 N 
ATOM     28  C   UNL     1       8.078   5.558  19.694  0.00  0.00    +0.000 C 
ENDBRANCH  22  23
ENDBRANCH  21  22
ENDBRANCH   1  21
TORSDOF 5
ENDMDL
MODEL 4
REMARK VINA RESULT:      -8.3      5.282      7.081
REMARK  Name = 
REMARK  7 active torsions:
REMARK  status: ('A' for Active; 'I' for Inactive)
REMARK    1  A    between atoms: C_1  and  C_2
REMARK    2  A    between atoms: C_2  and  C_3
REMARK    3  A    between atoms: C_2  and  C_10
REMARK    4  A    between atoms: C_3  and  C_4
REMARK    5  A    between atoms: N_8  and  C_9
REMARK    6  A    between atoms: C_14  and  N_15
REMARK    7  A    between atoms: C_16  and  C_18
REMARK                            x       y       z     vdW  Elec       q    Type
REMARK                         _______ _______ _______ _____ _____    ______ ____
ROOT
ATOM      1  C   UNL     1       4.422   5.135  17.574  0.00  0.00    +0.000 A 
ATOM      2  C   UNL     1       4.172   3.785  17.861  0.00  0.00    +0.000 A 
ATOM      3  C   UNL     1       3.271   3.421  18.861  0.00  0.00    +0.000 A 
ATOM      4  C   UNL     1       2.623   4.396  19.611  0.00  0.00    +0.000 A 
ATOM      5  C   UNL     1       2.853   5.751  19.365  0.00  0.00    +0.000 A 
ATOM      6  C   UNL     1       3.725   6.110  18.324  0.00  0.00    +0.000 A 
ENDROOT
BRANCH   5   7
ATOM      7  N   UNL     1       2.249   6.774  20.121  0.00  0.00    +0.000 N 
ATOM      8  C   UNL     1       1.812   8.005  19.653  0.00  0.00    +0.000 C 
ATOM      9  O   UNL     1       1.862   8.399  18.492  0.00  0.00    +0.000 OA
ATOM     10  H   UNL     1       2.015   6.597  21.095  0.00  0.00    +0.000 HD
BRANCH   8  11
ATOM     11  C   UNL     1       1.196   8.832  20.705  0.00  0.00    +0.000 A 
ATOM     12  N   UNL     1       1.410   8.623  22.032  0.00  0.00    +0.000 NA
ATOM     13  N   UNL     1       0.659   9.573  22.654  0.00  0.00    +0.000 N 
ATOM     14  C   UNL     1      -0.019  10.331  21.771  0.00  0.00    +0.000 A 
ATOM     15  C   UNL     1       0.304   9.899  20.526  0.00  0.00    +0.000 A 
ATOM     16  C   UNL     1      -0.403  10.643  19.473  0.00  0.00    +0.000 C 
ATOM     17  C   UNL     1      -1.270  11.660  20.303  0.00  0.00    +0.000 C 
ATOM     18  C   UNL     1      -0.996  11.421  21.834  0.00  0.00    +0.000 C 
ATOM     19  H   UNL     1       0.663   9.613  23.670  0.00  0.00    +0.000 HD
ENDBRANCH   8  11
ENDBRANCH   5   7
BRANCH   1  21
ATOM     20  C   UNL     1       4.989   6.833  15.722  0.00  0.00    +0.000 C 
ATOM     21  C   UNL     1       5.424   5.573  16.497  0.00  0.00    +0.000 C 
BRANCH  21  22
ATOM     22  C   UNL     1       5.710   4.400  15.527  0.00  0.00    +0.000 C 
BRANCH  22  23
ATOM     23  C   UNL     1       6.705   4.746  14.467  0.00  0.00    +0.000 A 
ATOM     24  N   UNL     1       7.751   5.535  14.605  0.00  0.00    +0.000 NA
ATOM     25  N   UNL     1       8.379   5.630  13.386  0.00  0.00    +0.000 NA
ATOM     26  C   UNL     1       7.711   4.889  12.534  0.00  0.00    +0.000 A 
ATOM     27  N   UNL     1       6.664   4.302  13.170  0.00  0.00    +0.000 N 
ATOM     28  C   UNL     1       5.717   3.395  12.582  0.00  0.00    +0.000 C 
ENDBRANCH  22  23
ENDBRANCH  21  22
ENDBRANCH   1  21
TORSDOF 5
ENDMDL
MODEL 5
REMARK VINA RESULT:      -8.3      5.097      7.519
REMARK  Name = 
REMARK  7 active torsions:
REMARK  status: ('A' for Active; 'I' for Inactive)
REMARK    1  A    between atoms: C_1  and  C_2
REMARK    2  A    between atoms: C_2  and  C_3
REMARK    3  A    between atoms: C_2  and  C_10
REMARK    4  A    between atoms: C_3  and  C_4
REMARK    5  A    between atoms: N_8  and  C_9
REMARK    6  A    between atoms: C_14  and  N_15
REMARK    7  A    between atoms: C_16  and  C_18
REMARK                            x       y       z     vdW  Elec       q    Type
REMARK                         _______ _______ _______ _____ _____    ______ ____
ROOT
ATOM      1  C   UNL     1       4.104   4.559  17.051  0.00  0.00    +0.000 A 
ATOM      2  C   UNL     1       3.398   3.348  17.003  0.00  0.00    +0.000 A 
ATOM      3  C   UNL     1       2.238   3.166  17.756  0.00  0.00    +0.000 A 
ATOM      4  C   UNL     1       1.775   4.178  18.589  0.00  0.00    +0.000 A 
ATOM      5  C   UNL     1       2.455   5.395  18.673  0.00  0.00    +0.000 A 
ATOM      6  C   UNL     1       3.595   5.589  17.876  0.00  0.00    +0.000 A 
ENDROOT
BRANCH   5   7
ATOM      7  N   UNL     1       2.047   6.436  19.529  0.00  0.00    +0.000 N 
ATOM      8  C   UNL     1       1.921   7.778  19.203  0.00  0.00    +0.000 C 
ATOM      9  O   UNL     1       2.128   8.279  18.102  0.00  0.00    +0.000 OA
ATOM     10  H   UNL     1       1.720   6.208  20.465  0.00  0.00    +0.000 HD
BRANCH   8  11
ATOM     11  C   UNL     1       1.440   8.600  20.326  0.00  0.00    +0.000 A 
ATOM     12  N   UNL     1       1.662   8.275  21.629  0.00  0.00    +0.000 NA
ATOM     13  N   UNL     1       1.051   9.263  22.338  0.00  0.00    +0.000 N 
ATOM     14  C   UNL     1       0.448  10.158  21.530  0.00  0.00    +0.000 A 
ATOM     15  C   UNL     1       0.682   9.777  20.249  0.00  0.00    +0.000 A 
ATOM     16  C   UNL     1       0.045  10.672  19.272  0.00  0.00    +0.000 C 
ATOM     17  C   UNL     1      -0.668  11.727  20.197  0.00  0.00    +0.000 C 
ATOM     18  C   UNL     1      -0.385  11.351  21.698  0.00  0.00    +0.000 C 
ATOM     19  H   UNL     1       1.086   9.232  23.353  0.00  0.00    +0.000 HD
ENDBRANCH   8  11
ENDBRANCH   5   7
BRANCH   1  21
ATOM     20  C   UNL     1       5.579   3.811  15.077  0.00  0.00    +0.000 C 
ATOM     21  C   UNL     1       5.396   4.788  16.256  0.00  0.00    +0.000 C 
BRANCH  21  22
ATOM     22  C   UNL     1       6.621   4.743  17.204  0.00  0.00    +0.000 C 
BRANCH  22  23
ATOM     23  C   UNL     1       7.190   6.094  17.490  0.00  0.00    +0.000 A 
ATOM     24  N   UNL     1       7.180   7.134  16.680  0.00  0.00    +0.000 NA
ATOM     25  N   UNL     1       7.846   8.165  17.300  0.00  0.00    +0.000 NA
ATOM     26  C   UNL     1       8.238   7.737  18.476  0.00  0.00    +0.000 A 
ATOM     27  N   UNL     1       7.835   6.451  18.647  0.00  0.00    +0.000 N 
ATOM     28  C   UNL     1       8.048   5.645  19.817  0.00  0.00    +0.000 C 
ENDBRANCH  22  23
ENDBRANCH  21  22
ENDBRANCH   1  21
TORSDOF 5
ENDMDL
MODEL 6
REMARK VINA RESULT:      -8.2      7.270     11.224
REMARK  Name = 
REMARK  7 active torsions:
REMARK  status: ('A' for Active; 'I' for Inactive)
REMARK    1  A    between atoms: C_1  and  C_2
REMARK    2  A    between atoms: C_2  and  C_3
REMARK    3  A    between atoms: C_2  and  C_10
REMARK    4  A    between atoms: C_3  and  C_4
REMARK    5  A    between atoms: N_8  and  C_9
REMARK    6  A    between atoms: C_14  and  N_15
REMARK    7  A    between atoms: C_16  and  C_18
REMARK                            x       y       z     vdW  Elec       q    Type
REMARK                         _______ _______ _______ _____ _____    ______ ____
ROOT
ATOM      1  C   UNL     1       0.834   9.908  20.315  0.00  0.00    +0.000 A 
ATOM      2  C   UNL     1       0.831  10.702  19.159  0.00  0.00    +0.000 A 
ATOM      3  C   UNL     1       1.375  10.230  17.965  0.00  0.00    +0.000 A 
ATOM      4  C   UNL     1       1.956   8.968  17.909  0.00  0.00    +0.000 A 
ATOM      5  C   UNL     1       1.990   8.152  19.040  0.00  0.00    +0.000 A 
ATOM      6  C   UNL     1       1.397   8.614  20.226  0.00  0.00    +0.000 A 
ENDROOT
BRANCH   5   7
ATOM      7  N   UNL     1       2.599   6.881  19.043  0.00  0.00    +0.000 N 
ATOM      8  C   UNL     1       3.724   6.497  18.329  0.00  0.00    +0.000 C 
ATOM      9  O   UNL     1       4.390   7.211  17.587  0.00  0.00    +0.000 OA
ATOM     10  H   UNL     1       2.258   6.172  19.688  0.00  0.00    +0.000 HD
BRANCH   8  11
ATOM     11  C   UNL     1       4.116   5.101  18.585  0.00  0.00    +0.000 A 
ATOM     12  N   UNL     1       5.350   4.749  19.039  0.00  0.00    +0.000 NA
ATOM     13  N   UNL     1       5.310   3.392  19.123  0.00  0.00    +0.000 N 
ATOM     14  C   UNL     1       4.122   2.900  18.720  0.00  0.00    +0.000 A 
ATOM     15  C   UNL     1       3.336   3.953  18.381  0.00  0.00    +0.000 A 
ATOM     16  C   UNL     1       2.013   3.532  17.897  0.00  0.00    +0.000 C 
ATOM     17  C   UNL     1       2.104   1.964  17.987  0.00  0.00    +0.000 C 
ATOM     18  C   UNL     1       3.527   1.574  18.532  0.00  0.00    +0.000 C 
ATOM     19  H   UNL     1       6.136   2.897  19.448  0.00  0.00    +0.000 HD
ENDBRANCH   8  11
ENDBRANCH   5   7
BRANCH   1  21
ATOM     20  C   UNL     1      -0.130   9.267  22.615  0.00  0.00    +0.000 C 
ATOM     21  C   UNL     1       0.266  10.403  21.652  0.00  0.00    +0.000 C 
BRANCH  21  22
ATOM     22  C   UNL     1      -0.930  11.356  21.403  0.00  0.00    +0.000 C 
BRANCH  22  23
ATOM     23  C   UNL     1      -0.861  12.608  22.215  0.00  0.00    +0.000 A 
ATOM     24  N   UNL     1       0.084  13.524  22.158  0.00  0.00    +0.000 NA
ATOM     25  N   UNL     1      -0.197  14.488  23.098  0.00  0.00    +0.000 NA
ATOM     26  C   UNL     1      -1.312  14.146  23.699  0.00  0.00    +0.000 A 
ATOM     27  N   UNL     1      -1.774  12.983  23.167  0.00  0.00    +0.000 N 
ATOM     28  C   UNL     1      -2.983  12.304  23.540  0.00  0.00    +0.000 C 
ENDBRANCH  22  23
ENDBRANCH  21  22
ENDBRANCH   1  21
TORSDOF 5
ENDMDL
MODEL 7
REMARK VINA RESULT:      -8.2      7.392     10.357
REMARK  Name = 
REMARK  7 active torsions:
REMARK  status: ('A' for Active; 'I' for Inactive)
REMARK    1  A    between atoms: C_1  and  C_2
REMARK    2  A    between atoms: C_2  and  C_3
REMARK    3  A    between atoms: C_2  and  C_10
REMARK    4  A    between atoms: C_3  and  C_4
REMARK    5  A    between atoms: N_8  and  C_9
REMARK    6  A    between atoms: C_14  and  N_15
REMARK    7  A    between atoms: C_16  and  C_18
REMARK                            x       y       z     vdW  Elec       q    Type
REMARK                         _______ _______ _______ _____ _____    ______ ____
ROOT
ATOM      1  C   UNL     1       0.028  10.082  19.717  0.00  0.00    +0.000 A 
ATOM      2  C   UNL     1      -0.073  10.528  21.043  0.00  0.00    +0.000 A 
ATOM      3  C   UNL     1       0.594   9.866  22.073  0.00  0.00    +0.000 A 
ATOM      4  C   UNL     1       1.352   8.732  21.804  0.00  0.00    +0.000 A 
ATOM      5  C   UNL     1       1.469   8.249  20.500  0.00  0.00    +0.000 A 
ATOM      6  C   UNL     1       0.834   8.949  19.461  0.00  0.00    +0.000 A 
ENDROOT
BRANCH   5   7
ATOM      7  N   UNL     1       2.195   7.085  20.182  0.00  0.00    +0.000 N 
ATOM      8  C   UNL     1       2.938   6.856  19.034  0.00  0.00    +0.000 C 
ATOM      9  O   UNL     1       3.102   7.645  18.108  0.00  0.00    +0.000 OA
ATOM     10  H   UNL     1       2.277   6.348  20.879  0.00  0.00    +0.000 HD
BRANCH   8  11
ATOM     11  C   UNL     1       3.600   5.541  19.031  0.00  0.00    +0.000 A 
ATOM     12  N   UNL     1       4.888   5.359  19.433  0.00  0.00    +0.000 NA
ATOM     13  N   UNL     1       5.116   4.029  19.262  0.00  0.00    +0.000 N 
ATOM     14  C   UNL     1       4.039   3.398  18.753  0.00  0.00    +0.000 A 
ATOM     15  C   UNL     1       3.055   4.321  18.604  0.00  0.00    +0.000 A 
ATOM     16  C   UNL     1       1.831   3.748  18.026  0.00  0.00    +0.000 C 
ATOM     17  C   UNL     1       2.228   2.239  17.823  0.00  0.00    +0.000 C 
ATOM     18  C   UNL     1       3.711   2.040  18.311  0.00  0.00    +0.000 C 
ATOM     19  H   UNL     1       6.029   3.653  19.503  0.00  0.00    +0.000 HD
ENDBRANCH   8  11
ENDBRANCH   5   7
BRANCH   1  21
ATOM     20  C   UNL     1      -0.780  12.304  18.696  0.00  0.00    +0.000 C 
ATOM     21  C   UNL     1      -0.711  10.770  18.561  0.00  0.00    +0.000 C 
BRANCH  21  22
ATOM     22  C   UNL     1      -2.129  10.166  18.399  0.00  0.00    +0.000 C 
BRANCH  22  23
ATOM     23  C   UNL     1      -2.663  10.290  17.010  0.00  0.00    +0.000 A 
ATOM     24  N   UNL     1      -2.146   9.757  15.922  0.00  0.00    +0.000 NA
ATOM     25  N   UNL     1      -2.908  10.149  14.848  0.00  0.00    +0.000 NA
ATOM     26  C   UNL     1      -3.880  10.904  15.303  0.00  0.00    +0.000 A 
ATOM     27  N   UNL     1      -3.778  11.007  16.654  0.00  0.00    +0.000 N 
ATOM     28  C   UNL     1      -4.673  11.724  17.519  0.00  0.00    +0.000 C 
ENDBRANCH  22  23
ENDBRANCH  21  22
ENDBRANCH   1  21
TORSDOF 5
ENDMDL
MODEL 8
REMARK VINA RESULT:      -8.2      5.327      8.747
REMARK  Name = 
REMARK  7 active torsions:
REMARK  status: ('A' for Active; 'I' for Inactive)
REMARK    1  A    between atoms: C_1  and  C_2
REMARK    2  A    between atoms: C_2  and  C_3
REMARK    3  A    between atoms: C_2  and  C_10
REMARK    4  A    between atoms: C_3  and  C_4
REMARK    5  A    between atoms: N_8  and  C_9
REMARK    6  A    between atoms: C_14  and  N_15
REMARK    7  A    between atoms: C_16  and  C_18
REMARK                            x       y       z     vdW  Elec       q    Type
REMARK                         _______ _______ _______ _____ _____    ______ ____
ROOT
ATOM      1  C   UNL     1       2.139   6.792  19.853  0.00  0.00    +0.000 A 
ATOM      2  C   UNL     1       1.624   5.608  20.402  0.00  0.00    +0.000 A 
ATOM      3  C   UNL     1       2.063   4.362  19.956  0.00  0.00    +0.000 A 
ATOM      4  C   UNL     1       3.005   4.273  18.937  0.00  0.00    +0.000 A 
ATOM      5  C   UNL     1       3.535   5.427  18.357  0.00  0.00    +0.000 A 
ATOM      6  C   UNL     1       3.124   6.679  18.844  0.00  0.00    +0.000 A 
ENDROOT
BRANCH   5   7
ATOM      7  N   UNL     1       4.464   5.389  17.299  0.00  0.00    +0.000 N 
ATOM      8  C   UNL     1       5.757   4.892  17.346  0.00  0.00    +0.000 C 
ATOM      9  O   UNL     1       6.303   4.381  18.319  0.00  0.00    +0.000 OA
ATOM     10  H   UNL     1       4.163   5.667  16.367  0.00  0.00    +0.000 HD
BRANCH   8  11
ATOM     11  C   UNL     1       6.452   4.975  16.050  0.00  0.00    +0.000 A 
ATOM     12  N   UNL     1       7.568   5.729  15.855  0.00  0.00    +0.000 NA
ATOM     13  N   UNL     1       7.879   5.549  14.543  0.00  0.00    +0.000 N 
ATOM     14  C   UNL     1       6.992   4.744  13.925  0.00  0.00    +0.000 A 
ATOM     15  C   UNL     1       6.080   4.352  14.850  0.00  0.00    +0.000 A 
ATOM     16  C   UNL     1       5.040   3.483  14.279  0.00  0.00    +0.000 C 
ATOM     17  C   UNL     1       5.467   3.395  12.768  0.00  0.00    +0.000 C 
ATOM     18  C   UNL     1       6.770   4.253  12.563  0.00  0.00    +0.000 C 
ATOM     19  H   UNL     1       8.694   6.022  14.163  0.00  0.00    +0.000 HD
ENDBRANCH   8  11
ENDBRANCH   5   7
BRANCH   1  21
ATOM     20  C   UNL     1       0.420   8.144  21.212  0.00  0.00    +0.000 C 
ATOM     21  C   UNL     1       1.663   8.180  20.301  0.00  0.00    +0.000 C 
BRANCH  21  22
ATOM     22  C   UNL     1       1.416   9.084  19.067  0.00  0.00    +0.000 C 
BRANCH  22  23
ATOM     23  C   UNL     1       0.711  10.357  19.404  0.00  0.00    +0.000 A 
ATOM     24  N   UNL     1       1.124  11.279  20.249  0.00  0.00    +0.000 NA
ATOM     25  N   UNL     1       0.166  12.263  20.310  0.00  0.00    +0.000 NA
ATOM     26  C   UNL     1      -0.804  11.927  19.494  0.00  0.00    +0.000 A 
ATOM     27  N   UNL     1      -0.500  10.748  18.891  0.00  0.00    +0.000 N 
ATOM     28  C   UNL     1      -1.299  10.068  17.910  0.00  0.00    +0.000 C 
ENDBRANCH  22  23
ENDBRANCH  21  22
ENDBRANCH   1  21
TORSDOF 5
ENDMDL
MODEL 9
REMARK VINA RESULT:      -8.1      7.578     10.294
REMARK  Name = 
REMARK  7 active torsions:
REMARK  status: ('A' for Active; 'I' for Inactive)
REMARK    1  A    between atoms: C_1  and  C_2
REMARK    2  A    between atoms: C_2  and  C_3
REMARK    3  A    between atoms: C_2  and  C_10
REMARK    4  A    between atoms: C_3  and  C_4
REMARK    5  A    between atoms: N_8  and  C_9
REMARK    6  A    between atoms: C_14  and  N_15
REMARK    7  A    between atoms: C_16  and  C_18
REMARK                            x       y       z     vdW  Elec       q    Type
REMARK                         _______ _______ _______ _____ _____    ______ ____
ROOT
ATOM      1  C   UNL     1      -0.373  10.826  19.889  0.00  0.00    +0.000 A 
ATOM      2  C   UNL     1      -0.571  10.795  21.277  0.00  0.00    +0.000 A 
ATOM      3  C   UNL     1       0.088   9.860  22.074  0.00  0.00    +0.000 A 
ATOM      4  C   UNL     1       0.938   8.922  21.498  0.00  0.00    +0.000 A 
ATOM      5  C   UNL     1       1.155   8.912  20.119  0.00  0.00    +0.000 A 
ATOM      6  C   UNL     1       0.524   9.887  19.329  0.00  0.00    +0.000 A 
ENDROOT
BRANCH   5   7
ATOM      7  N   UNL     1       1.977   7.961  19.485  0.00  0.00    +0.000 N 
ATOM      8  C   UNL     1       2.456   8.011  18.185  0.00  0.00    +0.000 C 
ATOM      9  O   UNL     1       2.256   8.909  17.373  0.00  0.00    +0.000 OA
ATOM     10  H   UNL     1       2.349   7.187  20.031  0.00  0.00    +0.000 HD
BRANCH   8  11
ATOM     11  C   UNL     1       3.319   6.867  17.846  0.00  0.00    +0.000 A 
ATOM     12  N   UNL     1       4.627   7.003  17.496  0.00  0.00    +0.000 NA
ATOM     13  N   UNL     1       5.050   5.734  17.250  0.00  0.00    +0.000 N 
ATOM     14  C   UNL     1       4.058   4.836  17.408  0.00  0.00    +0.000 A 
ATOM     15  C   UNL     1       2.949   5.515  17.797  0.00  0.00    +0.000 A 
ATOM     16  C   UNL     1       1.786   4.633  17.977  0.00  0.00    +0.000 C 
ATOM     17  C   UNL     1       2.375   3.220  17.614  0.00  0.00    +0.000 C 
ATOM     18  C   UNL     1       3.891   3.391  17.232  0.00  0.00    +0.000 C 
ATOM     19  H   UNL     1       6.015   5.585  16.968  0.00  0.00    +0.000 HD
ENDBRANCH   8  11
ENDBRANCH   5   7
BRANCH   1  21
ATOM     20  C   UNL     1      -1.035  13.280  19.478  0.00  0.00    +0.000 C 
ATOM     21  C   UNL     1      -1.100  11.824  18.978  0.00  0.00    +0.000 C 
BRANCH  21  22
ATOM     22  C   UNL     1      -2.568  11.379  18.764  0.00  0.00    +0.000 C 
BRANCH  22  23
ATOM     23  C   UNL     1      -2.841  10.909  17.372  0.00  0.00    +0.000 A 
ATOM     24  N   UNL     1      -2.044  10.173  16.625  0.00  0.00    +0.000 NA
ATOM     25  N   UNL     1      -2.642  10.002  15.400  0.00  0.00    +0.000 NA
ATOM     26  C   UNL     1      -3.795  10.627  15.428  0.00  0.00    +0.000 A 
ATOM     27  N   UNL     1      -3.971  11.196  16.649  0.00  0.00    +0.000 N 
ATOM     28  C   UNL     1      -5.123  11.941  17.078  0.00  0.00    +0.000 C 
ENDBRANCH  22  23
ENDBRANCH  21  22
ENDBRANCH   1  21
TORSDOF 5
ENDMDL
