MODEL 1
REMARK VINA RESULT:      -9.4      0.000      0.000
REMARK  Name = 
REMARK  8 active torsions:
REMARK  status: ('A' for Active; 'I' for Inactive)
REMARK    1  A    between atoms: C_1  and  C_2
REMARK    2  A    between atoms: C_2  and  C_3
REMARK    3  A    between atoms: C_2  and  C_10
REMARK    4  A    between atoms: C_3  and  C_4
REMARK    5  A    between atoms: N_8  and  C_9
REMARK    6  A    between atoms: C_14  and  N_15
REMARK    7  A    between atoms: C_20  and  C_21
REMARK    8  A    between atoms: C_25  and  C_26
REMARK                            x       y       z     vdW  Elec       q    Type
REMARK                         _______ _______ _______ _____ _____    ______ ____
ROOT
ATOM      1  N   UNL     1       1.851   7.794  19.638  0.00  0.00    +0.000 N 
ATOM      2  C   UNL     1       1.800   6.454  20.185  0.00  0.00    +0.000 C 
ATOM      3  C   UNL     1       2.649   5.651  19.281  0.00  0.00    +0.000 A 
ATOM      4  C   UNL     1       3.183   6.460  18.285  0.00  0.00    +0.000 A 
ATOM      5  C   UNL     1       3.992   5.922  17.296  0.00  0.00    +0.000 A 
ATOM      6  C   UNL     1       4.262   4.530  17.309  0.00  0.00    +0.000 A 
ATOM      7  C   UNL     1       3.693   3.744  18.346  0.00  0.00    +0.000 A 
ATOM      8  C   UNL     1       2.883   4.286  19.349  0.00  0.00    +0.000 A 
ATOM      9  C   UNL     1       2.678   7.851  18.510  0.00  0.00    +0.000 C 
ATOM     10  O   UNL     1       2.966   8.789  17.787  0.00  0.00    +0.000 OA
ENDROOT
BRANCH   1  15
ATOM     11  C   UNL     1      -0.365  10.793  19.933  0.00  0.00    +0.000 A 
ATOM     12  C   UNL     1      -0.458  10.935  21.315  0.00  0.00    +0.000 A 
ATOM     13  C   UNL     1       0.203  10.028  22.161  0.00  0.00    +0.000 A 
ATOM     14  C   UNL     1       0.974   8.970  21.645  0.00  0.00    +0.000 A 
ATOM     15  C   UNL     1       1.093   8.814  20.271  0.00  0.00    +0.000 A 
ATOM     16  C   UNL     1       0.420   9.742  19.451  0.00  0.00    +0.000 A 
BRANCH  11  18
ATOM     17  C   UNL     1      -0.897  13.229  19.314  0.00  0.00    +0.000 C 
ATOM     18  C   UNL     1      -1.054  11.736  18.952  0.00  0.00    +0.000 C 
BRANCH  18  19
ATOM     19  C   UNL     1      -2.536  11.368  18.694  0.00  0.00    +0.000 C 
BRANCH  19  20
ATOM     20  C   UNL     1      -2.832  10.879  17.312  0.00  0.00    +0.000 A 
ATOM     21  N   UNL     1      -2.080  10.081  16.578  0.00  0.00    +0.000 NA
ATOM     22  N   UNL     1      -2.676   9.931  15.348  0.00  0.00    +0.000 NA
ATOM     23  C   UNL     1      -3.799  10.606  15.369  0.00  0.00    +0.000 A 
ATOM     24  N   UNL     1      -3.953  11.193  16.587  0.00  0.00    +0.000 N 
ATOM     25  C   UNL     1      -5.090  11.961  17.017  0.00  0.00    +0.000 C 
ENDBRANCH  19  20
ENDBRANCH  18  19
ENDBRANCH  11  18
ENDBRANCH   1  15
BRANCH   8  26
ATOM     26  C   UNL     1       2.287   3.410  20.421  0.00  0.00    +0.000 C 
ATOM     27  F   UNL     1       0.934   3.294  20.352  0.00  0.00    +0.000 F 
ATOM     28  F   UNL     1       2.775   2.141  20.382  0.00  0.00    +0.000 F 
ATOM     29  F   UNL     1       2.550   3.878  21.672  0.00  0.00    +0.000 F 
ENDBRANCH   8  26
BRANCH   6  30
ATOM     30  C   UNL     1       5.059   3.828  16.235  0.00  0.00    +0.000 C 
ATOM     31  C   UNL     1       5.523   4.515  14.979  0.00  0.00    +0.000 C 
ATOM     32  C   UNL     1       6.517   4.209  16.057  0.00  0.00    +0.000 C 
ENDBRANCH   6  30
TORSDOF 6
ENDMDL
MODEL 2
REMARK VINA RESULT:      -9.1      3.339      8.723
REMARK  Name = 
REMARK  8 active torsions:
REMARK  status: ('A' for Active; 'I' for Inactive)
REMARK    1  A    between atoms: C_1  and  C_2
REMARK    2  A    between atoms: C_2  and  C_3
REMARK    3  A    between atoms: C_2  and  C_10
REMARK    4  A    between atoms: C_3  and  C_4
REMARK    5  A    between atoms: N_8  and  C_9
REMARK    6  A    between atoms: C_14  and  N_15
REMARK    7  A    between atoms: C_20  and  C_21
REMARK    8  A    between atoms: C_25  and  C_26
REMARK                            x       y       z     vdW  Elec       q    Type
REMARK                         _______ _______ _______ _____ _____    ______ ____
ROOT
ATOM      1  N   UNL     1       2.085   7.823  19.252  0.00  0.00    +0.000 N 
ATOM      2  C   UNL     1       1.421   8.096  20.510  0.00  0.00    +0.000 C 
ATOM      3  C   UNL     1       0.812   9.430  20.327  0.00  0.00    +0.000 A 
ATOM      4  C   UNL     1       1.076   9.903  19.047  0.00  0.00    +0.000 A 
ATOM      5  C   UNL     1       0.631  11.155  18.650  0.00  0.00    +0.000 A 
ATOM      6  C   UNL     1      -0.092  11.951  19.574  0.00  0.00    +0.000 A 
ATOM      7  C   UNL     1      -0.336  11.426  20.870  0.00  0.00    +0.000 A 
ATOM      8  C   UNL     1       0.105  10.161  21.269  0.00  0.00    +0.000 A 
ATOM      9  C   UNL     1       1.895   8.868  18.340  0.00  0.00    +0.000 C 
ATOM     10  O   UNL     1       2.294   9.002  17.196  0.00  0.00    +0.000 OA
ENDROOT
BRANCH   1  15
ATOM     11  C   UNL     1       4.431   5.332  17.739  0.00  0.00    +0.000 A 
ATOM     12  C   UNL     1       4.332   4.276  18.639  0.00  0.00    +0.000 A 
ATOM     13  C   UNL     1       3.496   4.385  19.763  0.00  0.00    +0.000 A 
ATOM     14  C   UNL     1       2.739   5.546  20.006  0.00  0.00    +0.000 A 
ATOM     15  C   UNL     1       2.810   6.609  19.117  0.00  0.00    +0.000 A 
ATOM     16  C   UNL     1       3.655   6.466  17.998  0.00  0.00    +0.000 A 
BRANCH  11  18
ATOM     17  C   UNL     1       4.930   4.173  15.502  0.00  0.00    +0.000 C 
ATOM     18  C   UNL     1       5.316   5.288  16.498  0.00  0.00    +0.000 C 
BRANCH  18  19
ATOM     19  C   UNL     1       6.828   5.254  16.830  0.00  0.00    +0.000 C 
BRANCH  19  20
ATOM     20  C   UNL     1       7.369   6.513  17.429  0.00  0.00    +0.000 A 
ATOM     21  N   UNL     1       7.381   7.711  16.875  0.00  0.00    +0.000 NA
ATOM     22  N   UNL     1       8.027   8.577  17.725  0.00  0.00    +0.000 NA
ATOM     23  C   UNL     1       8.361   7.901  18.797  0.00  0.00    +0.000 A 
ATOM     24  N   UNL     1       7.944   6.612  18.670  0.00  0.00    +0.000 N 
ATOM     25  C   UNL     1       8.069   5.582  19.665  0.00  0.00    +0.000 C 
ENDBRANCH  19  20
ENDBRANCH  18  19
ENDBRANCH  11  18
ENDBRANCH   1  15
BRANCH   8  26
ATOM     26  C   UNL     1      -0.164   9.649  22.662  0.00  0.00    +0.000 C 
ATOM     27  F   UNL     1       0.959   9.346  23.366  0.00  0.00    +0.000 F 
ATOM     28  F   UNL     1      -0.850  10.549  23.418  0.00  0.00    +0.000 F 
ATOM     29  F   UNL     1      -0.910   8.511  22.656  0.00  0.00    +0.000 F 
ENDBRANCH   8  26
BRANCH   6  30
ATOM     30  C   UNL     1      -0.550  13.360  19.275  0.00  0.00    +0.000 C 
ATOM     31  C   UNL     1      -0.702  14.414  20.338  0.00  0.00    +0.000 C 
ATOM     32  C   UNL     1       0.460  14.485  19.397  0.00  0.00    +0.000 C 
ENDBRANCH   6  30
TORSDOF 6
ENDMDL
MODEL 3
REMARK VINA RESULT:      -9.0      1.000      1.283
REMARK  Name = 
REMARK  8 active torsions:
REMARK  status: ('A' for Active; 'I' for Inactive)
REMARK    1  A    between atoms: C_1  and  C_2
REMARK    2  A    between atoms: C_2  and  C_3
REMARK    3  A    between atoms: C_2  and  C_10
REMARK    4  A    between atoms: C_3  and  C_4
REMARK    5  A    between atoms: N_8  and  C_9
REMARK    6  A    between atoms: C_14  and  N_15
REMARK    7  A    between atoms: C_20  and  C_21
REMARK    8  A    between atoms: C_25  and  C_26
REMARK                            x       y       z     vdW  Elec       q    Type
REMARK                         _______ _______ _______ _____ _____    ______ ____
ROOT
ATOM      1  N   UNL     1       2.360   7.213  19.080  0.00  0.00    +0.000 N 
ATOM      2  C   UNL     1       2.247   5.803  19.393  0.00  0.00    +0.000 C 
ATOM      3  C   UNL     1       3.177   5.138  18.458  0.00  0.00    +0.000 A 
ATOM      4  C   UNL     1       3.813   6.085  17.664  0.00  0.00    +0.000 A 
ATOM      5  C   UNL     1       4.714   5.697  16.684  0.00  0.00    +0.000 A 
ATOM      6  C   UNL     1       4.972   4.315  16.497  0.00  0.00    +0.000 A 
ATOM      7  C   UNL     1       4.297   3.385  17.330  0.00  0.00    +0.000 A 
ATOM      8  C   UNL     1       3.394   3.775  18.324  0.00  0.00    +0.000 A 
ATOM      9  C   UNL     1       3.297   7.433  18.062  0.00  0.00    +0.000 C 
ATOM     10  O   UNL     1       3.661   8.469  17.534  0.00  0.00    +0.000 OA
ENDROOT
BRANCH   1  15
ATOM     11  C   UNL     1       0.188  10.204  19.653  0.00  0.00    +0.000 A 
ATOM     12  C   UNL     1      -0.078  10.096  21.015  0.00  0.00    +0.000 A 
ATOM     13  C   UNL     1       0.450   9.023  21.752  0.00  0.00    +0.000 A 
ATOM     14  C   UNL     1       1.258   8.043  21.148  0.00  0.00    +0.000 A 
ATOM     15  C   UNL     1       1.549   8.134  19.794  0.00  0.00    +0.000 A 
ATOM     16  C   UNL     1       1.006   9.224  19.084  0.00  0.00    +0.000 A 
BRANCH  11  18
ATOM     17  C   UNL     1       0.402  12.673  18.980  0.00  0.00    +0.000 C 
ATOM     18  C   UNL     1      -0.350  11.338  18.787  0.00  0.00    +0.000 C 
BRANCH  18  19
ATOM     19  C   UNL     1      -1.881  11.527  18.913  0.00  0.00    +0.000 C 
BRANCH  19  20
ATOM     20  C   UNL     1      -2.652  11.272  17.657  0.00  0.00    +0.000 A 
ATOM     21  N   UNL     1      -2.183  10.775  16.528  0.00  0.00    +0.000 NA
ATOM     22  N   UNL     1      -3.198  10.766  15.601  0.00  0.00    +0.000 NA
ATOM     23  C   UNL     1      -4.276  11.219  16.193  0.00  0.00    +0.000 A 
ATOM     24  N   UNL     1      -3.990  11.521  17.489  0.00  0.00    +0.000 N 
ATOM     25  C   UNL     1      -4.929  11.981  18.476  0.00  0.00    +0.000 C 
ENDBRANCH  19  20
ENDBRANCH  18  19
ENDBRANCH  11  18
ENDBRANCH   1  15
BRANCH   8  26
ATOM     26  C   UNL     1       2.688   2.751  19.176  0.00  0.00    +0.000 C 
ATOM     27  F   UNL     1       2.997   1.464  18.864  0.00  0.00    +0.000 F 
ATOM     28  F   UNL     1       2.973   2.895  20.499  0.00  0.00    +0.000 F 
ATOM     29  F   UNL     1       1.334   2.839  19.069  0.00  0.00    +0.000 F 
ENDBRANCH   8  26
BRANCH   6  30
ATOM     30  C   UNL     1       5.869   3.778  15.406  0.00  0.00    +0.000 C 
ATOM     31  C   UNL     1       5.731   4.178  13.962  0.00  0.00    +0.000 C 
ATOM     32  C   UNL     1       6.869   4.724  14.767  0.00  0.00    +0.000 C 
ENDBRANCH   6  30
TORSDOF 6
ENDMDL
MODEL 4
REMARK VINA RESULT:      -9.0      1.868      2.465
REMARK  Name = 
REMARK  8 active torsions:
REMARK  status: ('A' for Active; 'I' for Inactive)
REMARK    1  A    between atoms: C_1  and  C_2
REMARK    2  A    between atoms: C_2  and  C_3
REMARK    3  A    between atoms: C_2  and  C_10
REMARK    4  A    between atoms: C_3  and  C_4
REMARK    5  A    between atoms: N_8  and  C_9
REMARK    6  A    between atoms: C_14  and  N_15
REMARK    7  A    between atoms: C_20  and  C_21
REMARK    8  A    between atoms: C_25  and  C_26
REMARK                            x       y       z     vdW  Elec       q    Type
REMARK                         _______ _______ _______ _____ _____    ______ ____
ROOT
ATOM      1  N   UNL     1       1.470   8.100  20.095  0.00  0.00    +0.000 N 
ATOM      2  C   UNL     1       1.502   6.754  20.628  0.00  0.00    +0.000 C 
ATOM      3  C   UNL     1       2.335   5.995  19.673  0.00  0.00    +0.000 A 
ATOM      4  C   UNL     1       2.784   6.834  18.661  0.00  0.00    +0.000 A 
ATOM      5  C   UNL     1       3.562   6.339  17.625  0.00  0.00    +0.000 A 
ATOM      6  C   UNL     1       3.888   4.959  17.609  0.00  0.00    +0.000 A 
ATOM      7  C   UNL     1       3.406   4.141  18.664  0.00  0.00    +0.000 A 
ATOM      8  C   UNL     1       2.627   4.640  19.713  0.00  0.00    +0.000 A 
ATOM      9  C   UNL     1       2.235   8.201  18.926  0.00  0.00    +0.000 C 
ATOM     10  O   UNL     1       2.447   9.156  18.200  0.00  0.00    +0.000 OA
ENDROOT
BRANCH   1  15
ATOM     11  C   UNL     1      -0.758  11.072  20.538  0.00  0.00    +0.000 A 
ATOM     12  C   UNL     1      -0.859  11.139  21.924  0.00  0.00    +0.000 A 
ATOM     13  C   UNL     1      -0.199  10.190  22.724  0.00  0.00    +0.000 A 
ATOM     14  C   UNL     1       0.578   9.164  22.157  0.00  0.00    +0.000 A 
ATOM     15  C   UNL     1       0.705   9.082  20.777  0.00  0.00    +0.000 A 
ATOM     16  C   UNL     1       0.033  10.050  20.004  0.00  0.00    +0.000 A 
BRANCH  11  18
ATOM     17  C   UNL     1      -0.468  12.823  18.682  0.00  0.00    +0.000 C 
ATOM     18  C   UNL     1      -1.445  12.063  19.604  0.00  0.00    +0.000 C 
BRANCH  18  19
ATOM     19  C   UNL     1      -2.398  13.034  20.343  0.00  0.00    +0.000 C 
BRANCH  19  20
ATOM     20  C   UNL     1      -3.841  12.641  20.317  0.00  0.00    +0.000 A 
ATOM     21  N   UNL     1      -4.535  12.250  19.265  0.00  0.00    +0.000 NA
ATOM     22  N   UNL     1      -5.839  12.049  19.653  0.00  0.00    +0.000 NA
ATOM     23  C   UNL     1      -5.906  12.281  20.941  0.00  0.00    +0.000 A 
ATOM     24  N   UNL     1      -4.675  12.626  21.406  0.00  0.00    +0.000 N 
ATOM     25  C   UNL     1      -4.333  12.891  22.777  0.00  0.00    +0.000 C 
ENDBRANCH  19  20
ENDBRANCH  18  19
ENDBRANCH  11  18
ENDBRANCH   1  15
BRANCH   8  26
ATOM     26  C   UNL     1       2.123   3.731  20.805  0.00  0.00    +0.000 C 
ATOM     27  F   UNL     1       2.488   4.115  22.057  0.00  0.00    +0.000 F 
ATOM     28  F   UNL     1       0.765   3.645  20.820  0.00  0.00    +0.000 F 
ATOM     29  F   UNL     1       2.581   2.457  20.665  0.00  0.00    +0.000 F 
ENDBRANCH   8  26
BRANCH   6  30
ATOM     30  C   UNL     1       4.657   4.300  16.487  0.00  0.00    +0.000 C 
ATOM     31  C   UNL     1       5.458   5.076  15.478  0.00  0.00    +0.000 C 
ATOM     32  C   UNL     1       6.172   4.314  16.550  0.00  0.00    +0.000 C 
ENDBRANCH   6  30
TORSDOF 6
ENDMDL
MODEL 5
REMARK VINA RESULT:      -9.0      1.939      2.510
REMARK  Name = 
REMARK  8 active torsions:
REMARK  status: ('A' for Active; 'I' for Inactive)
REMARK    1  A    between atoms: C_1  and  C_2
REMARK    2  A    between atoms: C_2  and  C_3
REMARK    3  A    between atoms: C_2  and  C_10
REMARK    4  A    between atoms: C_3  and  C_4
REMARK    5  A    between atoms: N_8  and  C_9
REMARK    6  A    between atoms: C_14  and  N_15
REMARK    7  A    between atoms: C_20  and  C_21
REMARK    8  A    between atoms: C_25  and  C_26
REMARK                            x       y       z     vdW  Elec       q    Type
REMARK                         _______ _______ _______ _____ _____    ______ ____
ROOT
ATOM      1  N   UNL     1       1.498   8.025  20.093  0.00  0.00    +0.000 N 
ATOM      2  C   UNL     1       1.518   6.679  20.627  0.00  0.00    +0.000 C 
ATOM      3  C   UNL     1       2.355   5.915  19.679  0.00  0.00    +0.000 A 
ATOM      4  C   UNL     1       2.817   6.752  18.670  0.00  0.00    +0.000 A 
ATOM      5  C   UNL     1       3.601   6.252  17.641  0.00  0.00    +0.000 A 
ATOM      6  C   UNL     1       3.920   4.871  17.629  0.00  0.00    +0.000 A 
ATOM      7  C   UNL     1       3.424   4.056  18.680  0.00  0.00    +0.000 A 
ATOM      8  C   UNL     1       2.639   4.559  19.722  0.00  0.00    +0.000 A 
ATOM      9  C   UNL     1       2.274   8.122  18.931  0.00  0.00    +0.000 C 
ATOM     10  O   UNL     1       2.497   9.076  18.206  0.00  0.00    +0.000 OA
ENDROOT
BRANCH   1  15
ATOM     11  C   UNL     1      -0.969  10.802  20.533  0.00  0.00    +0.000 A 
ATOM     12  C   UNL     1      -0.875  11.043  21.900  0.00  0.00    +0.000 A 
ATOM     13  C   UNL     1      -0.001  10.278  22.691  0.00  0.00    +0.000 A 
ATOM     14  C   UNL     1       0.799   9.264  22.131  0.00  0.00    +0.000 A 
ATOM     15  C   UNL     1       0.732   9.012  20.768  0.00  0.00    +0.000 A 
ATOM     16  C   UNL     1      -0.152   9.799  20.004  0.00  0.00    +0.000 A 
BRANCH  11  18
ATOM     17  C   UNL     1      -1.237  11.994  18.273  0.00  0.00    +0.000 C 
ATOM     18  C   UNL     1      -1.895  11.590  19.611  0.00  0.00    +0.000 C 
BRANCH  18  19
ATOM     19  C   UNL     1      -2.557  12.804  20.306  0.00  0.00    +0.000 C 
BRANCH  19  20
ATOM     20  C   UNL     1      -3.951  12.566  20.795  0.00  0.00    +0.000 A 
ATOM     21  N   UNL     1      -4.350  12.516  22.052  0.00  0.00    +0.000 NA
ATOM     22  N   UNL     1      -5.691  12.209  22.071  0.00  0.00    +0.000 NA
ATOM     23  C   UNL     1      -6.091  12.119  20.826  0.00  0.00    +0.000 A 
ATOM     24  N   UNL     1      -5.044  12.363  19.993  0.00  0.00    +0.000 N 
ATOM     25  C   UNL     1      -5.102  12.419  18.557  0.00  0.00    +0.000 C 
ENDBRANCH  19  20
ENDBRANCH  18  19
ENDBRANCH  11  18
ENDBRANCH   1  15
BRANCH   8  26
ATOM     26  C   UNL     1       2.121   3.653  20.810  0.00  0.00    +0.000 C 
ATOM     27  F   UNL     1       2.549   2.366  20.709  0.00  0.00    +0.000 F 
ATOM     28  F   UNL     1       2.488   4.074  22.051  0.00  0.00    +0.000 F 
ATOM     29  F   UNL     1       0.762   3.586  20.819  0.00  0.00    +0.000 F 
ENDBRANCH   8  26
BRANCH   6  30
ATOM     30  C   UNL     1       4.695   4.207  16.514  0.00  0.00    +0.000 C 
ATOM     31  C   UNL     1       5.399   4.981  15.433  0.00  0.00    +0.000 C 
ATOM     32  C   UNL     1       6.207   4.334  16.515  0.00  0.00    +0.000 C 
ENDBRANCH   6  30
TORSDOF 6
ENDMDL
MODEL 6
REMARK VINA RESULT:      -9.0      3.427      8.500
REMARK  Name = 
REMARK  8 active torsions:
REMARK  status: ('A' for Active; 'I' for Inactive)
REMARK    1  A    between atoms: C_1  and  C_2
REMARK    2  A    between atoms: C_2  and  C_3
REMARK    3  A    between atoms: C_2  and  C_10
REMARK    4  A    between atoms: C_3  and  C_4
REMARK    5  A    between atoms: N_8  and  C_9
REMARK    6  A    between atoms: C_14  and  N_15
REMARK    7  A    between atoms: C_20  and  C_21
REMARK    8  A    between atoms: C_25  and  C_26
REMARK                            x       y       z     vdW  Elec       q    Type
REMARK                         _______ _______ _______ _____ _____    ______ ____
ROOT
ATOM      1  N   UNL     1       2.002   7.572  19.660  0.00  0.00    +0.000 N 
ATOM      2  C   UNL     1       1.289   7.987  20.850  0.00  0.00    +0.000 C 
ATOM      3  C   UNL     1       0.720   9.306  20.502  0.00  0.00    +0.000 A 
ATOM      4  C   UNL     1       1.052   9.638  19.195  0.00  0.00    +0.000 A 
ATOM      5  C   UNL     1       0.654  10.849  18.650  0.00  0.00    +0.000 A 
ATOM      6  C   UNL     1      -0.091  11.751  19.451  0.00  0.00    +0.000 A 
ATOM      7  C   UNL     1      -0.404  11.369  20.782  0.00  0.00    +0.000 A 
ATOM      8  C   UNL     1      -0.011  10.144  21.330  0.00  0.00    +0.000 A 
ATOM      9  C   UNL     1       1.876   8.520  18.637  0.00  0.00    +0.000 C 
ATOM     10  O   UNL     1       2.329   8.526  17.505  0.00  0.00    +0.000 OA
ENDROOT
BRANCH   1  15
ATOM     11  C   UNL     1       4.817   5.170  19.116  0.00  0.00    +0.000 A 
ATOM     12  C   UNL     1       4.275   3.989  19.616  0.00  0.00    +0.000 A 
ATOM     13  C   UNL     1       2.975   3.983  20.151  0.00  0.00    +0.000 A 
ATOM     14  C   UNL     1       2.191   5.150  20.189  0.00  0.00    +0.000 A 
ATOM     15  C   UNL     1       2.703   6.338  19.685  0.00  0.00    +0.000 A 
ATOM     16  C   UNL     1       4.008   6.309  19.154  0.00  0.00    +0.000 A 
BRANCH  11  18
ATOM     17  C   UNL     1       7.314   5.568  19.564  0.00  0.00    +0.000 C 
ATOM     18  C   UNL     1       6.219   5.255  18.521  0.00  0.00    +0.000 C 
BRANCH  18  19
ATOM     19  C   UNL     1       6.307   6.208  17.304  0.00  0.00    +0.000 C 
BRANCH  19  20
ATOM     20  C   UNL     1       6.599   5.536  16.000  0.00  0.00    +0.000 A 
ATOM     21  N   UNL     1       7.659   5.721  15.236  0.00  0.00    +0.000 NA
ATOM     22  N   UNL     1       7.512   4.967  14.096  0.00  0.00    +0.000 NA
ATOM     23  C   UNL     1       6.385   4.306  14.205  0.00  0.00    +0.000 A 
ATOM     24  N   UNL     1       5.794   4.608  15.392  0.00  0.00    +0.000 N 
ATOM     25  C   UNL     1       4.578   4.033  15.901  0.00  0.00    +0.000 C 
ENDBRANCH  19  20
ENDBRANCH  18  19
ENDBRANCH  11  18
ENDBRANCH   1  15
BRANCH   8  26
ATOM     26  C   UNL     1      -0.353   9.786  22.754  0.00  0.00    +0.000 C 
ATOM     27  F   UNL     1       0.731   9.587  23.550  0.00  0.00    +0.000 F 
ATOM     28  F   UNL     1      -1.094  10.750  23.365  0.00  0.00    +0.000 F 
ATOM     29  F   UNL     1      -1.081   8.640  22.835  0.00  0.00    +0.000 F 
ENDBRANCH   8  26
BRANCH   6  30
ATOM     30  C   UNL     1      -0.502  13.130  18.988  0.00  0.00    +0.000 C 
ATOM     31  C   UNL     1      -0.590  14.312  19.914  0.00  0.00    +0.000 C 
ATOM     32  C   UNL     1       0.553  14.219  18.950  0.00  0.00    +0.000 C 
ENDBRANCH   6  30
TORSDOF 6
ENDMDL
MODEL 7
REMARK VINA RESULT:      -9.0      0.871      1.142
REMARK  Name = 
REMARK  8 active torsions:
REMARK  status: ('A' for Active; 'I' for Inactive)
REMARK    1  A    between atoms: C_1  and  C_2
REMARK    2  A    between atoms: C_2  and  C_3
REMARK    3  A    between atoms: C_2  and  C_10
REMARK    4  A    between atoms: C_3  and  C_4
REMARK    5  A    between atoms: N_8  and  C_9
REMARK    6  A    between atoms: C_14  and  N_15
REMARK    7  A    between atoms: C_20  and  C_21
REMARK    8  A    between atoms: C_25  and  C_26
REMARK                            x       y       z     vdW  Elec       q    Type
REMARK                         _______ _______ _______ _____ _____    ______ ____
ROOT
ATOM      1  N   UNL     1       2.175   7.508  19.376  0.00  0.00    +0.000 N 
ATOM      2  C   UNL     1       2.271   6.165  19.910  0.00  0.00    +0.000 C 
ATOM      3  C   UNL     1       3.136   5.445  18.953  0.00  0.00    +0.000 A 
ATOM      4  C   UNL     1       3.543   6.303  17.939  0.00  0.00    +0.000 A 
ATOM      5  C   UNL     1       4.340   5.844  16.902  0.00  0.00    +0.000 A 
ATOM      6  C   UNL     1       4.730   4.481  16.886  0.00  0.00    +0.000 A 
ATOM      7  C   UNL     1       4.289   3.642  17.943  0.00  0.00    +0.000 A 
ATOM      8  C   UNL     1       3.490   4.105  18.993  0.00  0.00    +0.000 A 
ATOM      9  C   UNL     1       2.932   7.644  18.205  0.00  0.00    +0.000 C 
ATOM     10  O   UNL     1       3.097   8.608  17.478  0.00  0.00    +0.000 OA
ENDROOT
BRANCH   1  15
ATOM     11  C   UNL     1      -0.050  10.479  19.838  0.00  0.00    +0.000 A 
ATOM     12  C   UNL     1      -0.265  10.454  21.213  0.00  0.00    +0.000 A 
ATOM     13  C   UNL     1       0.317   9.443  21.997  0.00  0.00    +0.000 A 
ATOM     14  C   UNL     1       1.127   8.445  21.426  0.00  0.00    +0.000 A 
ATOM     15  C   UNL     1       1.367   8.455  20.059  0.00  0.00    +0.000 A 
ATOM     16  C   UNL     1       0.771   9.483  19.302  0.00  0.00    +0.000 A 
BRANCH  11  18
ATOM     17  C   UNL     1       0.191  12.837  18.849  0.00  0.00    +0.000 C 
ATOM     18  C   UNL     1      -0.648  11.542  18.922  0.00  0.00    +0.000 C 
BRANCH  18  19
ATOM     19  C   UNL     1      -2.134  11.846  19.231  0.00  0.00    +0.000 C 
BRANCH  19  20
ATOM     20  C   UNL     1      -3.075  11.610  18.093  0.00  0.00    +0.000 A 
ATOM     21  N   UNL     1      -2.758  11.209  16.876  0.00  0.00    +0.000 NA
ATOM     22  N   UNL     1      -3.903  11.182  16.115  0.00  0.00    +0.000 NA
ATOM     23  C   UNL     1      -4.901  11.526  16.893  0.00  0.00    +0.000 A 
ATOM     24  N   UNL     1      -4.435  11.775  18.146  0.00  0.00    +0.000 N 
ATOM     25  C   UNL     1      -5.234  12.115  19.292  0.00  0.00    +0.000 C 
ENDBRANCH  19  20
ENDBRANCH  18  19
ENDBRANCH  11  18
ENDBRANCH   1  15
BRANCH   8  26
ATOM     26  C   UNL     1       3.031   3.174  20.087  0.00  0.00    +0.000 C 
ATOM     27  F   UNL     1       2.862   3.779  21.293  0.00  0.00    +0.000 F 
ATOM     28  F   UNL     1       1.842   2.581  19.795  0.00  0.00    +0.000 F 
ATOM     29  F   UNL     1       3.916   2.163  20.306  0.00  0.00    +0.000 F 
ENDBRANCH   8  26
BRANCH   6  30
ATOM     30  C   UNL     1       5.526   3.858  15.763  0.00  0.00    +0.000 C 
ATOM     31  C   UNL     1       5.794   4.562  14.461  0.00  0.00    +0.000 C 
ATOM     32  C   UNL     1       6.902   4.420  15.458  0.00  0.00    +0.000 C 
ENDBRANCH   6  30
TORSDOF 6
ENDMDL
MODEL 8
REMARK VINA RESULT:      -8.9      2.106      3.127
REMARK  Name = 
REMARK  8 active torsions:
REMARK  status: ('A' for Active; 'I' for Inactive)
REMARK    1  A    between atoms: C_1  and  C_2
REMARK    2  A    between atoms: C_2  and  C_3
REMARK    3  A    between atoms: C_2  and  C_10
REMARK    4  A    between atoms: C_3  and  C_4
REMARK    5  A    between atoms: N_8  and  C_9
REMARK    6  A    between atoms: C_14  and  N_15
REMARK    7  A    between atoms: C_20  and  C_21
REMARK    8  A    between atoms: C_25  and  C_26
REMARK                            x       y       z     vdW  Elec       q    Type
REMARK                         _______ _______ _______ _____ _____    ______ ____
ROOT
ATOM      1  N   UNL     1       1.558   8.120  19.819  0.00  0.00    +0.000 N 
ATOM      2  C   UNL     1       1.556   6.807  20.432  0.00  0.00    +0.000 C 
ATOM      3  C   UNL     1       2.403   5.982  19.546  0.00  0.00    +0.000 A 
ATOM      4  C   UNL     1       2.891   6.754  18.498  0.00  0.00    +0.000 A 
ATOM      5  C   UNL     1       3.688   6.189  17.515  0.00  0.00    +0.000 A 
ATOM      6  C   UNL     1       3.995   4.806  17.590  0.00  0.00    +0.000 A 
ATOM      7  C   UNL     1       3.473   4.059  18.678  0.00  0.00    +0.000 A 
ATOM      8  C   UNL     1       2.674   4.629  19.674  0.00  0.00    +0.000 A 
ATOM      9  C   UNL     1       2.355   8.142  18.668  0.00  0.00    +0.000 C 
ATOM     10  O   UNL     1       2.600   9.050  17.893  0.00  0.00    +0.000 OA
ENDROOT
BRANCH   1  15
ATOM     11  C   UNL     1      -0.830  10.991  20.037  0.00  0.00    +0.000 A 
ATOM     12  C   UNL     1      -0.808  11.267  21.401  0.00  0.00    +0.000 A 
ATOM     13  C   UNL     1      -0.011  10.494  22.262  0.00  0.00    +0.000 A 
ATOM     14  C   UNL     1       0.784   9.439  21.779  0.00  0.00    +0.000 A 
ATOM     15  C   UNL     1       0.789   9.151  20.421  0.00  0.00    +0.000 A 
ATOM     16  C   UNL     1      -0.019   9.946  19.585  0.00  0.00    +0.000 A 
BRANCH  11  18
ATOM     17  C   UNL     1      -2.654  10.911  18.230  0.00  0.00    +0.000 C 
ATOM     18  C   UNL     1      -1.671  11.783  19.041  0.00  0.00    +0.000 C 
BRANCH  18  19
ATOM     19  C   UNL     1      -0.823  12.691  18.117  0.00  0.00    +0.000 C 
BRANCH  19  20
ATOM     20  C   UNL     1       0.040  13.684  18.829  0.00  0.00    +0.000 A 
ATOM     21  N   UNL     1      -0.365  14.742  19.506  0.00  0.00    +0.000 NA
ATOM     22  N   UNL     1       0.742  15.427  19.946  0.00  0.00    +0.000 NA
ATOM     23  C   UNL     1       1.800  14.753  19.565  0.00  0.00    +0.000 A 
ATOM     24  N   UNL     1       1.409  13.639  18.888  0.00  0.00    +0.000 N 
ATOM     25  C   UNL     1       2.278  12.617  18.370  0.00  0.00    +0.000 C 
ENDBRANCH  19  20
ENDBRANCH  18  19
ENDBRANCH  11  18
ENDBRANCH   1  15
BRANCH   8  26
ATOM     26  C   UNL     1       2.128   3.793  20.803  0.00  0.00    +0.000 C 
ATOM     27  F   UNL     1       2.480   4.235  22.040  0.00  0.00    +0.000 F 
ATOM     28  F   UNL     1       0.768   3.741  20.797  0.00  0.00    +0.000 F 
ATOM     29  F   UNL     1       2.556   2.502  20.741  0.00  0.00    +0.000 F 
ENDBRANCH   8  26
BRANCH   6  30
ATOM     30  C   UNL     1       4.783   4.072  16.530  0.00  0.00    +0.000 C 
ATOM     31  C   UNL     1       5.423   4.765  15.358  0.00  0.00    +0.000 C 
ATOM     32  C   UNL     1       6.286   4.278  16.481  0.00  0.00    +0.000 C 
ENDBRANCH   6  30
TORSDOF 6
ENDMDL
MODEL 9
REMARK VINA RESULT:      -8.9      1.997      3.122
REMARK  Name = 
REMARK  8 active torsions:
REMARK  status: ('A' for Active; 'I' for Inactive)
REMARK    1  A    between atoms: C_1  and  C_2
REMARK    2  A    between atoms: C_2  and  C_3
REMARK    3  A    between atoms: C_2  and  C_10
REMARK    4  A    between atoms: C_3  and  C_4
REMARK    5  A    between atoms: N_8  and  C_9
REMARK    6  A    between atoms: C_14  and  N_15
REMARK    7  A    between atoms: C_20  and  C_21
REMARK    8  A    between atoms: C_25  and  C_26
REMARK                            x       y       z     vdW  Elec       q    Type
REMARK                         _______ _______ _______ _____ _____    ______ ____
ROOT
ATOM      1  N   UNL     1       1.663   7.830  19.970  0.00  0.00    +0.000 N 
ATOM      2  C   UNL     1       1.655   6.480  20.496  0.00  0.00    +0.000 C 
ATOM      3  C   UNL     1       2.478   5.706  19.544  0.00  0.00    +0.000 A 
ATOM      4  C   UNL     1       2.958   6.539  18.541  0.00  0.00    +0.000 A 
ATOM      5  C   UNL     1       3.732   6.030  17.510  0.00  0.00    +0.000 A 
ATOM      6  C   UNL     1       4.023   4.642  17.489  0.00  0.00    +0.000 A 
ATOM      7  C   UNL     1       3.509   3.831  18.534  0.00  0.00    +0.000 A 
ATOM      8  C   UNL     1       2.734   4.344  19.579  0.00  0.00    +0.000 A 
ATOM      9  C   UNL     1       2.442   7.918  18.810  0.00  0.00    +0.000 C 
ATOM     10  O   UNL     1       2.685   8.872  18.092  0.00  0.00    +0.000 OA
ENDROOT
BRANCH   1  15
ATOM     11  C   UNL     1      -0.648  10.738  20.411  0.00  0.00    +0.000 A 
ATOM     12  C   UNL     1      -0.632  10.898  21.794  0.00  0.00    +0.000 A 
ATOM     13  C   UNL     1       0.136  10.035  22.593  0.00  0.00    +0.000 A 
ATOM     14  C   UNL     1       0.907   9.002  22.028  0.00  0.00    +0.000 A 
ATOM     15  C   UNL     1       0.917   8.828  20.652  0.00  0.00    +0.000 A 
ATOM     16  C   UNL     1       0.138   9.712  19.879  0.00  0.00    +0.000 A 
BRANCH  11  18
ATOM     17  C   UNL     1      -1.575  11.084  18.041  0.00  0.00    +0.000 C 
ATOM     18  C   UNL     1      -1.458  11.634  19.479  0.00  0.00    +0.000 C 
BRANCH  18  19
ATOM     19  C   UNL     1      -0.981  13.107  19.485  0.00  0.00    +0.000 C 
BRANCH  19  20
ATOM     20  C   UNL     1       0.504  13.287  19.481  0.00  0.00    +0.000 A 
ATOM     21  N   UNL     1       1.335  12.979  18.503  0.00  0.00    +0.000 NA
ATOM     22  N   UNL     1       2.618  13.238  18.923  0.00  0.00    +0.000 NA
ATOM     23  C   UNL     1       2.542  13.737  20.133  0.00  0.00    +0.000 A 
ATOM     24  N   UNL     1       1.238  13.814  20.512  0.00  0.00    +0.000 N 
ATOM     25  C   UNL     1       0.748  14.368  21.745  0.00  0.00    +0.000 C 
ENDBRANCH  19  20
ENDBRANCH  18  19
ENDBRANCH  11  18
ENDBRANCH   1  15
BRANCH   8  26
ATOM     26  C   UNL     1       2.196   3.441  20.661  0.00  0.00    +0.000 C 
ATOM     27  F   UNL     1       2.468   3.867  21.923  0.00  0.00    +0.000 F 
ATOM     28  F   UNL     1       0.843   3.306  20.594  0.00  0.00    +0.000 F 
ATOM     29  F   UNL     1       2.707   2.183  20.581  0.00  0.00    +0.000 F 
ENDBRANCH   8  26
BRANCH   6  30
ATOM     30  C   UNL     1       4.785   3.970  16.371  0.00  0.00    +0.000 C 
ATOM     31  C   UNL     1       5.397   4.730  15.225  0.00  0.00    +0.000 C 
ATOM     32  C   UNL     1       6.286   4.179  16.297  0.00  0.00    +0.000 C 
ENDBRANCH   6  30
TORSDOF 6
ENDMDL
