MODEL 1
REMARK VINA RESULT:      -8.5      0.000      0.000
REMARK  Name = 
REMARK  8 active torsions:
REMARK  status: ('A' for Active; 'I' for Inactive)
REMARK    1  A    between atoms: C_1  and  C_2
REMARK    2  A    between atoms: C_2  and  S_3
REMARK    3  A    between atoms: C_2  and  C_10
REMARK    4  A    between atoms: S_3  and  C_4
REMARK    5  A    between atoms: N_8  and  C_9
REMARK    6  A    between atoms: C_14  and  N_15
REMARK    7  A    between atoms: C_16  and  C_18
REMARK    8  A    between atoms: C_20  and  C_21
REMARK                            x       y       z     vdW  Elec       q    Type
REMARK                         _______ _______ _______ _____ _____    ______ ____
ROOT
ATOM      1  C   UNL     1       4.231   4.982  16.852  0.00  0.00    +0.000 A 
ATOM      2  C   UNL     1       3.572   3.746  16.982  0.00  0.00    +0.000 A 
ATOM      3  C   UNL     1       2.374   3.646  17.684  0.00  0.00    +0.000 A 
ATOM      4  C   UNL     1       1.832   4.770  18.305  0.00  0.00    +0.000 A 
ATOM      5  C   UNL     1       2.489   6.000  18.246  0.00  0.00    +0.000 A 
ATOM      6  C   UNL     1       3.678   6.098  17.513  0.00  0.00    +0.000 A 
ENDROOT
BRANCH   5   7
ATOM      7  N   UNL     1       2.002   7.166  18.880  0.00  0.00    +0.000 N 
ATOM      8  C   UNL     1       1.937   8.434  18.337  0.00  0.00    +0.000 C 
ATOM      9  O   UNL     1       2.272   8.765  17.204  0.00  0.00    +0.000 OA
ATOM     10  H   UNL     1       1.609   7.080  19.815  0.00  0.00    +0.000 HD
BRANCH   8  11
ATOM     11  C   UNL     1       1.366   9.476  19.243  0.00  0.00    +0.000 A 
ATOM     12  C   UNL     1       0.898   9.089  20.495  0.00  0.00    +0.000 A 
ATOM     13  C   UNL     1       0.391  10.064  21.356  0.00  0.00    +0.000 A 
ATOM     14  C   UNL     1       0.365  11.391  20.910  0.00  0.00    +0.000 A 
ATOM     15  C   UNL     1       0.846  11.682  19.639  0.00  0.00    +0.000 A 
ATOM     16  N   UNL     1       1.352  10.760  18.791  0.00  0.00    +0.000 NA
BRANCH  13  17
ATOM     17  C   UNL     1      -0.101   9.701  22.731  0.00  0.00    +0.000 C 
ATOM     18  F   UNL     1       0.894   9.349  23.590  0.00  0.00    +0.000 F 
ATOM     19  F   UNL     1      -0.766  10.728  23.327  0.00  0.00    +0.000 F 
ATOM     20  F   UNL     1      -0.967   8.652  22.711  0.00  0.00    +0.000 F 
ENDBRANCH  13  17
ENDBRANCH   8  11
ENDBRANCH   5   7
BRANCH   1  22
ATOM     21  C   UNL     1       5.449   4.086  14.774  0.00  0.00    +0.000 C 
ATOM     22  C   UNL     1       5.470   5.066  15.955  0.00  0.00    +0.000 C 
BRANCH  22  23
ATOM     23  S   UNL     1       6.952   4.755  17.014  0.00  0.00    +0.000 S 
BRANCH  23  24
ATOM     24  C   UNL     1       7.436   6.338  17.477  0.00  0.00    +0.000 A 
ATOM     25  N   UNL     1       7.383   7.439  16.764  0.00  0.00    +0.000 NA
ATOM     26  N   UNL     1       7.961   8.444  17.513  0.00  0.00    +0.000 NA
ATOM     27  C   UNL     1       8.330   7.923  18.661  0.00  0.00    +0.000 A 
ATOM     28  N   UNL     1       7.996   6.600  18.693  0.00  0.00    +0.000 N 
ATOM     29  C   UNL     1       8.218   5.690  19.781  0.00  0.00    +0.000 C 
ENDBRANCH  23  24
ENDBRANCH  22  23
ENDBRANCH   1  22
TORSDOF 6
ENDMDL
MODEL 2
REMARK VINA RESULT:      -8.0      5.243      9.030
REMARK  Name = 
REMARK  8 active torsions:
REMARK  status: ('A' for Active; 'I' for Inactive)
REMARK    1  A    between atoms: C_1  and  C_2
REMARK    2  A    between atoms: C_2  and  S_3
REMARK    3  A    between atoms: C_2  and  C_10
REMARK    4  A    between atoms: S_3  and  C_4
REMARK    5  A    between atoms: N_8  and  C_9
REMARK    6  A    between atoms: C_14  and  N_15
REMARK    7  A    between atoms: C_16  and  C_18
REMARK    8  A    between atoms: C_20  and  C_21
REMARK                            x       y       z     vdW  Elec       q    Type
REMARK                         _______ _______ _______ _____ _____    ______ ____
ROOT
ATOM      1  C   UNL     1       2.509   6.829  19.237  0.00  0.00    +0.000 A 
ATOM      2  C   UNL     1       2.279   5.769  20.133  0.00  0.00    +0.000 A 
ATOM      3  C   UNL     1       2.790   4.499  19.882  0.00  0.00    +0.000 A 
ATOM      4  C   UNL     1       3.507   4.253  18.713  0.00  0.00    +0.000 A 
ATOM      5  C   UNL     1       3.705   5.266  17.774  0.00  0.00    +0.000 A 
ATOM      6  C   UNL     1       3.212   6.548  18.048  0.00  0.00    +0.000 A 
ENDROOT
BRANCH   5   7
ATOM      7  N   UNL     1       4.398   5.068  16.559  0.00  0.00    +0.000 N 
ATOM      8  C   UNL     1       5.757   4.878  16.405  0.00  0.00    +0.000 C 
ATOM      9  O   UNL     1       6.597   4.829  17.299  0.00  0.00    +0.000 OA
ATOM     10  H   UNL     1       3.857   5.006  15.698  0.00  0.00    +0.000 HD
BRANCH   8  11
ATOM     11  C   UNL     1       6.209   4.686  14.993  0.00  0.00    +0.000 A 
ATOM     12  C   UNL     1       5.365   4.025  14.106  0.00  0.00    +0.000 A 
ATOM     13  C   UNL     1       5.771   3.869  12.780  0.00  0.00    +0.000 A 
ATOM     14  C   UNL     1       7.021   4.377  12.406  0.00  0.00    +0.000 A 
ATOM     15  C   UNL     1       7.800   5.014  13.364  0.00  0.00    +0.000 A 
ATOM     16  N   UNL     1       7.426   5.188  14.652  0.00  0.00    +0.000 NA
BRANCH  13  17
ATOM     17  C   UNL     1       4.882   3.187  11.774  0.00  0.00    +0.000 C 
ATOM     18  F   UNL     1       4.708   3.901  10.629  0.00  0.00    +0.000 F 
ATOM     19  F   UNL     1       5.373   1.977  11.392  0.00  0.00    +0.000 F 
ATOM     20  F   UNL     1       3.634   2.950  12.263  0.00  0.00    +0.000 F 
ENDBRANCH  13  17
ENDBRANCH   8  11
ENDBRANCH   5   7
BRANCH   1  22
ATOM     21  C   UNL     1       0.915   8.253  20.666  0.00  0.00    +0.000 C 
ATOM     22  C   UNL     1       2.044   8.237  19.626  0.00  0.00    +0.000 C 
BRANCH  22  23
ATOM     23  S   UNL     1       1.501   9.094  18.082  0.00  0.00    +0.000 S 
BRANCH  23  24
ATOM     24  C   UNL     1       0.765  10.530  18.675  0.00  0.00    +0.000 A 
ATOM     25  N   UNL     1       1.309  11.471  19.413  0.00  0.00    +0.000 NA
ATOM     26  N   UNL     1       0.317  12.380  19.719  0.00  0.00    +0.000 NA
ATOM     27  C   UNL     1      -0.790  11.970  19.143  0.00  0.00    +0.000 A 
ATOM     28  N   UNL     1      -0.549  10.819  18.452  0.00  0.00    +0.000 N 
ATOM     29  C   UNL     1      -1.502  10.073  17.679  0.00  0.00    +0.000 C 
ENDBRANCH  23  24
ENDBRANCH  22  23
ENDBRANCH   1  22
TORSDOF 6
ENDMDL
MODEL 3
REMARK VINA RESULT:      -7.9      4.739      8.911
REMARK  Name = 
REMARK  8 active torsions:
REMARK  status: ('A' for Active; 'I' for Inactive)
REMARK    1  A    between atoms: C_1  and  C_2
REMARK    2  A    between atoms: C_2  and  S_3
REMARK    3  A    between atoms: C_2  and  C_10
REMARK    4  A    between atoms: S_3  and  C_4
REMARK    5  A    between atoms: N_8  and  C_9
REMARK    6  A    between atoms: C_14  and  N_15
REMARK    7  A    between atoms: C_16  and  C_18
REMARK    8  A    between atoms: C_20  and  C_21
REMARK                            x       y       z     vdW  Elec       q    Type
REMARK                         _______ _______ _______ _____ _____    ______ ____
ROOT
ATOM      1  C   UNL     1       0.119  10.366  19.865  0.00  0.00    +0.000 A 
ATOM      2  C   UNL     1      -0.311  10.512  21.196  0.00  0.00    +0.000 A 
ATOM      3  C   UNL     1       0.151   9.660  22.193  0.00  0.00    +0.000 A 
ATOM      4  C   UNL     1       1.022   8.619  21.875  0.00  0.00    +0.000 A 
ATOM      5  C   UNL     1       1.424   8.408  20.556  0.00  0.00    +0.000 A 
ATOM      6  C   UNL     1       0.977   9.289  19.563  0.00  0.00    +0.000 A 
ENDROOT
BRANCH   5   7
ATOM      7  N   UNL     1       2.281   7.353  20.170  0.00  0.00    +0.000 N 
ATOM      8  C   UNL     1       2.022   6.000  20.273  0.00  0.00    +0.000 C 
ATOM      9  O   UNL     1       0.997   5.479  20.701  0.00  0.00    +0.000 OA
ATOM     10  H   UNL     1       3.164   7.587  19.721  0.00  0.00    +0.000 HD
BRANCH   8  11
ATOM     11  C   UNL     1       3.117   5.112  19.775  0.00  0.00    +0.000 A 
ATOM     12  C   UNL     1       4.357   5.675  19.492  0.00  0.00    +0.000 A 
ATOM     13  C   UNL     1       5.390   4.844  19.055  0.00  0.00    +0.000 A 
ATOM     14  C   UNL     1       5.123   3.478  18.907  0.00  0.00    +0.000 A 
ATOM     15  C   UNL     1       3.850   3.007  19.203  0.00  0.00    +0.000 A 
ATOM     16  N   UNL     1       2.836   3.788  19.640  0.00  0.00    +0.000 NA
BRANCH  13  17
ATOM     17  C   UNL     1       6.759   5.400  18.764  0.00  0.00    +0.000 C 
ATOM     18  F   UNL     1       7.459   5.735  19.881  0.00  0.00    +0.000 F 
ATOM     19  F   UNL     1       7.538   4.517  18.083  0.00  0.00    +0.000 F 
ATOM     20  F   UNL     1       6.709   6.526  18.001  0.00  0.00    +0.000 F 
ENDBRANCH  13  17
ENDBRANCH   8  11
ENDBRANCH   5   7
BRANCH   1  22
ATOM     21  C   UNL     1       0.354  12.784  19.023  0.00  0.00    +0.000 C 
ATOM     22  C   UNL     1      -0.310  11.413  18.831  0.00  0.00    +0.000 C 
BRANCH  22  23
ATOM     23  S   UNL     1      -2.148  11.576  18.929  0.00  0.00    +0.000 S 
BRANCH  23  24
ATOM     24  C   UNL     1      -2.672  10.968  17.409  0.00  0.00    +0.000 A 
ATOM     25  N   UNL     1      -1.988  10.253  16.547  0.00  0.00    +0.000 NA
ATOM     26  N   UNL     1      -2.786  10.074  15.435  0.00  0.00    +0.000 NA
ATOM     27  C   UNL     1      -3.933  10.671  15.667  0.00  0.00    +0.000 A 
ATOM     28  N   UNL     1      -3.915  11.229  16.912  0.00  0.00    +0.000 N 
ATOM     29  C   UNL     1      -4.986  11.954  17.537  0.00  0.00    +0.000 C 
ENDBRANCH  23  24
ENDBRANCH  22  23
ENDBRANCH   1  22
TORSDOF 6
ENDMDL
MODEL 4
REMARK VINA RESULT:      -7.8      4.803      9.090
REMARK  Name = 
REMARK  8 active torsions:
REMARK  status: ('A' for Active; 'I' for Inactive)
REMARK    1  A    between atoms: C_1  and  C_2
REMARK    2  A    between atoms: C_2  and  S_3
REMARK    3  A    between atoms: C_2  and  C_10
REMARK    4  A    between atoms: S_3  and  C_4
REMARK    5  A    between atoms: N_8  and  C_9
REMARK    6  A    between atoms: C_14  and  N_15
REMARK    7  A    between atoms: C_16  and  C_18
REMARK    8  A    between atoms: C_20  and  C_21
REMARK                            x       y       z     vdW  Elec       q    Type
REMARK                         _______ _______ _______ _____ _____    ______ ____
ROOT
ATOM      1  C   UNL     1       0.226  10.663  20.097  0.00  0.00    +0.000 A 
ATOM      2  C   UNL     1       0.002  10.526  21.479  0.00  0.00    +0.000 A 
ATOM      3  C   UNL     1       0.527   9.448  22.185  0.00  0.00    +0.000 A 
ATOM      4  C   UNL     1       1.253   8.462  21.517  0.00  0.00    +0.000 A 
ATOM      5  C   UNL     1       1.445   8.535  20.137  0.00  0.00    +0.000 A 
ATOM      6  C   UNL     1       0.938   9.639  19.440  0.00  0.00    +0.000 A 
ENDROOT
BRANCH   5   7
ATOM      7  N   UNL     1       2.146   7.552  19.402  0.00  0.00    +0.000 N 
ATOM      8  C   UNL     1       2.222   6.204  19.692  0.00  0.00    +0.000 C 
ATOM      9  O   UNL     1       1.679   5.622  20.625  0.00  0.00    +0.000 OA
ATOM     10  H   UNL     1       2.610   7.832  18.541  0.00  0.00    +0.000 HD
BRANCH   8  11
ATOM     11  C   UNL     1       3.034   5.400  18.728  0.00  0.00    +0.000 A 
ATOM     12  C   UNL     1       3.820   6.070  17.795  0.00  0.00    +0.000 A 
ATOM     13  C   UNL     1       4.602   5.323  16.913  0.00  0.00    +0.000 A 
ATOM     14  C   UNL     1       4.547   3.927  17.000  0.00  0.00    +0.000 A 
ATOM     15  C   UNL     1       3.725   3.345  17.957  0.00  0.00    +0.000 A 
ATOM     16  N   UNL     1       2.968   4.045  18.831  0.00  0.00    +0.000 NA
BRANCH  13  17
ATOM     17  C   UNL     1       5.491   6.000  15.905  0.00  0.00    +0.000 C 
ATOM     18  F   UNL     1       5.984   5.156  14.959  0.00  0.00    +0.000 F 
ATOM     19  F   UNL     1       4.841   6.986  15.227  0.00  0.00    +0.000 F 
ATOM     20  F   UNL     1       6.573   6.590  16.482  0.00  0.00    +0.000 F 
ENDBRANCH  13  17
ENDBRANCH   8  11
ENDBRANCH   5   7
BRANCH   1  22
ATOM     21  C   UNL     1       0.422  13.219  19.901  0.00  0.00    +0.000 C 
ATOM     22  C   UNL     1      -0.255  11.937  19.395  0.00  0.00    +0.000 C 
BRANCH  22  23
ATOM     23  S   UNL     1      -2.084  12.049  19.627  0.00  0.00    +0.000 S 
BRANCH  23  24
ATOM     24  C   UNL     1      -2.699  11.556  18.100  0.00  0.00    +0.000 A 
ATOM     25  N   UNL     1      -2.025  11.129  17.057  0.00  0.00    +0.000 NA
ATOM     26  N   UNL     1      -2.927  10.937  16.032  0.00  0.00    +0.000 NA
ATOM     27  C   UNL     1      -4.121  11.237  16.491  0.00  0.00    +0.000 A 
ATOM     28  N   UNL     1      -4.029  11.610  17.800  0.00  0.00    +0.000 N 
ATOM     29  C   UNL     1      -5.116  11.997  18.656  0.00  0.00    +0.000 C 
ENDBRANCH  23  24
ENDBRANCH  22  23
ENDBRANCH   1  22
TORSDOF 6
ENDMDL
MODEL 5
REMARK VINA RESULT:      -7.8      2.520      3.462
REMARK  Name = 
REMARK  8 active torsions:
REMARK  status: ('A' for Active; 'I' for Inactive)
REMARK    1  A    between atoms: C_1  and  C_2
REMARK    2  A    between atoms: C_2  and  S_3
REMARK    3  A    between atoms: C_2  and  C_10
REMARK    4  A    between atoms: S_3  and  C_4
REMARK    5  A    between atoms: N_8  and  C_9
REMARK    6  A    between atoms: C_14  and  N_15
REMARK    7  A    between atoms: C_16  and  C_18
REMARK    8  A    between atoms: C_20  and  C_21
REMARK                            x       y       z     vdW  Elec       q    Type
REMARK                         _______ _______ _______ _____ _____    ______ ____
ROOT
ATOM      1  C   UNL     1       4.491   5.263  17.788  0.00  0.00    +0.000 A 
ATOM      2  C   UNL     1       4.240   3.903  18.045  0.00  0.00    +0.000 A 
ATOM      3  C   UNL     1       3.267   3.517  18.962  0.00  0.00    +0.000 A 
ATOM      4  C   UNL     1       2.553   4.481  19.671  0.00  0.00    +0.000 A 
ATOM      5  C   UNL     1       2.816   5.839  19.485  0.00  0.00    +0.000 A 
ATOM      6  C   UNL     1       3.776   6.219  18.539  0.00  0.00    +0.000 A 
ENDROOT
BRANCH   5   7
ATOM      7  N   UNL     1       2.145   6.859  20.196  0.00  0.00    +0.000 N 
ATOM      8  C   UNL     1       1.716   8.071  19.692  0.00  0.00    +0.000 C 
ATOM      9  O   UNL     1       1.825   8.464  18.535  0.00  0.00    +0.000 OA
ATOM     10  H   UNL     1       1.897   6.688  21.169  0.00  0.00    +0.000 HD
BRANCH   8  11
ATOM     11  C   UNL     1       1.026   8.953  20.681  0.00  0.00    +0.000 A 
ATOM     12  C   UNL     1       0.330  10.064  20.215  0.00  0.00    +0.000 A 
ATOM     13  C   UNL     1      -0.340  10.874  21.133  0.00  0.00    +0.000 A 
ATOM     14  C   UNL     1      -0.269  10.536  22.489  0.00  0.00    +0.000 A 
ATOM     15  C   UNL     1       0.459   9.412  22.864  0.00  0.00    +0.000 A 
ATOM     16  N   UNL     1       1.107   8.605  21.994  0.00  0.00    +0.000 NA
BRANCH  13  17
ATOM     17  C   UNL     1      -1.131  12.071  20.675  0.00  0.00    +0.000 C 
ATOM     18  F   UNL     1      -0.436  12.898  19.848  0.00  0.00    +0.000 F 
ATOM     19  F   UNL     1      -2.254  11.715  19.994  0.00  0.00    +0.000 F 
ATOM     20  F   UNL     1      -1.549  12.843  21.715  0.00  0.00    +0.000 F 
ENDBRANCH  13  17
ENDBRANCH   8  11
ENDBRANCH   5   7
BRANCH   1  22
ATOM     21  C   UNL     1       4.968   6.749  15.745  0.00  0.00    +0.000 C 
ATOM     22  C   UNL     1       5.473   5.634  16.672  0.00  0.00    +0.000 C 
BRANCH  22  23
ATOM     23  S   UNL     1       5.819   4.103  15.698  0.00  0.00    +0.000 S 
BRANCH  23  24
ATOM     24  C   UNL     1       6.855   4.666  14.447  0.00  0.00    +0.000 A 
ATOM     25  N   UNL     1       7.841   5.528  14.541  0.00  0.00    +0.000 NA
ATOM     26  N   UNL     1       8.327   5.740  13.268  0.00  0.00    +0.000 NA
ATOM     27  C   UNL     1       7.632   4.988  12.445  0.00  0.00    +0.000 A 
ATOM     28  N   UNL     1       6.707   4.273  13.149  0.00  0.00    +0.000 N 
ATOM     29  C   UNL     1       5.768   3.329  12.610  0.00  0.00    +0.000 C 
ENDBRANCH  23  24
ENDBRANCH  22  23
ENDBRANCH   1  22
TORSDOF 6
ENDMDL
MODEL 6
REMARK VINA RESULT:      -7.8      1.930      2.405
REMARK  Name = 
REMARK  8 active torsions:
REMARK  status: ('A' for Active; 'I' for Inactive)
REMARK    1  A    between atoms: C_1  and  C_2
REMARK    2  A    between atoms: C_2  and  S_3
REMARK    3  A    between atoms: C_2  and  C_10
REMARK    4  A    between atoms: S_3  and  C_4
REMARK    5  A    between atoms: N_8  and  C_9
REMARK    6  A    between atoms: C_14  and  N_15
REMARK    7  A    between atoms: C_16  and  C_18
REMARK    8  A    between atoms: C_20  and  C_21
REMARK                            x       y       z     vdW  Elec       q    Type
REMARK                         _______ _______ _______ _____ _____    ______ ____
ROOT
ATOM      1  C   UNL     1       4.331   4.882  16.849  0.00  0.00    +0.000 A 
ATOM      2  C   UNL     1       3.652   3.657  16.977  0.00  0.00    +0.000 A 
ATOM      3  C   UNL     1       2.450   3.577  17.673  0.00  0.00    +0.000 A 
ATOM      4  C   UNL     1       1.922   4.710  18.290  0.00  0.00    +0.000 A 
ATOM      5  C   UNL     1       2.599   5.929  18.234  0.00  0.00    +0.000 A 
ATOM      6  C   UNL     1       3.793   6.007  17.506  0.00  0.00    +0.000 A 
ENDROOT
BRANCH   5   7
ATOM      7  N   UNL     1       2.129   7.103  18.864  0.00  0.00    +0.000 N 
ATOM      8  C   UNL     1       1.995   8.351  18.289  0.00  0.00    +0.000 C 
ATOM      9  O   UNL     1       2.242   8.653  17.126  0.00  0.00    +0.000 OA
ATOM     10  H   UNL     1       1.803   7.038  19.827  0.00  0.00    +0.000 HD
BRANCH   8  11
ATOM     11  C   UNL     1       1.462   9.408  19.201  0.00  0.00    +0.000 A 
ATOM     12  C   UNL     1       1.244  10.684  18.691  0.00  0.00    +0.000 A 
ATOM     13  C   UNL     1       0.720  11.666  19.532  0.00  0.00    +0.000 A 
ATOM     14  C   UNL     1       0.449  11.323  20.862  0.00  0.00    +0.000 A 
ATOM     15  C   UNL     1       0.708  10.025  21.286  0.00  0.00    +0.000 A 
ATOM     16  N   UNL     1       1.205   9.053  20.489  0.00  0.00    +0.000 NA
BRANCH  13  17
ATOM     17  C   UNL     1       0.439  13.053  19.019  0.00  0.00    +0.000 C 
ATOM     18  F   UNL     1       0.171  13.954  20.003  0.00  0.00    +0.000 F 
ATOM     19  F   UNL     1       1.487  13.564  18.317  0.00  0.00    +0.000 F 
ATOM     20  F   UNL     1      -0.631  13.088  18.178  0.00  0.00    +0.000 F 
ENDBRANCH  13  17
ENDBRANCH   8  11
ENDBRANCH   5   7
BRANCH   1  22
ATOM     21  C   UNL     1       5.574   3.921  14.814  0.00  0.00    +0.000 C 
ATOM     22  C   UNL     1       5.576   4.944  15.957  0.00  0.00    +0.000 C 
BRANCH  22  23
ATOM     23  S   UNL     1       7.053   4.689  17.037  0.00  0.00    +0.000 S 
BRANCH  23  24
ATOM     24  C   UNL     1       7.483   6.290  17.491  0.00  0.00    +0.000 A 
ATOM     25  N   UNL     1       7.424   7.380  16.761  0.00  0.00    +0.000 NA
ATOM     26  N   UNL     1       7.954   8.409  17.511  0.00  0.00    +0.000 NA
ATOM     27  C   UNL     1       8.301   7.914  18.678  0.00  0.00    +0.000 A 
ATOM     28  N   UNL     1       7.999   6.584  18.719  0.00  0.00    +0.000 N 
ATOM     29  C   UNL     1       8.212   5.695  19.827  0.00  0.00    +0.000 C 
ENDBRANCH  23  24
ENDBRANCH  22  23
ENDBRANCH   1  22
TORSDOF 6
ENDMDL
MODEL 7
REMARK VINA RESULT:      -7.7      2.039      2.407
REMARK  Name = 
REMARK  8 active torsions:
REMARK  status: ('A' for Active; 'I' for Inactive)
REMARK    1  A    between atoms: C_1  and  C_2
REMARK    2  A    between atoms: C_2  and  S_3
REMARK    3  A    between atoms: C_2  and  C_10
REMARK    4  A    between atoms: S_3  and  C_4
REMARK    5  A    between atoms: N_8  and  C_9
REMARK    6  A    between atoms: C_14  and  N_15
REMARK    7  A    between atoms: C_16  and  C_18
REMARK    8  A    between atoms: C_20  and  C_21
REMARK                            x       y       z     vdW  Elec       q    Type
REMARK                         _______ _______ _______ _____ _____    ______ ____
ROOT
ATOM      1  C   UNL     1       4.432   4.731  16.740  0.00  0.00    +0.000 A 
ATOM      2  C   UNL     1       3.737   3.508  16.768  0.00  0.00    +0.000 A 
ATOM      3  C   UNL     1       2.505   3.402  17.406  0.00  0.00    +0.000 A 
ATOM      4  C   UNL     1       1.961   4.503  18.064  0.00  0.00    +0.000 A 
ATOM      5  C   UNL     1       2.650   5.716  18.107  0.00  0.00    +0.000 A 
ATOM      6  C   UNL     1       3.875   5.823  17.437  0.00  0.00    +0.000 A 
ENDROOT
BRANCH   5   7
ATOM      7  N   UNL     1       2.162   6.858  18.782  0.00  0.00    +0.000 N 
ATOM      8  C   UNL     1       1.837   6.947  20.121  0.00  0.00    +0.000 C 
ATOM      9  O   UNL     1       1.933   6.058  20.961  0.00  0.00    +0.000 OA
ATOM     10  H   UNL     1       2.080   7.729  18.262  0.00  0.00    +0.000 HD
BRANCH   8  11
ATOM     11  C   UNL     1       1.351   8.291  20.560  0.00  0.00    +0.000 A 
ATOM     12  C   UNL     1       0.830   9.158  19.605  0.00  0.00    +0.000 A 
ATOM     13  C   UNL     1       0.348  10.402  20.015  0.00  0.00    +0.000 A 
ATOM     14  C   UNL     1       0.425  10.725  21.375  0.00  0.00    +0.000 A 
ATOM     15  C   UNL     1       0.970   9.800  22.256  0.00  0.00    +0.000 A 
ATOM     16  N   UNL     1       1.433   8.584  21.886  0.00  0.00    +0.000 NA
BRANCH  13  17
ATOM     17  C   UNL     1      -0.252  11.363  19.024  0.00  0.00    +0.000 C 
ATOM     18  F   UNL     1      -0.656  10.772  17.867  0.00  0.00    +0.000 F 
ATOM     19  F   UNL     1      -1.347  11.999  19.523  0.00  0.00    +0.000 F 
ATOM     20  F   UNL     1       0.620  12.343  18.661  0.00  0.00    +0.000 F 
ENDBRANCH  13  17
ENDBRANCH   8  11
ENDBRANCH   5   7
BRANCH   1  22
ATOM     21  C   UNL     1       5.800   3.802  14.771  0.00  0.00    +0.000 C 
ATOM     22  C   UNL     1       5.715   4.831  15.908  0.00  0.00    +0.000 C 
BRANCH  22  23
ATOM     23  S   UNL     1       7.147   4.629  17.058  0.00  0.00    +0.000 S 
BRANCH  23  24
ATOM     24  C   UNL     1       7.520   6.248  17.500  0.00  0.00    +0.000 A 
ATOM     25  N   UNL     1       7.442   7.326  16.756  0.00  0.00    +0.000 NA
ATOM     26  N   UNL     1       7.927   8.380  17.503  0.00  0.00    +0.000 NA
ATOM     27  C   UNL     1       8.266   7.909  18.682  0.00  0.00    +0.000 A 
ATOM     28  N   UNL     1       8.004   6.571  18.734  0.00  0.00    +0.000 N 
ATOM     29  C   UNL     1       8.222   5.702  19.856  0.00  0.00    +0.000 C 
ENDBRANCH  23  24
ENDBRANCH  22  23
ENDBRANCH   1  22
TORSDOF 6
ENDMDL
MODEL 8
REMARK VINA RESULT:      -7.7      4.477      8.884
REMARK  Name = 
REMARK  8 active torsions:
REMARK  status: ('A' for Active; 'I' for Inactive)
REMARK    1  A    between atoms: C_1  and  C_2
REMARK    2  A    between atoms: C_2  and  S_3
REMARK    3  A    between atoms: C_2  and  C_10
REMARK    4  A    between atoms: S_3  and  C_4
REMARK    5  A    between atoms: N_8  and  C_9
REMARK    6  A    between atoms: C_14  and  N_15
REMARK    7  A    between atoms: C_16  and  C_18
REMARK    8  A    between atoms: C_20  and  C_21
REMARK                            x       y       z     vdW  Elec       q    Type
REMARK                         _______ _______ _______ _____ _____    ______ ____
ROOT
ATOM      1  C   UNL     1       0.082  10.684  20.091  0.00  0.00    +0.000 A 
ATOM      2  C   UNL     1      -0.081  10.702  21.488  0.00  0.00    +0.000 A 
ATOM      3  C   UNL     1       0.475   9.706  22.285  0.00  0.00    +0.000 A 
ATOM      4  C   UNL     1       1.171   8.650  21.700  0.00  0.00    +0.000 A 
ATOM      5  C   UNL     1       1.303   8.568  20.313  0.00  0.00    +0.000 A 
ATOM      6  C   UNL     1       0.765   9.590  19.520  0.00  0.00    +0.000 A 
ENDROOT
BRANCH   5   7
ATOM      7  N   UNL     1       1.971   7.507  19.662  0.00  0.00    +0.000 N 
ATOM      8  C   UNL     1       2.578   7.550  18.422  0.00  0.00    +0.000 C 
ATOM      9  O   UNL     1       2.658   8.523  17.678  0.00  0.00    +0.000 OA
ATOM     10  H   UNL     1       2.073   6.623  20.157  0.00  0.00    +0.000 HD
BRANCH   8  11
ATOM     11  C   UNL     1       3.216   6.270  17.990  0.00  0.00    +0.000 A 
ATOM     12  C   UNL     1       2.640   5.068  18.389  0.00  0.00    +0.000 A 
ATOM     13  C   UNL     1       3.216   3.870  17.964  0.00  0.00    +0.000 A 
ATOM     14  C   UNL     1       4.362   3.935  17.162  0.00  0.00    +0.000 A 
ATOM     15  C   UNL     1       4.873   5.182  16.822  0.00  0.00    +0.000 A 
ATOM     16  N   UNL     1       4.328   6.356  17.211  0.00  0.00    +0.000 NA
BRANCH  13  17
ATOM     17  C   UNL     1       2.613   2.544  18.344  0.00  0.00    +0.000 C 
ATOM     18  F   UNL     1       3.139   1.491  17.662  0.00  0.00    +0.000 F 
ATOM     19  F   UNL     1       2.786   2.261  19.664  0.00  0.00    +0.000 F 
ATOM     20  F   UNL     1       1.272   2.503  18.122  0.00  0.00    +0.000 F 
ENDBRANCH  13  17
ENDBRANCH   8  11
ENDBRANCH   5   7
BRANCH   1  22
ATOM     21  C   UNL     1       0.244  13.207  19.627  0.00  0.00    +0.000 C 
ATOM     22  C   UNL     1      -0.430  11.875  19.273  0.00  0.00    +0.000 C 
BRANCH  22  23
ATOM     23  S   UNL     1      -2.254  11.993  19.537  0.00  0.00    +0.000 S 
BRANCH  23  24
ATOM     24  C   UNL     1      -2.898  11.559  18.004  0.00  0.00    +0.000 A 
ATOM     25  N   UNL     1      -2.240  11.208  16.923  0.00  0.00    +0.000 NA
ATOM     26  N   UNL     1      -3.165  11.039  15.913  0.00  0.00    +0.000 NA
ATOM     27  C   UNL     1      -4.354  11.276  16.419  0.00  0.00    +0.000 A 
ATOM     28  N   UNL     1      -4.236  11.585  17.743  0.00  0.00    +0.000 N 
ATOM     29  C   UNL     1      -5.310  11.891  18.647  0.00  0.00    +0.000 C 
ENDBRANCH  23  24
ENDBRANCH  22  23
ENDBRANCH   1  22
TORSDOF 6
ENDMDL
MODEL 9
REMARK VINA RESULT:      -7.7      4.581      8.145
REMARK  Name = 
REMARK  8 active torsions:
REMARK  status: ('A' for Active; 'I' for Inactive)
REMARK    1  A    between atoms: C_1  and  C_2
REMARK    2  A    between atoms: C_2  and  S_3
REMARK    3  A    between atoms: C_2  and  C_10
REMARK    4  A    between atoms: S_3  and  C_4
REMARK    5  A    between atoms: N_8  and  C_9
REMARK    6  A    between atoms: C_14  and  N_15
REMARK    7  A    between atoms: C_16  and  C_18
REMARK    8  A    between atoms: C_20  and  C_21
REMARK                            x       y       z     vdW  Elec       q    Type
REMARK                         _______ _______ _______ _____ _____    ______ ____
ROOT
ATOM      1  C   UNL     1       0.383  10.488  20.193  0.00  0.00    +0.000 A 
ATOM      2  C   UNL     1       0.079  10.301  21.554  0.00  0.00    +0.000 A 
ATOM      3  C   UNL     1       0.536   9.181  22.241  0.00  0.00    +0.000 A 
ATOM      4  C   UNL     1       1.271   8.203  21.573  0.00  0.00    +0.000 A 
ATOM      5  C   UNL     1       1.542   8.326  20.209  0.00  0.00    +0.000 A 
ATOM      6  C   UNL     1       1.104   9.472  19.533  0.00  0.00    +0.000 A 
ENDROOT
BRANCH   5   7
ATOM      7  N   UNL     1       2.257   7.354  19.473  0.00  0.00    +0.000 N 
ATOM      8  C   UNL     1       2.262   5.991  19.694  0.00  0.00    +0.000 C 
ATOM      9  O   UNL     1       1.631   5.385  20.554  0.00  0.00    +0.000 OA
ATOM     10  H   UNL     1       2.792   7.659  18.663  0.00  0.00    +0.000 HD
BRANCH   8  11
ATOM     11  C   UNL     1       3.110   5.205  18.747  0.00  0.00    +0.000 A 
ATOM     12  C   UNL     1       3.766   5.878  17.721  0.00  0.00    +0.000 A 
ATOM     13  C   UNL     1       4.583   5.152  16.853  0.00  0.00    +0.000 A 
ATOM     14  C   UNL     1       4.693   3.770  17.049  0.00  0.00    +0.000 A 
ATOM     15  C   UNL     1       3.992   3.182  18.095  0.00  0.00    +0.000 A 
ATOM     16  N   UNL     1       3.205   3.864  18.956  0.00  0.00    +0.000 NA
BRANCH  13  17
ATOM     17  C   UNL     1       5.336   5.838  15.745  0.00  0.00    +0.000 C 
ATOM     18  F   UNL     1       4.837   7.063  15.424  0.00  0.00    +0.000 F 
ATOM     19  F   UNL     1       6.645   6.037  16.061  0.00  0.00    +0.000 F 
ATOM     20  F   UNL     1       5.332   5.117  14.592  0.00  0.00    +0.000 F 
ENDBRANCH  13  17
ENDBRANCH   8  11
ENDBRANCH   5   7
BRANCH   1  22
ATOM     21  C   UNL     1      -1.099  11.638  18.435  0.00  0.00    +0.000 C 
ATOM     22  C   UNL     1      -0.025  11.802  19.520  0.00  0.00    +0.000 C 
BRANCH  22  23
ATOM     23  S   UNL     1       1.498  12.560  18.799  0.00  0.00    +0.000 S 
BRANCH  23  24
ATOM     24  C   UNL     1       2.141  13.464  20.112  0.00  0.00    +0.000 A 
ATOM     25  N   UNL     1       1.704  13.512  21.349  0.00  0.00    +0.000 NA
ATOM     26  N   UNL     1       2.475  14.436  22.023  0.00  0.00    +0.000 NA
ATOM     27  C   UNL     1       3.365  14.905  21.178  0.00  0.00    +0.000 A 
ATOM     28  N   UNL     1       3.207  14.301  19.965  0.00  0.00    +0.000 N 
ATOM     29  C   UNL     1       3.997  14.533  18.788  0.00  0.00    +0.000 C 
ENDBRANCH  23  24
ENDBRANCH  22  23
ENDBRANCH   1  22
TORSDOF 6
ENDMDL
