MODEL 1
REMARK VINA RESULT:      -8.1      0.000      0.000
REMARK  Name = 
REMARK  8 active torsions:
REMARK  status: ('A' for Active; 'I' for Inactive)
REMARK    1  A    between atoms: C_1  and  C_2
REMARK    2  A    between atoms: C_2  and  S_3
REMARK    3  A    between atoms: C_2  and  C_10
REMARK    4  A    between atoms: S_3  and  C_4
REMARK    5  A    between atoms: N_8  and  C_9
REMARK    6  A    between atoms: C_14  and  N_15
REMARK    7  A    between atoms: C_18  and  C_19
REMARK    8  A    between atoms: C_22  and  C_23
REMARK                            x       y       z     vdW  Elec       q    Type
REMARK                         _______ _______ _______ _____ _____    ______ ____
ROOT
ATOM      1  C   UNL     1       2.396   7.518  18.998  0.00  0.00    +0.000 A 
ATOM      2  C   UNL     1       2.298   8.257  17.804  0.00  0.00    +0.000 A 
ATOM      3  C   UNL     1       1.609   9.471  17.759  0.00  0.00    +0.000 A 
ATOM      4  C   UNL     1       0.986   9.965  18.903  0.00  0.00    +0.000 A 
ATOM      5  C   UNL     1       1.055   9.241  20.099  0.00  0.00    +0.000 A 
ATOM      6  C   UNL     1       1.755   8.021  20.144  0.00  0.00    +0.000 A 
ENDROOT
BRANCH   5   7
ATOM      7  N   UNL     1       0.411   9.735  21.264  0.00  0.00    +0.000 N 
ATOM      8  N   UNL     1       0.236   8.965  22.370  0.00  0.00    +0.000 NA
ATOM      9  C   UNL     1      -0.460   9.776  23.165  0.00  0.00    +0.000 A 
ATOM     10  C   UNL     1      -0.699  11.013  22.533  0.00  0.00    +0.000 A 
ATOM     11  N   UNL     1      -0.089  11.001  21.337  0.00  0.00    +0.000 NA
BRANCH  10  12
ATOM     12  C   UNL     1      -1.487  12.144  23.006  0.00  0.00    +0.000 A 
ATOM     13  C   UNL     1      -2.803  11.965  23.455  0.00  0.00    +0.000 A 
ATOM     14  C   UNL     1      -3.541  13.051  23.942  0.00  0.00    +0.000 A 
ATOM     15  C   UNL     1      -2.968  14.326  23.993  0.00  0.00    +0.000 A 
ATOM     16  C   UNL     1      -1.657  14.511  23.543  0.00  0.00    +0.000 A 
ATOM     17  C   UNL     1      -0.923  13.428  23.050  0.00  0.00    +0.000 A 
BRANCH  15  18
ATOM     18  C   UNL     1      -3.713  15.435  24.509  0.00  0.00    +0.000 C 
ATOM     19  N   UNL     1      -4.319  16.330  24.934  0.00  0.00    +0.000 NA
ENDBRANCH  15  18
ENDBRANCH  10  12
ENDBRANCH   5   7
BRANCH   1  21
ATOM     20  C   UNL     1       4.413   6.231  18.184  0.00  0.00    +0.000 C 
ATOM     21  C   UNL     1       3.158   6.191  19.067  0.00  0.00    +0.000 C 
BRANCH  21  22
ATOM     22  S   UNL     1       2.003   4.830  18.629  0.00  0.00    +0.000 S 
BRANCH  22  23
ATOM     23  C   UNL     1       2.021   3.788  20.006  0.00  0.00    +0.000 A 
ATOM     24  N   UNL     1       1.106   3.665  20.939  0.00  0.00    +0.000 NA
ATOM     25  N   UNL     1       1.597   2.810  21.902  0.00  0.00    +0.000 NA
ATOM     26  C   UNL     1       2.785   2.414  21.514  0.00  0.00    +0.000 A 
ATOM     27  N   UNL     1       3.076   2.972  20.303  0.00  0.00    +0.000 N 
ATOM     28  C   UNL     1       4.255   2.711  19.523  0.00  0.00    +0.000 C 
ENDBRANCH  22  23
ENDBRANCH  21  22
ENDBRANCH   1  21
TORSDOF 6
ENDMDL
MODEL 2
REMARK VINA RESULT:      -8.0      6.707      8.683
REMARK  Name = 
REMARK  8 active torsions:
REMARK  status: ('A' for Active; 'I' for Inactive)
REMARK    1  A    between atoms: C_1  and  C_2
REMARK    2  A    between atoms: C_2  and  S_3
REMARK    3  A    between atoms: C_2  and  C_10
REMARK    4  A    between atoms: S_3  and  C_4
REMARK    5  A    between atoms: N_8  and  C_9
REMARK    6  A    between atoms: C_14  and  N_15
REMARK    7  A    between atoms: C_18  and  C_19
REMARK    8  A    between atoms: C_22  and  C_23
REMARK                            x       y       z     vdW  Elec       q    Type
REMARK                         _______ _______ _______ _____ _____    ______ ____
ROOT
ATOM      1  C   UNL     1       4.053   5.333  17.246  0.00  0.00    +0.000 A 
ATOM      2  C   UNL     1       4.439   4.475  16.199  0.00  0.00    +0.000 A 
ATOM      3  C   UNL     1       5.742   4.486  15.698  0.00  0.00    +0.000 A 
ATOM      4  C   UNL     1       6.685   5.368  16.221  0.00  0.00    +0.000 A 
ATOM      5  C   UNL     1       6.322   6.243  17.252  0.00  0.00    +0.000 A 
ATOM      6  C   UNL     1       5.010   6.225  17.760  0.00  0.00    +0.000 A 
ENDROOT
BRANCH   5   7
ATOM      7  N   UNL     1       7.277   7.151  17.779  0.00  0.00    +0.000 N 
ATOM      8  N   UNL     1       8.122   6.803  18.785  0.00  0.00    +0.000 NA
ATOM      9  C   UNL     1       8.768   7.946  19.013  0.00  0.00    +0.000 A 
ATOM     10  C   UNL     1       8.306   8.961  18.152  0.00  0.00    +0.000 A 
ATOM     11  N   UNL     1       7.391   8.431  17.326  0.00  0.00    +0.000 NA
BRANCH  10  12
ATOM     12  C   UNL     1       8.676  10.371  18.121  0.00  0.00    +0.000 A 
ATOM     13  C   UNL     1       9.861  10.817  18.724  0.00  0.00    +0.000 A 
ATOM     14  C   UNL     1      10.227  12.167  18.660  0.00  0.00    +0.000 A 
ATOM     15  C   UNL     1       9.415  13.084  17.984  0.00  0.00    +0.000 A 
ATOM     16  C   UNL     1       8.231  12.647  17.384  0.00  0.00    +0.000 A 
ATOM     17  C   UNL     1       7.862  11.300  17.455  0.00  0.00    +0.000 A 
BRANCH  15  18
ATOM     18  C   UNL     1       9.797  14.463  17.898  0.00  0.00    +0.000 C 
ATOM     19  N   UNL     1      10.110  15.579  17.835  0.00  0.00    +0.000 NA
ENDBRANCH  15  18
ENDBRANCH  10  12
ENDBRANCH   5   7
BRANCH   1  21
ATOM     20  C   UNL     1       2.589   5.982  19.201  0.00  0.00    +0.000 C 
ATOM     21  C   UNL     1       2.630   5.324  17.816  0.00  0.00    +0.000 C 
BRANCH  21  22
ATOM     22  S   UNL     1       2.010   3.593  17.811  0.00  0.00    +0.000 S 
BRANCH  22  23
ATOM     23  C   UNL     1       1.939   3.156  19.480  0.00  0.00    +0.000 A 
ATOM     24  N   UNL     1       0.889   3.142  20.268  0.00  0.00    +0.000 NA
ATOM     25  N   UNL     1       1.321   2.845  21.542  0.00  0.00    +0.000 NA
ATOM     26  C   UNL     1       2.618   2.659  21.489  0.00  0.00    +0.000 A 
ATOM     27  N   UNL     1       3.044   2.803  20.200  0.00  0.00    +0.000 N 
ATOM     28  C   UNL     1       4.389   2.594  19.736  0.00  0.00    +0.000 C 
ENDBRANCH  22  23
ENDBRANCH  21  22
ENDBRANCH   1  21
TORSDOF 6
ENDMDL
MODEL 3
REMARK VINA RESULT:      -7.9      1.092      1.400
REMARK  Name = 
REMARK  8 active torsions:
REMARK  status: ('A' for Active; 'I' for Inactive)
REMARK    1  A    between atoms: C_1  and  C_2
REMARK    2  A    between atoms: C_2  and  S_3
REMARK    3  A    between atoms: C_2  and  C_10
REMARK    4  A    between atoms: S_3  and  C_4
REMARK    5  A    between atoms: N_8  and  C_9
REMARK    6  A    between atoms: C_14  and  N_15
REMARK    7  A    between atoms: C_18  and  C_19
REMARK    8  A    between atoms: C_22  and  C_23
REMARK                            x       y       z     vdW  Elec       q    Type
REMARK                         _______ _______ _______ _____ _____    ______ ____
ROOT
ATOM      1  C   UNL     1       2.313   7.581  19.227  0.00  0.00    +0.000 A 
ATOM      2  C   UNL     1       2.123   8.211  17.982  0.00  0.00    +0.000 A 
ATOM      3  C   UNL     1       1.362   9.376  17.869  0.00  0.00    +0.000 A 
ATOM      4  C   UNL     1       0.757   9.928  18.996  0.00  0.00    +0.000 A 
ATOM      5  C   UNL     1       0.917   9.312  20.242  0.00  0.00    +0.000 A 
ATOM      6  C   UNL     1       1.690   8.142  20.355  0.00  0.00    +0.000 A 
ENDROOT
BRANCH   5   7
ATOM      7  N   UNL     1       0.292   9.865  21.391  0.00  0.00    +0.000 N 
ATOM      8  N   UNL     1       0.194   9.176  22.558  0.00  0.00    +0.000 NA
ATOM      9  C   UNL     1      -0.513  10.014  23.316  0.00  0.00    +0.000 A 
ATOM     10  C   UNL     1      -0.833  11.186  22.602  0.00  0.00    +0.000 A 
ATOM     11  N   UNL     1      -0.267  11.109  21.388  0.00  0.00    +0.000 NA
BRANCH  10  12
ATOM     12  C   UNL     1      -1.658  12.313  23.019  0.00  0.00    +0.000 A 
ATOM     13  C   UNL     1      -3.045  12.172  23.171  0.00  0.00    +0.000 A 
ATOM     14  C   UNL     1      -3.825  13.251  23.606  0.00  0.00    +0.000 A 
ATOM     15  C   UNL     1      -3.225  14.479  23.901  0.00  0.00    +0.000 A 
ATOM     16  C   UNL     1      -1.844  14.627  23.748  0.00  0.00    +0.000 A 
ATOM     17  C   UNL     1      -1.066  13.553  23.307  0.00  0.00    +0.000 A 
BRANCH  15  18
ATOM     18  C   UNL     1      -4.018  15.579  24.367  0.00  0.00    +0.000 C 
ATOM     19  N   UNL     1      -4.658  16.467  24.751  0.00  0.00    +0.000 NA
ENDBRANCH  15  18
ENDBRANCH  10  12
ENDBRANCH   5   7
BRANCH   1  21
ATOM     20  C   UNL     1       3.917   6.006  18.073  0.00  0.00    +0.000 C 
ATOM     21  C   UNL     1       3.155   6.309  19.369  0.00  0.00    +0.000 C 
BRANCH  21  22
ATOM     22  S   UNL     1       2.055   4.938  19.907  0.00  0.00    +0.000 S 
BRANCH  22  23
ATOM     23  C   UNL     1       2.381   3.660  18.792  0.00  0.00    +0.000 A 
ATOM     24  N   UNL     1       1.755   3.387  17.671  0.00  0.00    +0.000 NA
ATOM     25  N   UNL     1       2.274   2.212  17.173  0.00  0.00    +0.000 NA
ATOM     26  C   UNL     1       3.221   1.817  17.989  0.00  0.00    +0.000 A 
ATOM     27  N   UNL     1       3.352   2.723  19.002  0.00  0.00    +0.000 N 
ATOM     28  C   UNL     1       4.340   2.674  20.046  0.00  0.00    +0.000 C 
ENDBRANCH  22  23
ENDBRANCH  21  22
ENDBRANCH   1  21
TORSDOF 6
ENDMDL
MODEL 4
REMARK VINA RESULT:      -7.9      0.418      1.004
REMARK  Name = 
REMARK  8 active torsions:
REMARK  status: ('A' for Active; 'I' for Inactive)
REMARK    1  A    between atoms: C_1  and  C_2
REMARK    2  A    between atoms: C_2  and  S_3
REMARK    3  A    between atoms: C_2  and  C_10
REMARK    4  A    between atoms: S_3  and  C_4
REMARK    5  A    between atoms: N_8  and  C_9
REMARK    6  A    between atoms: C_14  and  N_15
REMARK    7  A    between atoms: C_18  and  C_19
REMARK    8  A    between atoms: C_22  and  C_23
REMARK                            x       y       z     vdW  Elec       q    Type
REMARK                         _______ _______ _______ _____ _____    ______ ____
ROOT
ATOM      1  C   UNL     1       2.401   7.660  18.867  0.00  0.00    +0.000 A 
ATOM      2  C   UNL     1       2.270   8.421  17.691  0.00  0.00    +0.000 A 
ATOM      3  C   UNL     1       1.550   9.617  17.680  0.00  0.00    +0.000 A 
ATOM      4  C   UNL     1       0.927  10.070  18.841  0.00  0.00    +0.000 A 
ATOM      5  C   UNL     1       1.030   9.323  20.020  0.00  0.00    +0.000 A 
ATOM      6  C   UNL     1       1.762   8.121  20.031  0.00  0.00    +0.000 A 
ENDROOT
BRANCH   5   7
ATOM      7  N   UNL     1       0.387   9.775  21.203  0.00  0.00    +0.000 N 
ATOM      8  N   UNL     1       0.198   8.961  22.275  0.00  0.00    +0.000 NA
ATOM      9  C   UNL     1      -0.491   9.746  23.101  0.00  0.00    +0.000 A 
ATOM     10  C   UNL     1      -0.712  11.011  22.521  0.00  0.00    +0.000 A 
ATOM     11  N   UNL     1      -0.098  11.042  21.329  0.00  0.00    +0.000 NA
BRANCH  10  12
ATOM     12  C   UNL     1      -1.488  12.131  23.040  0.00  0.00    +0.000 A 
ATOM     13  C   UNL     1      -0.951  13.427  23.065  0.00  0.00    +0.000 A 
ATOM     14  C   UNL     1      -1.715  14.503  23.532  0.00  0.00    +0.000 A 
ATOM     15  C   UNL     1      -3.028  14.297  23.970  0.00  0.00    +0.000 A 
ATOM     16  C   UNL     1      -3.567  13.007  23.950  0.00  0.00    +0.000 A 
ATOM     17  C   UNL     1      -2.801  11.931  23.492  0.00  0.00    +0.000 A 
BRANCH  15  18
ATOM     18  C   UNL     1      -3.820  15.399  24.429  0.00  0.00    +0.000 C 
ATOM     19  N   UNL     1      -4.465  16.294  24.793  0.00  0.00    +0.000 NA
ENDBRANCH  15  18
ENDBRANCH  10  12
ENDBRANCH   5   7
BRANCH   1  21
ATOM     20  C   UNL     1       4.368   6.396  17.906  0.00  0.00    +0.000 C 
ATOM     21  C   UNL     1       3.199   6.352  18.899  0.00  0.00    +0.000 C 
BRANCH  21  22
ATOM     22  S   UNL     1       2.042   4.955  18.601  0.00  0.00    +0.000 S 
BRANCH  22  23
ATOM     23  C   UNL     1       2.160   3.985  20.024  0.00  0.00    +0.000 A 
ATOM     24  N   UNL     1       1.832   4.310  21.253  0.00  0.00    +0.000 NA
ATOM     25  N   UNL     1       2.209   3.273  22.079  0.00  0.00    +0.000 NA
ATOM     26  C   UNL     1       2.730   2.334  21.327  0.00  0.00    +0.000 A 
ATOM     27  N   UNL     1       2.681   2.722  20.019  0.00  0.00    +0.000 N 
ATOM     28  C   UNL     1       3.085   1.923  18.893  0.00  0.00    +0.000 C 
ENDBRANCH  22  23
ENDBRANCH  21  22
ENDBRANCH   1  21
TORSDOF 6
ENDMDL
MODEL 5
REMARK VINA RESULT:      -7.9      0.997      1.656
REMARK  Name = 
REMARK  8 active torsions:
REMARK  status: ('A' for Active; 'I' for Inactive)
REMARK    1  A    between atoms: C_1  and  C_2
REMARK    2  A    between atoms: C_2  and  S_3
REMARK    3  A    between atoms: C_2  and  C_10
REMARK    4  A    between atoms: S_3  and  C_4
REMARK    5  A    between atoms: N_8  and  C_9
REMARK    6  A    between atoms: C_14  and  N_15
REMARK    7  A    between atoms: C_18  and  C_19
REMARK    8  A    between atoms: C_22  and  C_23
REMARK                            x       y       z     vdW  Elec       q    Type
REMARK                         _______ _______ _______ _____ _____    ______ ____
ROOT
ATOM      1  C   UNL     1       2.334   7.621  19.099  0.00  0.00    +0.000 A 
ATOM      2  C   UNL     1       2.173   8.321  17.888  0.00  0.00    +0.000 A 
ATOM      3  C   UNL     1       1.427   9.500  17.828  0.00  0.00    +0.000 A 
ATOM      4  C   UNL     1       0.809   9.996  18.974  0.00  0.00    +0.000 A 
ATOM      5  C   UNL     1       0.940   9.310  20.186  0.00  0.00    +0.000 A 
ATOM      6  C   UNL     1       1.698   8.126  20.247  0.00  0.00    +0.000 A 
ENDROOT
BRANCH   5   7
ATOM      7  N   UNL     1       0.302   9.806  21.353  0.00  0.00    +0.000 N 
ATOM      8  N   UNL     1       0.143   9.042  22.466  0.00  0.00    +0.000 NA
ATOM      9  C   UNL     1      -0.554   9.852  23.262  0.00  0.00    +0.000 A 
ATOM     10  C   UNL     1      -0.809  11.082  22.623  0.00  0.00    +0.000 A 
ATOM     11  N   UNL     1      -0.210  11.067  21.423  0.00  0.00    +0.000 NA
BRANCH  10  12
ATOM     12  C   UNL     1      -1.603  12.209  23.096  0.00  0.00    +0.000 A 
ATOM     13  C   UNL     1      -1.041  13.489  23.206  0.00  0.00    +0.000 A 
ATOM     14  C   UNL     1      -1.820  14.574  23.627  0.00  0.00    +0.000 A 
ATOM     15  C   UNL     1      -3.172  14.392  23.934  0.00  0.00    +0.000 A 
ATOM     16  C   UNL     1      -3.738  13.118  23.829  0.00  0.00    +0.000 A 
ATOM     17  C   UNL     1      -2.958  12.034  23.416  0.00  0.00    +0.000 A 
BRANCH  15  18
ATOM     18  C   UNL     1      -3.978  15.504  24.345  0.00  0.00    +0.000 C 
ATOM     19  N   UNL     1      -4.636  16.401  24.674  0.00  0.00    +0.000 NA
ENDBRANCH  15  18
ENDBRANCH  10  12
ENDBRANCH   5   7
BRANCH   1  21
ATOM     20  C   UNL     1       3.502   5.805  17.785  0.00  0.00    +0.000 C 
ATOM     21  C   UNL     1       3.159   6.333  19.184  0.00  0.00    +0.000 C 
BRANCH  21  22
ATOM     22  S   UNL     1       2.242   5.119  20.216  0.00  0.00    +0.000 S 
BRANCH  22  23
ATOM     23  C   UNL     1       2.892   3.585  19.760  0.00  0.00    +0.000 A 
ATOM     24  N   UNL     1       4.113   3.140  19.940  0.00  0.00    +0.000 NA
ATOM     25  N   UNL     1       4.213   1.918  19.310  0.00  0.00    +0.000 NA
ATOM     26  C   UNL     1       3.043   1.641  18.789  0.00  0.00    +0.000 A 
ATOM     27  N   UNL     1       2.166   2.645  19.085  0.00  0.00    +0.000 N 
ATOM     28  C   UNL     1       0.767   2.660  18.753  0.00  0.00    +0.000 C 
ENDBRANCH  22  23
ENDBRANCH  21  22
ENDBRANCH   1  21
TORSDOF 6
ENDMDL
MODEL 6
REMARK VINA RESULT:      -7.8      0.928      1.384
REMARK  Name = 
REMARK  8 active torsions:
REMARK  status: ('A' for Active; 'I' for Inactive)
REMARK    1  A    between atoms: C_1  and  C_2
REMARK    2  A    between atoms: C_2  and  S_3
REMARK    3  A    between atoms: C_2  and  C_10
REMARK    4  A    between atoms: S_3  and  C_4
REMARK    5  A    between atoms: N_8  and  C_9
REMARK    6  A    between atoms: C_14  and  N_15
REMARK    7  A    between atoms: C_18  and  C_19
REMARK    8  A    between atoms: C_22  and  C_23
REMARK                            x       y       z     vdW  Elec       q    Type
REMARK                         _______ _______ _______ _____ _____    ______ ____
ROOT
ATOM      1  C   UNL     1       2.300   7.715  19.093  0.00  0.00    +0.000 A 
ATOM      2  C   UNL     1       2.244   8.483  17.914  0.00  0.00    +0.000 A 
ATOM      3  C   UNL     1       1.567   9.703  17.878  0.00  0.00    +0.000 A 
ATOM      4  C   UNL     1       0.913  10.175  19.014  0.00  0.00    +0.000 A 
ATOM      5  C   UNL     1       0.939   9.422  20.193  0.00  0.00    +0.000 A 
ATOM      6  C   UNL     1       1.628   8.196  20.230  0.00  0.00    +0.000 A 
ENDROOT
BRANCH   5   7
ATOM      7  N   UNL     1       0.264   9.894  21.349  0.00  0.00    +0.000 N 
ATOM      8  N   UNL     1       0.030   9.093  22.423  0.00  0.00    +0.000 NA
ATOM      9  C   UNL     1      -0.677   9.895  23.218  0.00  0.00    +0.000 A 
ATOM     10  C   UNL     1      -0.864  11.156  22.618  0.00  0.00    +0.000 A 
ATOM     11  N   UNL     1      -0.211  11.168  21.446  0.00  0.00    +0.000 NA
BRANCH  10  12
ATOM     12  C   UNL     1      -1.643  12.290  23.100  0.00  0.00    +0.000 A 
ATOM     13  C   UNL     1      -1.098  13.583  23.115  0.00  0.00    +0.000 A 
ATOM     14  C   UNL     1      -1.865  14.672  23.546  0.00  0.00    +0.000 A 
ATOM     15  C   UNL     1      -3.189  14.482  23.957  0.00  0.00    +0.000 A 
ATOM     16  C   UNL     1      -3.736  13.196  23.948  0.00  0.00    +0.000 A 
ATOM     17  C   UNL     1      -2.968  12.107  23.525  0.00  0.00    +0.000 A 
BRANCH  15  18
ATOM     18  C   UNL     1      -3.983  15.597  24.379  0.00  0.00    +0.000 C 
ATOM     19  N   UNL     1      -4.627  16.498  24.728  0.00  0.00    +0.000 NA
ENDBRANCH  15  18
ENDBRANCH  10  12
ENDBRANCH   5   7
BRANCH   1  21
ATOM     20  C   UNL     1       3.105   5.718  17.771  0.00  0.00    +0.000 C 
ATOM     21  C   UNL     1       3.050   6.380  19.153  0.00  0.00    +0.000 C 
BRANCH  21  22
ATOM     22  S   UNL     1       2.261   5.325  20.436  0.00  0.00    +0.000 S 
BRANCH  22  23
ATOM     23  C   UNL     1       1.935   3.834  19.628  0.00  0.00    +0.000 A 
ATOM     24  N   UNL     1       0.805   3.436  19.092  0.00  0.00    +0.000 NA
ATOM     25  N   UNL     1       0.973   2.135  18.669  0.00  0.00    +0.000 NA
ATOM     26  C   UNL     1       2.209   1.787  18.934  0.00  0.00    +0.000 A 
ATOM     27  N   UNL     1       2.865   2.842  19.501  0.00  0.00    +0.000 N 
ATOM     28  C   UNL     1       4.258   2.868  19.856  0.00  0.00    +0.000 C 
ENDBRANCH  22  23
ENDBRANCH  21  22
ENDBRANCH   1  21
TORSDOF 6
ENDMDL
MODEL 7
REMARK VINA RESULT:      -7.8      3.867     10.068
REMARK  Name = 
REMARK  8 active torsions:
REMARK  status: ('A' for Active; 'I' for Inactive)
REMARK    1  A    between atoms: C_1  and  C_2
REMARK    2  A    between atoms: C_2  and  S_3
REMARK    3  A    between atoms: C_2  and  C_10
REMARK    4  A    between atoms: S_3  and  C_4
REMARK    5  A    between atoms: N_8  and  C_9
REMARK    6  A    between atoms: C_14  and  N_15
REMARK    7  A    between atoms: C_18  and  C_19
REMARK    8  A    between atoms: C_22  and  C_23
REMARK                            x       y       z     vdW  Elec       q    Type
REMARK                         _______ _______ _______ _____ _____    ______ ____
ROOT
ATOM      1  C   UNL     1      -0.135  10.858  20.374  0.00  0.00    +0.000 A 
ATOM      2  C   UNL     1      -0.317  10.958  21.767  0.00  0.00    +0.000 A 
ATOM      3  C   UNL     1       0.158   9.969  22.630  0.00  0.00    +0.000 A 
ATOM      4  C   UNL     1       0.809   8.847  22.120  0.00  0.00    +0.000 A 
ATOM      5  C   UNL     1       0.988   8.717  20.738  0.00  0.00    +0.000 A 
ATOM      6  C   UNL     1       0.514   9.718  19.869  0.00  0.00    +0.000 A 
ENDROOT
BRANCH   5   7
ATOM      7  N   UNL     1       1.640   7.571  20.213  0.00  0.00    +0.000 N 
ATOM      8  N   UNL     1       1.695   6.398  20.899  0.00  0.00    +0.000 NA
ATOM      9  C   UNL     1       2.445   5.643  20.097  0.00  0.00    +0.000 A 
ATOM     10  C   UNL     1       2.834   6.365  18.951  0.00  0.00    +0.000 A 
ATOM     11  N   UNL     1       2.268   7.580  19.004  0.00  0.00    +0.000 NA
BRANCH  10  12
ATOM     12  C   UNL     1       3.721   5.953  17.869  0.00  0.00    +0.000 A 
ATOM     13  C   UNL     1       3.893   4.596  17.558  0.00  0.00    +0.000 A 
ATOM     14  C   UNL     1       4.719   4.210  16.495  0.00  0.00    +0.000 A 
ATOM     15  C   UNL     1       5.374   5.177  15.727  0.00  0.00    +0.000 A 
ATOM     16  C   UNL     1       5.209   6.531  16.034  0.00  0.00    +0.000 A 
ATOM     17  C   UNL     1       4.391   6.916  17.100  0.00  0.00    +0.000 A 
BRANCH  15  18
ATOM     18  C   UNL     1       6.203   4.787  14.625  0.00  0.00    +0.000 C 
ATOM     19  N   UNL     1       6.880   4.467  13.737  0.00  0.00    +0.000 NA
ENDBRANCH  15  18
ENDBRANCH  10  12
ENDBRANCH   5   7
BRANCH   1  21
ATOM     20  C   UNL     1       0.294  13.158  19.420  0.00  0.00    +0.000 C 
ATOM     21  C   UNL     1      -0.640  11.941  19.414  0.00  0.00    +0.000 C 
BRANCH  21  22
ATOM     22  S   UNL     1      -2.376  12.351  19.857  0.00  0.00    +0.000 S 
BRANCH  22  23
ATOM     23  C   UNL     1      -3.300  11.858  18.484  0.00  0.00    +0.000 A 
ATOM     24  N   UNL     1      -2.859  11.475  17.308  0.00  0.00    +0.000 NA
ATOM     25  N   UNL     1      -3.951  11.294  16.487  0.00  0.00    +0.000 NA
ATOM     26  C   UNL     1      -5.026  11.544  17.193  0.00  0.00    +0.000 A 
ATOM     27  N   UNL     1      -4.666  11.862  18.471  0.00  0.00    +0.000 N 
ATOM     28  C   UNL     1      -5.573  12.120  19.557  0.00  0.00    +0.000 C 
ENDBRANCH  22  23
ENDBRANCH  21  22
ENDBRANCH   1  21
TORSDOF 6
ENDMDL
MODEL 8
REMARK VINA RESULT:      -7.7      6.096      8.840
REMARK  Name = 
REMARK  8 active torsions:
REMARK  status: ('A' for Active; 'I' for Inactive)
REMARK    1  A    between atoms: C_1  and  C_2
REMARK    2  A    between atoms: C_2  and  S_3
REMARK    3  A    between atoms: C_2  and  C_10
REMARK    4  A    between atoms: S_3  and  C_4
REMARK    5  A    between atoms: N_8  and  C_9
REMARK    6  A    between atoms: C_14  and  N_15
REMARK    7  A    between atoms: C_18  and  C_19
REMARK    8  A    between atoms: C_22  and  C_23
REMARK                            x       y       z     vdW  Elec       q    Type
REMARK                         _______ _______ _______ _____ _____    ______ ____
ROOT
ATOM      1  C   UNL     1       4.941   4.016  16.836  0.00  0.00    +0.000 A 
ATOM      2  C   UNL     1       5.064   3.980  15.435  0.00  0.00    +0.000 A 
ATOM      3  C   UNL     1       5.962   4.813  14.765  0.00  0.00    +0.000 A 
ATOM      4  C   UNL     1       6.745   5.717  15.481  0.00  0.00    +0.000 A 
ATOM      5  C   UNL     1       6.630   5.785  16.874  0.00  0.00    +0.000 A 
ATOM      6  C   UNL     1       5.729   4.938  17.548  0.00  0.00    +0.000 A 
ENDROOT
BRANCH   5   7
ATOM      7  N   UNL     1       7.417   6.712  17.605  0.00  0.00    +0.000 N 
ATOM      8  N   UNL     1       8.001   6.385  18.788  0.00  0.00    +0.000 NA
ATOM      9  C   UNL     1       8.556   7.539  19.152  0.00  0.00    +0.000 A 
ATOM     10  C   UNL     1       8.299   8.542  18.196  0.00  0.00    +0.000 A 
ATOM     11  N   UNL     1       7.617   7.992  17.180  0.00  0.00    +0.000 NA
BRANCH  10  12
ATOM     12  C   UNL     1       8.644   9.958  18.241  0.00  0.00    +0.000 A 
ATOM     13  C   UNL     1       7.973  10.887  17.434  0.00  0.00    +0.000 A 
ATOM     14  C   UNL     1       8.286  12.250  17.508  0.00  0.00    +0.000 A 
ATOM     15  C   UNL     1       9.268  12.699  18.397  0.00  0.00    +0.000 A 
ATOM     16  C   UNL     1       9.943  11.776  19.202  0.00  0.00    +0.000 A 
ATOM     17  C   UNL     1       9.636  10.415  19.122  0.00  0.00    +0.000 A 
BRANCH  15  18
ATOM     18  C   UNL     1       9.576  14.095  18.491  0.00  0.00    +0.000 C 
ATOM     19  N   UNL     1       9.833  15.224  18.571  0.00  0.00    +0.000 NA
ENDBRANCH  15  18
ENDBRANCH  10  12
ENDBRANCH   5   7
BRANCH   1  21
ATOM     20  C   UNL     1       2.523   3.354  17.148  0.00  0.00    +0.000 C 
ATOM     21  C   UNL     1       3.970   3.099  17.587  0.00  0.00    +0.000 C 
BRANCH  21  22
ATOM     22  S   UNL     1       4.234   3.323  19.393  0.00  0.00    +0.000 S 
BRANCH  22  23
ATOM     23  C   UNL     1       3.104   4.548  19.846  0.00  0.00    +0.000 A 
ATOM     24  N   UNL     1       3.152   5.831  19.573  0.00  0.00    +0.000 NA
ATOM     25  N   UNL     1       2.110   6.443  20.237  0.00  0.00    +0.000 NA
ATOM     26  C   UNL     1       1.441   5.511  20.872  0.00  0.00    +0.000 A 
ATOM     27  N   UNL     1       2.008   4.295  20.619  0.00  0.00    +0.000 N 
ATOM     28  C   UNL     1       1.506   3.027  21.076  0.00  0.00    +0.000 C 
ENDBRANCH  22  23
ENDBRANCH  21  22
ENDBRANCH   1  21
TORSDOF 6
ENDMDL
MODEL 9
REMARK VINA RESULT:      -7.7      3.502     10.101
REMARK  Name = 
REMARK  8 active torsions:
REMARK  status: ('A' for Active; 'I' for Inactive)
REMARK    1  A    between atoms: C_1  and  C_2
REMARK    2  A    between atoms: C_2  and  S_3
REMARK    3  A    between atoms: C_2  and  C_10
REMARK    4  A    between atoms: S_3  and  C_4
REMARK    5  A    between atoms: N_8  and  C_9
REMARK    6  A    between atoms: C_14  and  N_15
REMARK    7  A    between atoms: C_18  and  C_19
REMARK    8  A    between atoms: C_22  and  C_23
REMARK                            x       y       z     vdW  Elec       q    Type
REMARK                         _______ _______ _______ _____ _____    ______ ____
ROOT
ATOM      1  C   UNL     1      -0.022  11.040  20.562  0.00  0.00    +0.000 A 
ATOM      2  C   UNL     1      -0.305  11.056  21.941  0.00  0.00    +0.000 A 
ATOM      3  C   UNL     1       0.037   9.979  22.761  0.00  0.00    +0.000 A 
ATOM      4  C   UNL     1       0.654   8.853  22.218  0.00  0.00    +0.000 A 
ATOM      5  C   UNL     1       0.931   8.807  20.847  0.00  0.00    +0.000 A 
ATOM      6  C   UNL     1       0.592   9.896  20.023  0.00  0.00    +0.000 A 
ENDROOT
BRANCH   5   7
ATOM      7  N   UNL     1       1.548   7.657  20.288  0.00  0.00    +0.000 N 
ATOM      8  N   UNL     1       1.569   6.464  20.939  0.00  0.00    +0.000 NA
ATOM      9  C   UNL     1       2.296   5.711  20.115  0.00  0.00    +0.000 A 
ATOM     10  C   UNL     1       2.706   6.454  18.990  0.00  0.00    +0.000 A 
ATOM     11  N   UNL     1       2.176   7.683  19.079  0.00  0.00    +0.000 NA
BRANCH  10  12
ATOM     12  C   UNL     1       3.579   6.048  17.896  0.00  0.00    +0.000 A 
ATOM     13  C   UNL     1       4.308   6.998  17.166  0.00  0.00    +0.000 A 
ATOM     14  C   UNL     1       5.171   6.597  16.139  0.00  0.00    +0.000 A 
ATOM     15  C   UNL     1       5.322   5.239  15.837  0.00  0.00    +0.000 A 
ATOM     16  C   UNL     1       4.596   4.287  16.559  0.00  0.00    +0.000 A 
ATOM     17  C   UNL     1       3.728   4.689  17.578  0.00  0.00    +0.000 A 
BRANCH  15  18
ATOM     18  C   UNL     1       6.221   4.824  14.802  0.00  0.00    +0.000 C 
ATOM     19  N   UNL     1       6.954   4.484  13.968  0.00  0.00    +0.000 NA
ENDBRANCH  15  18
ENDBRANCH  10  12
ENDBRANCH   5   7
BRANCH   1  21
ATOM     20  C   UNL     1      -1.364  11.788  18.555  0.00  0.00    +0.000 C 
ATOM     21  C   UNL     1      -0.380  12.219  19.650  0.00  0.00    +0.000 C 
BRANCH  21  22
ATOM     22  S   UNL     1       1.177  12.939  18.989  0.00  0.00    +0.000 S 
BRANCH  22  23
ATOM     23  C   UNL     1       1.827  13.847  20.306  0.00  0.00    +0.000 A 
ATOM     24  N   UNL     1       2.669  13.443  21.229  0.00  0.00    +0.000 NA
ATOM     25  N   UNL     1       2.814  14.463  22.143  0.00  0.00    +0.000 NA
ATOM     26  C   UNL     1       2.079  15.470  21.737  0.00  0.00    +0.000 A 
ATOM     27  N   UNL     1       1.472  15.141  20.559  0.00  0.00    +0.000 N 
ATOM     28  C   UNL     1       0.651  16.018  19.768  0.00  0.00    +0.000 C 
ENDBRANCH  22  23
ENDBRANCH  21  22
ENDBRANCH   1  21
TORSDOF 6
ENDMDL
