MODEL 1
REMARK VINA RESULT:      -7.7      0.000      0.000
REMARK  Name = 
REMARK  8 active torsions:
REMARK  status: ('A' for Active; 'I' for Inactive)
REMARK    1  A    between atoms: C_1  and  C_2
REMARK    2  A    between atoms: C_2  and  N_3
REMARK    3  A    between atoms: N_12  and  C_13
REMARK    4  A    between atoms: C_17  and  C_18
REMARK    5  A    between atoms: C_18  and  C_19
REMARK    6  A    between atoms: C_18  and  S_20
REMARK    7  A    between atoms: S_20  and  C_21
REMARK    8  A    between atoms: N_25  and  C_26
REMARK                            x       y       z     vdW  Elec       q    Type
REMARK                         _______ _______ _______ _____ _____    ______ ____
ROOT
ATOM      1  N   UNL     1      -0.459  12.177  19.657  0.00  0.00    +0.000 NA
ATOM      2  C   UNL     1      -0.175  11.421  18.408  0.00  0.00    +0.000 C 
ATOM      3  C   UNL     1       1.031  10.479  18.557  0.00  0.00    +0.000 C 
ATOM      4  C   UNL     1       0.903   9.704  19.812  0.00  0.00    +0.000 A 
ATOM      5  N   UNL     1       1.581   8.535  20.006  0.00  0.00    +0.000 NA
ATOM      6  C   UNL     1       1.201   8.017  21.150  0.00  0.00    +0.000 A 
ATOM      7  N   UNL     1       1.517   6.769  21.597  0.00  0.00    +0.000 N 
ATOM      8  C   UNL     1       2.036   5.791  20.788  0.00  0.00    +0.000 C 
ATOM      9  O   UNL     1       2.208   4.666  21.255  0.00  0.00    +0.000 OA
ATOM     10  N   UNL     1       2.319   6.160  19.497  0.00  0.00    +0.000 N 
ATOM     11  S   UNL     1       0.148   8.952  22.112  0.00  0.00    +0.000 S 
ATOM     12  C   UNL     1       0.062  10.084  20.835  0.00  0.00    +0.000 A 
ATOM     13  C   UNL     1      -0.841  11.274  20.778  0.00  0.00    +0.000 C 
ATOM     14  H   UNL     1       1.232   6.488  22.525  0.00  0.00    +0.000 HD
ATOM     15  H   UNL     1       2.479   7.158  19.374  0.00  0.00    +0.000 HD
ENDROOT
BRANCH  10  16
ATOM     16  C   UNL     1       2.742   5.326  18.460  0.00  0.00    +0.000 A 
ATOM     17  C   UNL     1       1.962   4.202  18.181  0.00  0.00    +0.000 A 
ATOM     18  C   UNL     1       2.306   3.366  17.124  0.00  0.00    +0.000 A 
ATOM     19  C   UNL     1       3.472   3.610  16.394  0.00  0.00    +0.000 A 
ATOM     20  C   UNL     1       4.312   4.690  16.717  0.00  0.00    +0.000 A 
ATOM     21  C   UNL     1       3.924   5.555  17.754  0.00  0.00    +0.000 A 
BRANCH  20  22
ATOM     22  C   UNL     1       5.607   4.879  15.942  0.00  0.00    +0.000 C 
ATOM     23  C   UNL     1       5.647   3.981  14.701  0.00  0.00    +0.000 C 
BRANCH  22  24
ATOM     24  S   UNL     1       7.106   4.542  16.936  0.00  0.00    +0.000 S 
BRANCH  24  25
ATOM     25  C   UNL     1       7.550   6.143  17.385  0.00  0.00    +0.000 A 
ATOM     26  N   UNL     1       7.558   7.206  16.611  0.00  0.00    +0.000 NA
ATOM     27  N   UNL     1       7.964   8.275  17.384  0.00  0.00    +0.000 NA
ATOM     28  C   UNL     1       8.181   7.829  18.598  0.00  0.00    +0.000 A 
ATOM     29  N   UNL     1       7.940   6.489  18.646  0.00  0.00    +0.000 N 
ATOM     30  C   UNL     1       8.033   5.647  19.804  0.00  0.00    +0.000 C 
ENDBRANCH  24  25
ENDBRANCH  22  24
ENDBRANCH  20  22
ENDBRANCH  10  16
BRANCH   1  32
ATOM     31  C   UNL     1      -1.891  14.013  20.596  0.00  0.00    +0.000 C 
ATOM     32  C   UNL     1      -1.488  13.189  19.381  0.00  0.00    +0.000 C 
ENDBRANCH   1  32
TORSDOF 5
ENDMDL
MODEL 2
REMARK VINA RESULT:      -7.5      2.675      3.796
REMARK  Name = 
REMARK  8 active torsions:
REMARK  status: ('A' for Active; 'I' for Inactive)
REMARK    1  A    between atoms: C_1  and  C_2
REMARK    2  A    between atoms: C_2  and  N_3
REMARK    3  A    between atoms: N_12  and  C_13
REMARK    4  A    between atoms: C_17  and  C_18
REMARK    5  A    between atoms: C_18  and  C_19
REMARK    6  A    between atoms: C_18  and  S_20
REMARK    7  A    between atoms: S_20  and  C_21
REMARK    8  A    between atoms: N_25  and  C_26
REMARK                            x       y       z     vdW  Elec       q    Type
REMARK                         _______ _______ _______ _____ _____    ______ ____
ROOT
ATOM      1  N   UNL     1      -4.369  11.890  17.476  0.00  0.00    +0.000 NA
ATOM      2  C   UNL     1      -3.941  10.494  17.192  0.00  0.00    +0.000 C 
ATOM      3  C   UNL     1      -2.425  10.301  17.363  0.00  0.00    +0.000 C 
ATOM      4  C   UNL     1      -1.991  10.902  18.644  0.00  0.00    +0.000 A 
ATOM      5  N   UNL     1      -0.819  10.540  19.245  0.00  0.00    +0.000 NA
ATOM      6  C   UNL     1      -0.741  11.149  20.405  0.00  0.00    +0.000 A 
ATOM      7  N   UNL     1       0.189  10.896  21.368  0.00  0.00    +0.000 N 
ATOM      8  C   UNL     1       0.989   9.782  21.367  0.00  0.00    +0.000 C 
ATOM      9  O   UNL     1       1.739   9.591  22.323  0.00  0.00    +0.000 OA
ATOM     10  N   UNL     1       0.876   8.957  20.276  0.00  0.00    +0.000 N 
ATOM     11  S   UNL     1      -1.962  12.282  20.770  0.00  0.00    +0.000 S 
ATOM     12  C   UNL     1      -2.756  11.820  19.329  0.00  0.00    +0.000 A 
ATOM     13  C   UNL     1      -4.112  12.271  18.893  0.00  0.00    +0.000 C 
ATOM     14  H   UNL     1       0.208  11.468  22.202  0.00  0.00    +0.000 HD
ATOM     15  H   UNL     1       0.524   9.419  19.440  0.00  0.00    +0.000 HD
ENDROOT
BRANCH  10  16
ATOM     16  C   UNL     1       1.491   7.717  20.096  0.00  0.00    +0.000 A 
ATOM     17  C   UNL     1       1.381   6.788  21.132  0.00  0.00    +0.000 A 
ATOM     18  C   UNL     1       1.929   5.518  20.985  0.00  0.00    +0.000 A 
ATOM     19  C   UNL     1       2.652   5.201  19.833  0.00  0.00    +0.000 A 
ATOM     20  C   UNL     1       2.843   6.153  18.817  0.00  0.00    +0.000 A 
ATOM     21  C   UNL     1       2.240   7.415  18.958  0.00  0.00    +0.000 A 
BRANCH  20  22
ATOM     22  C   UNL     1       3.695   5.789  17.611  0.00  0.00    +0.000 C 
ATOM     23  C   UNL     1       3.949   4.280  17.546  0.00  0.00    +0.000 C 
BRANCH  22  24
ATOM     24  S   UNL     1       5.315   6.640  17.581  0.00  0.00    +0.000 S 
BRANCH  24  25
ATOM     25  C   UNL     1       6.048   5.872  16.228  0.00  0.00    +0.000 A 
ATOM     26  N   UNL     1       5.755   6.060  14.959  0.00  0.00    +0.000 NA
ATOM     27  N   UNL     1       6.595   5.254  14.219  0.00  0.00    +0.000 NA
ATOM     28  C   UNL     1       7.374   4.612  15.058  0.00  0.00    +0.000 A 
ATOM     29  N   UNL     1       7.061   4.964  16.336  0.00  0.00    +0.000 N 
ATOM     30  C   UNL     1       7.710   4.503  17.530  0.00  0.00    +0.000 C 
ENDBRANCH  24  25
ENDBRANCH  22  24
ENDBRANCH  20  22
ENDBRANCH  10  16
BRANCH   1  32
ATOM     31  C   UNL     1      -6.442  13.292  17.672  0.00  0.00    +0.000 C 
ATOM     32  C   UNL     1      -5.783  12.043  17.104  0.00  0.00    +0.000 C 
ENDBRANCH   1  32
TORSDOF 5
ENDMDL
MODEL 3
REMARK VINA RESULT:      -7.3      3.875     10.235
REMARK  Name = 
REMARK  8 active torsions:
REMARK  status: ('A' for Active; 'I' for Inactive)
REMARK    1  A    between atoms: C_1  and  C_2
REMARK    2  A    between atoms: C_2  and  N_3
REMARK    3  A    between atoms: N_12  and  C_13
REMARK    4  A    between atoms: C_17  and  C_18
REMARK    5  A    between atoms: C_18  and  C_19
REMARK    6  A    between atoms: C_18  and  S_20
REMARK    7  A    between atoms: S_20  and  C_21
REMARK    8  A    between atoms: N_25  and  C_26
REMARK                            x       y       z     vdW  Elec       q    Type
REMARK                         _______ _______ _______ _____ _____    ______ ____
ROOT
ATOM      1  N   UNL     1       2.669   3.224  19.513  0.00  0.00    +0.000 NA
ATOM      2  C   UNL     1       1.286   3.744  19.682  0.00  0.00    +0.000 C 
ATOM      3  C   UNL     1       1.266   5.215  20.132  0.00  0.00    +0.000 C 
ATOM      4  C   UNL     1       2.195   6.003  19.291  0.00  0.00    +0.000 A 
ATOM      5  N   UNL     1       2.089   7.360  19.182  0.00  0.00    +0.000 NA
ATOM      6  C   UNL     1       2.966   7.777  18.300  0.00  0.00    +0.000 A 
ATOM      7  N   UNL     1       3.034   9.038  17.789  0.00  0.00    +0.000 N 
ATOM      8  C   UNL     1       2.022   9.956  17.917  0.00  0.00    +0.000 C 
ATOM      9  O   UNL     1       2.132  11.041  17.348  0.00  0.00    +0.000 OA
ATOM     10  N   UNL     1       0.950   9.572  18.682  0.00  0.00    +0.000 N 
ATOM     11  S   UNL     1       4.050   6.618  17.676  0.00  0.00    +0.000 S 
ATOM     12  C   UNL     1       3.187   5.418  18.534  0.00  0.00    +0.000 A 
ATOM     13  C   UNL     1       3.405   3.943  18.435  0.00  0.00    +0.000 C 
ATOM     14  H   UNL     1       3.791   9.281  17.165  0.00  0.00    +0.000 HD
ATOM     15  H   UNL     1       1.163   8.846  19.363  0.00  0.00    +0.000 HD
ENDROOT
BRANCH  10  16
ATOM     16  C   UNL     1      -0.242  10.276  18.867  0.00  0.00    +0.000 A 
ATOM     17  C   UNL     1      -0.298  11.176  19.932  0.00  0.00    +0.000 A 
ATOM     18  C   UNL     1      -1.441  11.943  20.131  0.00  0.00    +0.000 A 
ATOM     19  C   UNL     1      -2.557  11.756  19.311  0.00  0.00    +0.000 A 
ATOM     20  C   UNL     1      -2.545  10.794  18.286  0.00  0.00    +0.000 A 
ATOM     21  C   UNL     1      -1.365  10.064  18.065  0.00  0.00    +0.000 A 
BRANCH  20  22
ATOM     22  C   UNL     1      -3.804  10.574  17.462  0.00  0.00    +0.000 C 
ATOM     23  C   UNL     1      -3.484  10.520  15.965  0.00  0.00    +0.000 C 
BRANCH  22  24
ATOM     24  S   UNL     1      -5.080  11.858  17.726  0.00  0.00    +0.000 S 
BRANCH  24  25
ATOM     25  C   UNL     1      -6.105  11.056  18.850  0.00  0.00    +0.000 A 
ATOM     26  N   UNL     1      -6.449   9.787  18.837  0.00  0.00    +0.000 NA
ATOM     27  N   UNL     1      -7.267   9.571  19.928  0.00  0.00    +0.000 NA
ATOM     28  C   UNL     1      -7.385  10.709  20.569  0.00  0.00    +0.000 A 
ATOM     29  N   UNL     1      -6.676  11.676  19.923  0.00  0.00    +0.000 N 
ATOM     30  C   UNL     1      -6.530  13.044  20.332  0.00  0.00    +0.000 C 
ENDBRANCH  24  25
ENDBRANCH  22  24
ENDBRANCH  20  22
ENDBRANCH  10  16
BRANCH   1  32
ATOM     31  C   UNL     1       3.731   1.243  18.394  0.00  0.00    +0.000 C 
ATOM     32  C   UNL     1       2.610   1.774  19.277  0.00  0.00    +0.000 C 
ENDBRANCH   1  32
TORSDOF 5
ENDMDL
MODEL 4
REMARK VINA RESULT:      -7.2      3.319      5.155
REMARK  Name = 
REMARK  8 active torsions:
REMARK  status: ('A' for Active; 'I' for Inactive)
REMARK    1  A    between atoms: C_1  and  C_2
REMARK    2  A    between atoms: C_2  and  N_3
REMARK    3  A    between atoms: N_12  and  C_13
REMARK    4  A    between atoms: C_17  and  C_18
REMARK    5  A    between atoms: C_18  and  C_19
REMARK    6  A    between atoms: C_18  and  S_20
REMARK    7  A    between atoms: S_20  and  C_21
REMARK    8  A    between atoms: N_25  and  C_26
REMARK                            x       y       z     vdW  Elec       q    Type
REMARK                         _______ _______ _______ _____ _____    ______ ____
ROOT
ATOM      1  N   UNL     1      -5.063  13.489  20.120  0.00  0.00    +0.000 NA
ATOM      2  C   UNL     1      -4.549  12.560  19.079  0.00  0.00    +0.000 C 
ATOM      3  C   UNL     1      -3.015  12.447  19.102  0.00  0.00    +0.000 C 
ATOM      4  C   UNL     1      -2.555  12.238  20.493  0.00  0.00    +0.000 A 
ATOM      5  N   UNL     1      -1.327  11.709  20.770  0.00  0.00    +0.000 NA
ATOM      6  C   UNL     1      -1.228  11.542  22.068  0.00  0.00    +0.000 A 
ATOM      7  N   UNL     1      -0.229  10.870  22.705  0.00  0.00    +0.000 N 
ATOM      8  C   UNL     1       0.650  10.041  22.057  0.00  0.00    +0.000 C 
ATOM      9  O   UNL     1       1.466   9.406  22.723  0.00  0.00    +0.000 OA
ATOM     10  N   UNL     1       0.538   9.988  20.690  0.00  0.00    +0.000 N 
ATOM     11  S   UNL     1      -2.508  12.138  23.026  0.00  0.00    +0.000 S 
ATOM     12  C   UNL     1      -3.346  12.518  21.586  0.00  0.00    +0.000 A 
ATOM     13  C   UNL     1      -4.755  13.008  21.495  0.00  0.00    +0.000 C 
ATOM     14  H   UNL     1      -0.206  10.856  23.716  0.00  0.00    +0.000 HD
ATOM     15  H   UNL     1       0.105  10.812  20.276  0.00  0.00    +0.000 HD
ENDROOT
BRANCH  10  16
ATOM     16  C   UNL     1       1.233   9.142  19.824  0.00  0.00    +0.000 A 
ATOM     17  C   UNL     1       1.553   9.640  18.559  0.00  0.00    +0.000 A 
ATOM     18  C   UNL     1       2.291   8.860  17.675  0.00  0.00    +0.000 A 
ATOM     19  C   UNL     1       2.645   7.555  18.026  0.00  0.00    +0.000 A 
ATOM     20  C   UNL     1       2.258   7.011  19.263  0.00  0.00    +0.000 A 
ATOM     21  C   UNL     1       1.557   7.829  20.166  0.00  0.00    +0.000 A 
BRANCH  20  22
ATOM     22  C   UNL     1       2.605   5.564  19.577  0.00  0.00    +0.000 C 
ATOM     23  C   UNL     1       2.198   5.193  21.007  0.00  0.00    +0.000 C 
BRANCH  22  24
ATOM     24  S   UNL     1       4.382   5.180  19.373  0.00  0.00    +0.000 S 
BRANCH  24  25
ATOM     25  C   UNL     1       4.318   3.467  19.226  0.00  0.00    +0.000 A 
ATOM     26  N   UNL     1       4.838   2.584  20.052  0.00  0.00    +0.000 NA
ATOM     27  N   UNL     1       4.535   1.331  19.558  0.00  0.00    +0.000 NA
ATOM     28  C   UNL     1       3.838   1.493  18.458  0.00  0.00    +0.000 A 
ATOM     29  N   UNL     1       3.682   2.823  18.205  0.00  0.00    +0.000 N 
ATOM     30  C   UNL     1       2.952   3.403  17.114  0.00  0.00    +0.000 C 
ENDBRANCH  24  25
ENDBRANCH  22  24
ENDBRANCH  20  22
ENDBRANCH  10  16
BRANCH   1  32
ATOM     31  C   UNL     1      -7.220  12.496  19.306  0.00  0.00    +0.000 C 
ATOM     32  C   UNL     1      -6.503  13.695  19.910  0.00  0.00    +0.000 C 
ENDBRANCH   1  32
TORSDOF 5
ENDMDL
MODEL 5
REMARK VINA RESULT:      -7.2      3.680     10.464
REMARK  Name = 
REMARK  8 active torsions:
REMARK  status: ('A' for Active; 'I' for Inactive)
REMARK    1  A    between atoms: C_1  and  C_2
REMARK    2  A    between atoms: C_2  and  N_3
REMARK    3  A    between atoms: N_12  and  C_13
REMARK    4  A    between atoms: C_17  and  C_18
REMARK    5  A    between atoms: C_18  and  C_19
REMARK    6  A    between atoms: C_18  and  S_20
REMARK    7  A    between atoms: S_20  and  C_21
REMARK    8  A    between atoms: N_25  and  C_26
REMARK                            x       y       z     vdW  Elec       q    Type
REMARK                         _______ _______ _______ _____ _____    ______ ____
ROOT
ATOM      1  N   UNL     1       2.801   4.275  19.396  0.00  0.00    +0.000 NA
ATOM      2  C   UNL     1       1.669   4.634  20.292  0.00  0.00    +0.000 C 
ATOM      3  C   UNL     1       1.780   6.070  20.829  0.00  0.00    +0.000 C 
ATOM      4  C   UNL     1       2.089   6.993  19.714  0.00  0.00    +0.000 A 
ATOM      5  N   UNL     1       1.848   8.334  19.805  0.00  0.00    +0.000 NA
ATOM      6  C   UNL     1       2.117   8.886  18.645  0.00  0.00    +0.000 A 
ATOM      7  N   UNL     1       1.825  10.170  18.294  0.00  0.00    +0.000 N 
ATOM      8  C   UNL     1       0.961  10.965  19.003  0.00  0.00    +0.000 C 
ATOM      9  O   UNL     1       0.688  12.081  18.564  0.00  0.00    +0.000 OA
ATOM     10  N   UNL     1       0.463  10.431  20.165  0.00  0.00    +0.000 N 
ATOM     11  S   UNL     1       2.804   7.882  17.450  0.00  0.00    +0.000 S 
ATOM     12  C   UNL     1       2.590   6.556  18.507  0.00  0.00    +0.000 A 
ATOM     13  C   UNL     1       2.828   5.120  18.170  0.00  0.00    +0.000 C 
ATOM     14  H   UNL     1       2.136  10.522  17.399  0.00  0.00    +0.000 HD
ATOM     15  H   UNL     1       1.045   9.701  20.572  0.00  0.00    +0.000 HD
ENDROOT
BRANCH  10  16
ATOM     16  C   UNL     1      -0.510  10.991  20.995  0.00  0.00    +0.000 A 
ATOM     17  C   UNL     1      -0.528  10.584  22.330  0.00  0.00    +0.000 A 
ATOM     18  C   UNL     1      -1.441  11.149  23.214  0.00  0.00    +0.000 A 
ATOM     19  C   UNL     1      -2.387  12.066  22.747  0.00  0.00    +0.000 A 
ATOM     20  C   UNL     1      -2.436  12.422  21.388  0.00  0.00    +0.000 A 
ATOM     21  C   UNL     1      -1.473  11.882  20.518  0.00  0.00    +0.000 A 
BRANCH  20  22
ATOM     22  C   UNL     1      -3.525  13.369  20.909  0.00  0.00    +0.000 C 
ATOM     23  C   UNL     1      -3.327  14.777  21.481  0.00  0.00    +0.000 C 
BRANCH  22  24
ATOM     24  S   UNL     1      -5.214  12.812  21.338  0.00  0.00    +0.000 S 
BRANCH  24  25
ATOM     25  C   UNL     1      -5.668  12.029  19.876  0.00  0.00    +0.000 A 
ATOM     26  N   UNL     1      -5.028  12.071  18.727  0.00  0.00    +0.000 NA
ATOM     27  N   UNL     1      -5.733  11.290  17.834  0.00  0.00    +0.000 NA
ATOM     28  C   UNL     1      -6.769  10.795  18.469  0.00  0.00    +0.000 A 
ATOM     29  N   UNL     1      -6.774  11.239  19.757  0.00  0.00    +0.000 N 
ATOM     30  C   UNL     1      -7.725  10.893  20.775  0.00  0.00    +0.000 C 
ENDBRANCH  24  25
ENDBRANCH  22  24
ENDBRANCH  20  22
ENDBRANCH  10  16
BRANCH   1  32
ATOM     31  C   UNL     1       1.462   2.160  19.578  0.00  0.00    +0.000 C 
ATOM     32  C   UNL     1       2.731   2.841  19.085  0.00  0.00    +0.000 C 
ENDBRANCH   1  32
TORSDOF 5
ENDMDL
MODEL 6
REMARK VINA RESULT:      -7.2      2.362      3.223
REMARK  Name = 
REMARK  8 active torsions:
REMARK  status: ('A' for Active; 'I' for Inactive)
REMARK    1  A    between atoms: C_1  and  C_2
REMARK    2  A    between atoms: C_2  and  N_3
REMARK    3  A    between atoms: N_12  and  C_13
REMARK    4  A    between atoms: C_17  and  C_18
REMARK    5  A    between atoms: C_18  and  C_19
REMARK    6  A    between atoms: C_18  and  S_20
REMARK    7  A    between atoms: S_20  and  C_21
REMARK    8  A    between atoms: N_25  and  C_26
REMARK                            x       y       z     vdW  Elec       q    Type
REMARK                         _______ _______ _______ _____ _____    ______ ____
ROOT
ATOM      1  N   UNL     1      -3.629  11.559  17.131  0.00  0.00    +0.000 NA
ATOM      2  C   UNL     1      -3.255  10.156  16.808  0.00  0.00    +0.000 C 
ATOM      3  C   UNL     1      -1.761   9.879  17.047  0.00  0.00    +0.000 C 
ATOM      4  C   UNL     1      -1.367  10.405  18.374  0.00  0.00    +0.000 A 
ATOM      5  N   UNL     1      -0.247   9.960  19.017  0.00  0.00    +0.000 NA
ATOM      6  C   UNL     1      -0.201  10.516  20.205  0.00  0.00    +0.000 A 
ATOM      7  N   UNL     1       0.663  10.178  21.203  0.00  0.00    +0.000 N 
ATOM      8  C   UNL     1       1.407   9.025  21.194  0.00  0.00    +0.000 C 
ATOM      9  O   UNL     1       2.095   8.758  22.177  0.00  0.00    +0.000 OA
ATOM     10  N   UNL     1       1.312   8.252  20.064  0.00  0.00    +0.000 N 
ATOM     11  S   UNL     1      -1.384  11.694  20.557  0.00  0.00    +0.000 S 
ATOM     12  C   UNL     1      -2.121  11.332  19.058  0.00  0.00    +0.000 A 
ATOM     13  C   UNL     1      -3.429  11.869  18.574  0.00  0.00    +0.000 C 
ATOM     14  H   UNL     1       0.665  10.714  22.060  0.00  0.00    +0.000 HD
ATOM     15  H   UNL     1       1.027   8.765  19.231  0.00  0.00    +0.000 HD
ENDROOT
BRANCH  10  16
ATOM     16  C   UNL     1       1.875   6.991  19.862  0.00  0.00    +0.000 A 
ATOM     17  C   UNL     1       1.799   6.077  20.914  0.00  0.00    +0.000 A 
ATOM     18  C   UNL     1       2.295   4.788  20.749  0.00  0.00    +0.000 A 
ATOM     19  C   UNL     1       2.936   4.436  19.559  0.00  0.00    +0.000 A 
ATOM     20  C   UNL     1       3.094   5.371  18.521  0.00  0.00    +0.000 A 
ATOM     21  C   UNL     1       2.542   6.653  18.683  0.00  0.00    +0.000 A 
BRANCH  20  22
ATOM     22  C   UNL     1       3.859   4.967  17.270  0.00  0.00    +0.000 C 
ATOM     23  C   UNL     1       4.504   3.587  17.436  0.00  0.00    +0.000 C 
BRANCH  22  24
ATOM     24  S   UNL     1       5.170   6.155  16.802  0.00  0.00    +0.000 S 
BRANCH  24  25
ATOM     25  C   UNL     1       6.282   5.918  18.093  0.00  0.00    +0.000 A 
ATOM     26  N   UNL     1       6.254   4.960  18.993  0.00  0.00    +0.000 NA
ATOM     27  N   UNL     1       7.340   5.144  19.824  0.00  0.00    +0.000 NA
ATOM     28  C   UNL     1       7.995   6.198  19.398  0.00  0.00    +0.000 A 
ATOM     29  N   UNL     1       7.361   6.724  18.313  0.00  0.00    +0.000 N 
ATOM     30  C   UNL     1       7.787   7.859  17.544  0.00  0.00    +0.000 C 
ENDBRANCH  24  25
ENDBRANCH  22  24
ENDBRANCH  20  22
ENDBRANCH  10  16
BRANCH   1  32
ATOM     31  C   UNL     1      -6.008  11.941  17.837  0.00  0.00    +0.000 C 
ATOM     32  C   UNL     1      -5.012  11.799  16.694  0.00  0.00    +0.000 C 
ENDBRANCH   1  32
TORSDOF 5
ENDMDL
MODEL 7
REMARK VINA RESULT:      -7.2      2.313      3.597
REMARK  Name = 
REMARK  8 active torsions:
REMARK  status: ('A' for Active; 'I' for Inactive)
REMARK    1  A    between atoms: C_1  and  C_2
REMARK    2  A    between atoms: C_2  and  N_3
REMARK    3  A    between atoms: N_12  and  C_13
REMARK    4  A    between atoms: C_17  and  C_18
REMARK    5  A    between atoms: C_18  and  C_19
REMARK    6  A    between atoms: C_18  and  S_20
REMARK    7  A    between atoms: S_20  and  C_21
REMARK    8  A    between atoms: N_25  and  C_26
REMARK                            x       y       z     vdW  Elec       q    Type
REMARK                         _______ _______ _______ _____ _____    ______ ____
ROOT
ATOM      1  N   UNL     1      -1.306  13.365  22.441  0.00  0.00    +0.000 NA
ATOM      2  C   UNL     1      -0.966  12.031  23.005  0.00  0.00    +0.000 C 
ATOM      3  C   UNL     1      -0.988  10.922  21.939  0.00  0.00    +0.000 C 
ATOM      4  C   UNL     1      -0.239  11.370  20.744  0.00  0.00    +0.000 A 
ATOM      5  N   UNL     1       0.249  10.481  19.829  0.00  0.00    +0.000 NA
ATOM      6  C   UNL     1       0.952  11.143  18.939  0.00  0.00    +0.000 A 
ATOM      7  N   UNL     1       1.743  10.582  17.982  0.00  0.00    +0.000 N 
ATOM      8  C   UNL     1       2.131   9.267  18.004  0.00  0.00    +0.000 C 
ATOM      9  O   UNL     1       2.919   8.868  17.147  0.00  0.00    +0.000 OA
ATOM     10  N   UNL     1       1.597   8.494  19.004  0.00  0.00    +0.000 N 
ATOM     11  S   UNL     1       0.943  12.844  19.054  0.00  0.00    +0.000 S 
ATOM     12  C   UNL     1       0.051  12.695  20.504  0.00  0.00    +0.000 A 
ATOM     13  C   UNL     1      -0.305  13.811  21.432  0.00  0.00    +0.000 C 
ATOM     14  H   UNL     1       2.191  11.177  17.298  0.00  0.00    +0.000 HD
ATOM     15  H   UNL     1       0.716   8.845  19.376  0.00  0.00    +0.000 HD
ENDROOT
BRANCH  10  16
ATOM     16  C   UNL     1       1.921   7.170  19.304  0.00  0.00    +0.000 A 
ATOM     17  C   UNL     1       1.768   6.755  20.628  0.00  0.00    +0.000 A 
ATOM     18  C   UNL     1       2.025   5.432  20.973  0.00  0.00    +0.000 A 
ATOM     19  C   UNL     1       2.506   4.542  20.009  0.00  0.00    +0.000 A 
ATOM     20  C   UNL     1       2.745   4.967  18.691  0.00  0.00    +0.000 A 
ATOM     21  C   UNL     1       2.432   6.292  18.346  0.00  0.00    +0.000 A 
BRANCH  20  22
ATOM     22  C   UNL     1       3.335   3.984  17.691  0.00  0.00    +0.000 C 
ATOM     23  C   UNL     1       2.305   2.930  17.274  0.00  0.00    +0.000 C 
BRANCH  22  24
ATOM     24  S   UNL     1       4.819   3.114  18.315  0.00  0.00    +0.000 S 
BRANCH  24  25
ATOM     25  C   UNL     1       5.912   4.432  18.474  0.00  0.00    +0.000 A 
ATOM     26  N   UNL     1       6.242   5.054  19.586  0.00  0.00    +0.000 NA
ATOM     27  N   UNL     1       7.156   6.033  19.254  0.00  0.00    +0.000 NA
ATOM     28  C   UNL     1       7.356   5.969  17.958  0.00  0.00    +0.000 A 
ATOM     29  N   UNL     1       6.588   4.979  17.423  0.00  0.00    +0.000 N 
ATOM     30  C   UNL     1       6.553   4.578  16.045  0.00  0.00    +0.000 C 
ENDBRANCH  24  25
ENDBRANCH  22  24
ENDBRANCH  20  22
ENDBRANCH  10  16
BRANCH   1  32
ATOM     31  C   UNL     1      -0.636  15.597  23.372  0.00  0.00    +0.000 C 
ATOM     32  C   UNL     1      -1.457  14.326  23.541  0.00  0.00    +0.000 C 
ENDBRANCH   1  32
TORSDOF 5
ENDMDL
MODEL 8
REMARK VINA RESULT:      -7.1      2.386      3.925
REMARK  Name = 
REMARK  8 active torsions:
REMARK  status: ('A' for Active; 'I' for Inactive)
REMARK    1  A    between atoms: C_1  and  C_2
REMARK    2  A    between atoms: C_2  and  N_3
REMARK    3  A    between atoms: N_12  and  C_13
REMARK    4  A    between atoms: C_17  and  C_18
REMARK    5  A    between atoms: C_18  and  C_19
REMARK    6  A    between atoms: C_18  and  S_20
REMARK    7  A    between atoms: S_20  and  C_21
REMARK    8  A    between atoms: N_25  and  C_26
REMARK                            x       y       z     vdW  Elec       q    Type
REMARK                         _______ _______ _______ _____ _____    ______ ____
ROOT
ATOM      1  N   UNL     1      -1.535  13.977  22.519  0.00  0.00    +0.000 NA
ATOM      2  C   UNL     1      -1.180  12.648  23.085  0.00  0.00    +0.000 C 
ATOM      3  C   UNL     1      -1.207  11.535  22.024  0.00  0.00    +0.000 C 
ATOM      4  C   UNL     1      -0.475  11.982  20.818  0.00  0.00    +0.000 A 
ATOM      5  N   UNL     1       0.008  11.093  19.901  0.00  0.00    +0.000 NA
ATOM      6  C   UNL     1       0.695  11.755  19.000  0.00  0.00    +0.000 A 
ATOM      7  N   UNL     1       1.479  11.196  18.036  0.00  0.00    +0.000 N 
ATOM      8  C   UNL     1       1.876   9.883  18.058  0.00  0.00    +0.000 C 
ATOM      9  O   UNL     1       2.656   9.485  17.194  0.00  0.00    +0.000 OA
ATOM     10  N   UNL     1       1.359   9.111  19.069  0.00  0.00    +0.000 N 
ATOM     11  S   UNL     1       0.676  13.457  19.107  0.00  0.00    +0.000 S 
ATOM     12  C   UNL     1      -0.197  13.308  20.569  0.00  0.00    +0.000 A 
ATOM     13  C   UNL     1      -0.550  14.426  21.496  0.00  0.00    +0.000 C 
ATOM     14  H   UNL     1       1.914  11.790  17.344  0.00  0.00    +0.000 HD
ATOM     15  H   UNL     1       0.480   9.458  19.450  0.00  0.00    +0.000 HD
ENDROOT
BRANCH  10  16
ATOM     16  C   UNL     1       1.695   7.790  19.371  0.00  0.00    +0.000 A 
ATOM     17  C   UNL     1       1.425   7.338  20.663  0.00  0.00    +0.000 A 
ATOM     18  C   UNL     1       1.690   6.015  21.003  0.00  0.00    +0.000 A 
ATOM     19  C   UNL     1       2.295   5.165  20.074  0.00  0.00    +0.000 A 
ATOM     20  C   UNL     1       2.650   5.630  18.795  0.00  0.00    +0.000 A 
ATOM     21  C   UNL     1       2.329   6.954  18.450  0.00  0.00    +0.000 A 
BRANCH  20  22
ATOM     22  C   UNL     1       3.370   4.692  17.839  0.00  0.00    +0.000 C 
ATOM     23  C   UNL     1       2.516   3.459  17.523  0.00  0.00    +0.000 C 
BRANCH  22  24
ATOM     24  S   UNL     1       4.990   4.116  18.465  0.00  0.00    +0.000 S 
BRANCH  24  25
ATOM     25  C   UNL     1       6.053   5.006  17.446  0.00  0.00    +0.000 A 
ATOM     26  N   UNL     1       6.745   6.076  17.771  0.00  0.00    +0.000 NA
ATOM     27  N   UNL     1       7.472   6.449  16.659  0.00  0.00    +0.000 NA
ATOM     28  C   UNL     1       7.205   5.592  15.702  0.00  0.00    +0.000 A 
ATOM     29  N   UNL     1       6.310   4.668  16.149  0.00  0.00    +0.000 N 
ATOM     30  C   UNL     1       5.798   3.550  15.410  0.00  0.00    +0.000 C 
ENDBRANCH  24  25
ENDBRANCH  22  24
ENDBRANCH  20  22
ENDBRANCH  10  16
BRANCH   1  32
ATOM     31  C   UNL     1      -2.965  14.786  24.416  0.00  0.00    +0.000 C 
ATOM     32  C   UNL     1      -1.679  14.943  23.617  0.00  0.00    +0.000 C 
ENDBRANCH   1  32
TORSDOF 5
ENDMDL
MODEL 9
REMARK VINA RESULT:      -7.0      2.027      2.994
REMARK  Name = 
REMARK  8 active torsions:
REMARK  status: ('A' for Active; 'I' for Inactive)
REMARK    1  A    between atoms: C_1  and  C_2
REMARK    2  A    between atoms: C_2  and  N_3
REMARK    3  A    between atoms: N_12  and  C_13
REMARK    4  A    between atoms: C_17  and  C_18
REMARK    5  A    between atoms: C_18  and  C_19
REMARK    6  A    between atoms: C_18  and  S_20
REMARK    7  A    between atoms: S_20  and  C_21
REMARK    8  A    between atoms: N_25  and  C_26
REMARK                            x       y       z     vdW  Elec       q    Type
REMARK                         _______ _______ _______ _____ _____    ______ ____
ROOT
ATOM      1  N   UNL     1      -0.018  12.030  19.190  0.00  0.00    +0.000 NA
ATOM      2  C   UNL     1       0.415  11.238  18.007  0.00  0.00    +0.000 C 
ATOM      3  C   UNL     1       1.543  10.250  18.346  0.00  0.00    +0.000 C 
ATOM      4  C   UNL     1       1.196   9.505  19.577  0.00  0.00    +0.000 A 
ATOM      5  N   UNL     1       1.786   8.312  19.885  0.00  0.00    +0.000 NA
ATOM      6  C   UNL     1       1.218   7.833  20.966  0.00  0.00    +0.000 A 
ATOM      7  N   UNL     1       1.409   6.582  21.471  0.00  0.00    +0.000 N 
ATOM      8  C   UNL     1       1.998   5.567  20.760  0.00  0.00    +0.000 C 
ATOM      9  O   UNL     1       2.050   4.445  21.262  0.00  0.00    +0.000 OA
ATOM     10  N   UNL     1       2.485   5.900  19.521  0.00  0.00    +0.000 N 
ATOM     11  S   UNL     1       0.076   8.829  21.749  0.00  0.00    +0.000 S 
ATOM     12  C   UNL     1       0.230   9.939  20.459  0.00  0.00    +0.000 A 
ATOM     13  C   UNL     1      -0.600  11.165  20.253  0.00  0.00    +0.000 C 
ATOM     14  H   UNL     1       0.977   6.330  22.350  0.00  0.00    +0.000 HD
ATOM     15  H   UNL     1       2.706   6.888  19.412  0.00  0.00    +0.000 HD
ENDROOT
BRANCH  10  16
ATOM     16  C   UNL     1       3.020   5.029  18.570  0.00  0.00    +0.000 A 
ATOM     17  C   UNL     1       2.216   3.971  18.143  0.00  0.00    +0.000 A 
ATOM     18  C   UNL     1       2.677   3.104  17.158  0.00  0.00    +0.000 A 
ATOM     19  C   UNL     1       3.971   3.250  16.653  0.00  0.00    +0.000 A 
ATOM     20  C   UNL     1       4.824   4.259  17.133  0.00  0.00    +0.000 A 
ATOM     21  C   UNL     1       4.325   5.158  18.091  0.00  0.00    +0.000 A 
BRANCH  20  22
ATOM     22  C   UNL     1       6.248   4.339  16.606  0.00  0.00    +0.000 C 
ATOM     23  C   UNL     1       7.245   4.602  17.740  0.00  0.00    +0.000 C 
BRANCH  22  24
ATOM     24  S   UNL     1       6.482   5.631  15.332  0.00  0.00    +0.000 S 
BRANCH  24  25
ATOM     25  C   UNL     1       6.492   4.668  13.907  0.00  0.00    +0.000 A 
ATOM     26  N   UNL     1       5.646   3.710  13.597  0.00  0.00    +0.000 NA
ATOM     27  N   UNL     1       6.016   3.218  12.362  0.00  0.00    +0.000 NA
ATOM     28  C   UNL     1       7.065   3.897  11.960  0.00  0.00    +0.000 A 
ATOM     29  N   UNL     1       7.406   4.817  12.904  0.00  0.00    +0.000 N 
ATOM     30  C   UNL     1       8.475   5.771  12.819  0.00  0.00    +0.000 C 
ENDBRANCH  24  25
ENDBRANCH  22  24
ENDBRANCH  20  22
ENDBRANCH  10  16
BRANCH   1  32
ATOM     31  C   UNL     1      -0.398  14.492  18.883  0.00  0.00    +0.000 C 
ATOM     32  C   UNL     1      -0.948  13.078  18.751  0.00  0.00    +0.000 C 
ENDBRANCH   1  32
TORSDOF 5
ENDMDL
