MODEL 1
REMARK VINA RESULT:     -10.4      0.000      0.000
REMARK  Name = 
REMARK  9 active torsions:
REMARK  status: ('A' for Active; 'I' for Inactive)
REMARK    1  A    between atoms: C_1  and  N_2
REMARK    2  A    between atoms: N_5  and  C_6
REMARK    3  A    between atoms: C_10  and  C_11
REMARK    4  A    between atoms: N_17  and  C_18
REMARK    5  A    between atoms: C_22  and  C_23
REMARK    6  A    between atoms: C_23  and  C_24
REMARK    7  A    between atoms: C_23  and  C_26
REMARK    8  A    between atoms: C_26  and  C_29
REMARK    9  A    between atoms: N_33  and  C_34
REMARK                            x       y       z     vdW  Elec       q    Type
REMARK                         _______ _______ _______ _____ _____    ______ ____
ROOT
ATOM      1  C   UNL     1       0.331  11.973  19.797  0.00  0.00    +0.000 A 
ATOM      2  C   UNL     1       0.990  11.125  18.904  0.00  0.00    +0.000 A 
ATOM      3  C   UNL     1       1.258   9.828  19.284  0.00  0.00    +0.000 A 
ATOM      4  C   UNL     1       0.904   9.311  20.520  0.00  0.00    +0.000 A 
ATOM      5  C   UNL     1       0.259  10.116  21.448  0.00  0.00    +0.000 A 
ATOM      6  C   UNL     1      -0.017  11.450  21.065  0.00  0.00    +0.000 A 
ATOM      7  C   UNL     1       1.338   7.884  20.594  0.00  0.00    +0.000 C 
ATOM      8  N   UNL     1       1.995   7.664  19.312  0.00  0.00    +0.000 N 
ATOM      9  C   UNL     1       1.956   8.804  18.512  0.00  0.00    +0.000 C 
ATOM     10  O   UNL     1       2.372   9.015  17.387  0.00  0.00    +0.000 OA
ENDROOT
BRANCH   1  15
ATOM     11  C   UNL     1       0.125  17.526  19.386  0.00  0.00    +0.000 C 
ATOM     12  N   UNL     1      -0.108  16.138  18.998  0.00  0.00    +0.000 NA
ATOM     13  C   UNL     1      -0.937  15.438  20.006  0.00  0.00    +0.000 C 
ATOM     14  C   UNL     1      -1.191  13.952  19.649  0.00  0.00    +0.000 C 
ATOM     15  N   UNL     1       0.095  13.281  19.436  0.00  0.00    +0.000 N 
ATOM     16  C   UNL     1       0.966  13.944  18.446  0.00  0.00    +0.000 C 
ATOM     17  C   UNL     1       1.178  15.419  18.848  0.00  0.00    +0.000 C 
ENDBRANCH   1  15
BRANCH   8  18
ATOM     18  C   UNL     1       2.620   6.437  18.982  0.00  0.00    +0.000 A 
ATOM     19  C   UNL     1       2.349   5.270  19.706  0.00  0.00    +0.000 A 
ATOM     20  C   UNL     1       2.942   4.057  19.363  0.00  0.00    +0.000 A 
ATOM     21  C   UNL     1       3.837   3.995  18.302  0.00  0.00    +0.000 A 
ATOM     22  C   UNL     1       4.152   5.151  17.571  0.00  0.00    +0.000 A 
ATOM     23  C   UNL     1       3.524   6.358  17.913  0.00  0.00    +0.000 A 
BRANCH  22  24
ATOM     24  C   UNL     1       5.198   5.128  16.448  0.00  0.00    +0.000 C 
ATOM     25  C   UNL     1       4.905   3.963  15.495  0.00  0.00    +0.000 C 
ATOM     26  F   UNL     1       5.107   6.251  15.656  0.00  0.00    +0.000 F 
BRANCH  24  27
ATOM     27  C   UNL     1       6.649   5.025  17.004  0.00  0.00    +0.000 C 
ATOM     28  F   UNL     1       6.665   4.146  18.055  0.00  0.00    +0.000 F 
ATOM     29  F   UNL     1       7.456   4.436  16.068  0.00  0.00    +0.000 F 
BRANCH  27  30
ATOM     30  C   UNL     1       7.237   6.341  17.409  0.00  0.00    +0.000 A 
ATOM     31  N   UNL     1       7.294   7.448  16.690  0.00  0.00    +0.000 NA
ATOM     32  N   UNL     1       7.919   8.420  17.431  0.00  0.00    +0.000 NA
ATOM     33  C   UNL     1       8.245   7.889  18.584  0.00  0.00    +0.000 A 
ATOM     34  N   UNL     1       7.846   6.588  18.616  0.00  0.00    +0.000 N 
ATOM     35  C   UNL     1       8.049   5.677  19.710  0.00  0.00    +0.000 C 
ENDBRANCH  27  30
ENDBRANCH  24  27
ENDBRANCH  22  24
ENDBRANCH   8  18
BRANCH   5  36
ATOM     36  C   UNL     1      -0.138   9.623  22.813  0.00  0.00    +0.000 C 
ATOM     37  F   UNL     1      -0.901   8.496  22.786  0.00  0.00    +0.000 F 
ATOM     38  F   UNL     1       0.941   9.317  23.586  0.00  0.00    +0.000 F 
ATOM     39  F   UNL     1      -0.854  10.542  23.514  0.00  0.00    +0.000 F 
ENDBRANCH   5  36
TORSDOF 6
ENDMDL
MODEL 2
REMARK VINA RESULT:      -9.9      0.525      1.085
REMARK  Name = 
REMARK  9 active torsions:
REMARK  status: ('A' for Active; 'I' for Inactive)
REMARK    1  A    between atoms: C_1  and  N_2
REMARK    2  A    between atoms: N_5  and  C_6
REMARK    3  A    between atoms: C_10  and  C_11
REMARK    4  A    between atoms: N_17  and  C_18
REMARK    5  A    between atoms: C_22  and  C_23
REMARK    6  A    between atoms: C_23  and  C_24
REMARK    7  A    between atoms: C_23  and  C_26
REMARK    8  A    between atoms: C_26  and  C_29
REMARK    9  A    between atoms: N_33  and  C_34
REMARK                            x       y       z     vdW  Elec       q    Type
REMARK                         _______ _______ _______ _____ _____    ______ ____
ROOT
ATOM      1  C   UNL     1       0.570  12.135  20.101  0.00  0.00    +0.000 A 
ATOM      2  C   UNL     1       1.166  11.343  19.116  0.00  0.00    +0.000 A 
ATOM      3  C   UNL     1       1.332   9.996  19.348  0.00  0.00    +0.000 A 
ATOM      4  C   UNL     1       0.934   9.373  20.522  0.00  0.00    +0.000 A 
ATOM      5  C   UNL     1       0.348  10.117  21.535  0.00  0.00    +0.000 A 
ATOM      6  C   UNL     1       0.177  11.504  21.304  0.00  0.00    +0.000 A 
ATOM      7  C   UNL     1       1.257   7.918  20.435  0.00  0.00    +0.000 C 
ATOM      8  N   UNL     1       1.901   7.791  19.133  0.00  0.00    +0.000 N 
ATOM      9  C   UNL     1       1.952   9.013  18.465  0.00  0.00    +0.000 C 
ATOM     10  O   UNL     1       2.388   9.315  17.368  0.00  0.00    +0.000 OA
ENDROOT
BRANCH   1  15
ATOM     11  C   UNL     1      -1.133  17.263  18.738  0.00  0.00    +0.000 C 
ATOM     12  N   UNL     1      -0.261  16.242  19.312  0.00  0.00    +0.000 NA
ATOM     13  C   UNL     1       0.244  15.325  18.264  0.00  0.00    +0.000 C 
ATOM     14  C   UNL     1       1.155  14.209  18.830  0.00  0.00    +0.000 C 
ATOM     15  N   UNL     1       0.437  13.489  19.888  0.00  0.00    +0.000 N 
ATOM     16  C   UNL     1      -0.096  14.359  20.954  0.00  0.00    +0.000 C 
ATOM     17  C   UNL     1      -0.988  15.454  20.333  0.00  0.00    +0.000 C 
ENDBRANCH   1  15
BRANCH   8  18
ATOM     18  C   UNL     1       2.431   6.565  18.667  0.00  0.00    +0.000 A 
ATOM     19  C   UNL     1       1.916   5.341  19.107  0.00  0.00    +0.000 A 
ATOM     20  C   UNL     1       2.418   4.133  18.626  0.00  0.00    +0.000 A 
ATOM     21  C   UNL     1       3.463   4.130  17.711  0.00  0.00    +0.000 A 
ATOM     22  C   UNL     1       4.023   5.339  17.268  0.00  0.00    +0.000 A 
ATOM     23  C   UNL     1       3.485   6.545  17.742  0.00  0.00    +0.000 A 
BRANCH  22  24
ATOM     24  C   UNL     1       5.231   5.364  16.322  0.00  0.00    +0.000 C 
ATOM     25  C   UNL     1       5.070   4.276  15.252  0.00  0.00    +0.000 C 
ATOM     26  F   UNL     1       5.285   6.541  15.610  0.00  0.00    +0.000 F 
BRANCH  24  27
ATOM     27  C   UNL     1       6.574   5.180  17.087  0.00  0.00    +0.000 C 
ATOM     28  F   UNL     1       6.364   4.374  18.177  0.00  0.00    +0.000 F 
ATOM     29  F   UNL     1       7.448   4.466  16.312  0.00  0.00    +0.000 F 
BRANCH  27  30
ATOM     30  C   UNL     1       7.217   6.467  17.501  0.00  0.00    +0.000 A 
ATOM     31  N   UNL     1       7.229   7.607  16.833  0.00  0.00    +0.000 NA
ATOM     32  N   UNL     1       7.932   8.534  17.562  0.00  0.00    +0.000 NA
ATOM     33  C   UNL     1       8.349   7.944  18.655  0.00  0.00    +0.000 A 
ATOM     34  N   UNL     1       7.933   6.648  18.660  0.00  0.00    +0.000 N 
ATOM     35  C   UNL     1       8.215   5.683  19.688  0.00  0.00    +0.000 C 
ENDBRANCH  27  30
ENDBRANCH  24  27
ENDBRANCH  22  24
ENDBRANCH   8  18
BRANCH   5  36
ATOM     36  C   UNL     1      -0.090   9.508  22.840  0.00  0.00    +0.000 C 
ATOM     37  F   UNL     1       0.943   9.170  23.659  0.00  0.00    +0.000 F 
ATOM     38  F   UNL     1      -0.874  10.351  23.567  0.00  0.00    +0.000 F 
ATOM     39  F   UNL     1      -0.817   8.372  22.668  0.00  0.00    +0.000 F 
ENDBRANCH   5  36
TORSDOF 6
ENDMDL
MODEL 3
REMARK VINA RESULT:      -9.7      2.888      9.274
REMARK  Name = 
REMARK  9 active torsions:
REMARK  status: ('A' for Active; 'I' for Inactive)
REMARK    1  A    between atoms: C_1  and  N_2
REMARK    2  A    between atoms: N_5  and  C_6
REMARK    3  A    between atoms: C_10  and  C_11
REMARK    4  A    between atoms: N_17  and  C_18
REMARK    5  A    between atoms: C_22  and  C_23
REMARK    6  A    between atoms: C_23  and  C_24
REMARK    7  A    between atoms: C_23  and  C_26
REMARK    8  A    between atoms: C_26  and  C_29
REMARK    9  A    between atoms: N_33  and  C_34
REMARK                            x       y       z     vdW  Elec       q    Type
REMARK                         _______ _______ _______ _____ _____    ______ ____
ROOT
ATOM      1  C   UNL     1       4.115   5.140  17.978  0.00  0.00    +0.000 A 
ATOM      2  C   UNL     1       3.683   6.468  18.035  0.00  0.00    +0.000 A 
ATOM      3  C   UNL     1       2.793   6.841  19.018  0.00  0.00    +0.000 A 
ATOM      4  C   UNL     1       2.295   5.961  19.966  0.00  0.00    +0.000 A 
ATOM      5  C   UNL     1       2.684   4.629  19.945  0.00  0.00    +0.000 A 
ATOM      6  C   UNL     1       3.596   4.238  18.936  0.00  0.00    +0.000 A 
ATOM      7  C   UNL     1       1.367   6.697  20.875  0.00  0.00    +0.000 C 
ATOM      8  N   UNL     1       1.360   8.049  20.329  0.00  0.00    +0.000 N 
ATOM      9  C   UNL     1       2.206   8.162  19.227  0.00  0.00    +0.000 C 
ATOM     10  O   UNL     1       2.484   9.112  18.517  0.00  0.00    +0.000 OA
ENDROOT
BRANCH   1  15
ATOM     11  C   UNL     1       7.483   4.837  13.549  0.00  0.00    +0.000 C 
ATOM     12  N   UNL     1       6.798   4.377  14.753  0.00  0.00    +0.000 NA
ATOM     13  C   UNL     1       5.329   4.395  14.568  0.00  0.00    +0.000 C 
ATOM     14  C   UNL     1       4.557   3.937  15.830  0.00  0.00    +0.000 C 
ATOM     15  N   UNL     1       4.976   4.754  16.974  0.00  0.00    +0.000 N 
ATOM     16  C   UNL     1       6.433   4.777  17.198  0.00  0.00    +0.000 C 
ATOM     17  C   UNL     1       7.149   5.233  15.909  0.00  0.00    +0.000 C 
ENDBRANCH   1  15
BRANCH   8  18
ATOM     18  C   UNL     1       0.546   9.077  20.862  0.00  0.00    +0.000 A 
ATOM     19  C   UNL     1       0.155   9.066  22.205  0.00  0.00    +0.000 A 
ATOM     20  C   UNL     1      -0.622  10.093  22.737  0.00  0.00    +0.000 A 
ATOM     21  C   UNL     1      -1.042  11.139  21.925  0.00  0.00    +0.000 A 
ATOM     22  C   UNL     1      -0.691  11.168  20.566  0.00  0.00    +0.000 A 
ATOM     23  C   UNL     1       0.115  10.140  20.056  0.00  0.00    +0.000 A 
BRANCH  22  24
ATOM     24  C   UNL     1      -1.209  12.267  19.628  0.00  0.00    +0.000 C 
ATOM     25  C   UNL     1      -1.795  11.630  18.362  0.00  0.00    +0.000 C 
ATOM     26  F   UNL     1      -2.267  12.947  20.191  0.00  0.00    +0.000 F 
BRANCH  24  27
ATOM     27  C   UNL     1      -0.096  13.290  19.258  0.00  0.00    +0.000 C 
ATOM     28  F   UNL     1       0.850  12.665  18.487  0.00  0.00    +0.000 F 
ATOM     29  F   UNL     1      -0.615  14.250  18.430  0.00  0.00    +0.000 F 
BRANCH  27  30
ATOM     30  C   UNL     1       0.540  13.949  20.442  0.00  0.00    +0.000 A 
ATOM     31  N   UNL     1       1.628  13.562  21.085  0.00  0.00    +0.000 NA
ATOM     32  N   UNL     1       1.864  14.439  22.114  0.00  0.00    +0.000 NA
ATOM     33  C   UNL     1       0.911  15.339  22.092  0.00  0.00    +0.000 A 
ATOM     34  N   UNL     1       0.054  15.071  21.069  0.00  0.00    +0.000 N 
ATOM     35  C   UNL     1      -1.124  15.829  20.744  0.00  0.00    +0.000 C 
ENDBRANCH  27  30
ENDBRANCH  24  27
ENDBRANCH  22  24
ENDBRANCH   8  18
BRANCH   5  36
ATOM     36  C   UNL     1       2.168   3.618  20.933  0.00  0.00    +0.000 C 
ATOM     37  F   UNL     1       2.402   3.956  22.231  0.00  0.00    +0.000 F 
ATOM     38  F   UNL     1       0.822   3.440  20.837  0.00  0.00    +0.000 F 
ATOM     39  F   UNL     1       2.724   2.389  20.763  0.00  0.00    +0.000 F 
ENDBRANCH   5  36
TORSDOF 6
ENDMDL
MODEL 4
REMARK VINA RESULT:      -9.6      2.981      9.087
REMARK  Name = 
REMARK  9 active torsions:
REMARK  status: ('A' for Active; 'I' for Inactive)
REMARK    1  A    between atoms: C_1  and  N_2
REMARK    2  A    between atoms: N_5  and  C_6
REMARK    3  A    between atoms: C_10  and  C_11
REMARK    4  A    between atoms: N_17  and  C_18
REMARK    5  A    between atoms: C_22  and  C_23
REMARK    6  A    between atoms: C_23  and  C_24
REMARK    7  A    between atoms: C_23  and  C_26
REMARK    8  A    between atoms: C_26  and  C_29
REMARK    9  A    between atoms: N_33  and  C_34
REMARK                            x       y       z     vdW  Elec       q    Type
REMARK                         _______ _______ _______ _____ _____    ______ ____
ROOT
ATOM      1  C   UNL     1       4.063   5.189  18.058  0.00  0.00    +0.000 A 
ATOM      2  C   UNL     1       3.640   6.520  18.100  0.00  0.00    +0.000 A 
ATOM      3  C   UNL     1       2.741   6.906  19.069  0.00  0.00    +0.000 A 
ATOM      4  C   UNL     1       2.224   6.037  20.017  0.00  0.00    +0.000 A 
ATOM      5  C   UNL     1       2.603   4.702  20.010  0.00  0.00    +0.000 A 
ATOM      6  C   UNL     1       3.526   4.297  19.016  0.00  0.00    +0.000 A 
ATOM      7  C   UNL     1       1.290   6.785  20.909  0.00  0.00    +0.000 C 
ATOM      8  N   UNL     1       1.300   8.134  20.353  0.00  0.00    +0.000 N 
ATOM      9  C   UNL     1       2.160   8.232  19.261  0.00  0.00    +0.000 C 
ATOM     10  O   UNL     1       2.454   9.175  18.549  0.00  0.00    +0.000 OA
ENDROOT
BRANCH   1  15
ATOM     11  C   UNL     1       7.438   4.815  13.639  0.00  0.00    +0.000 C 
ATOM     12  N   UNL     1       6.765   4.380  14.860  0.00  0.00    +0.000 NA
ATOM     13  C   UNL     1       5.296   4.354  14.675  0.00  0.00    +0.000 C 
ATOM     14  C   UNL     1       4.536   3.921  15.954  0.00  0.00    +0.000 C 
ATOM     15  N   UNL     1       4.933   4.789  17.068  0.00  0.00    +0.000 N 
ATOM     16  C   UNL     1       6.390   4.858  17.289  0.00  0.00    +0.000 C 
ATOM     17  C   UNL     1       7.093   5.286  15.984  0.00  0.00    +0.000 C 
ENDBRANCH   1  15
BRANCH   8  18
ATOM     18  C   UNL     1       0.486   9.171  20.869  0.00  0.00    +0.000 A 
ATOM     19  C   UNL     1       0.236   9.279  22.241  0.00  0.00    +0.000 A 
ATOM     20  C   UNL     1      -0.540  10.318  22.751  0.00  0.00    +0.000 A 
ATOM     21  C   UNL     1      -1.102  11.254  21.892  0.00  0.00    +0.000 A 
ATOM     22  C   UNL     1      -0.894  11.160  20.506  0.00  0.00    +0.000 A 
ATOM     23  C   UNL     1      -0.086  10.124  20.015  0.00  0.00    +0.000 A 
BRANCH  22  24
ATOM     24  C   UNL     1      -1.569  12.130  19.528  0.00  0.00    +0.000 C 
ATOM     25  C   UNL     1      -1.592  11.514  18.124  0.00  0.00    +0.000 C 
ATOM     26  F   UNL     1      -2.896  12.317  19.843  0.00  0.00    +0.000 F 
BRANCH  24  27
ATOM     27  C   UNL     1      -0.861  13.517  19.501  0.00  0.00    +0.000 C 
ATOM     28  F   UNL     1      -0.679  13.904  18.198  0.00  0.00    +0.000 F 
ATOM     29  F   UNL     1      -1.701  14.469  20.014  0.00  0.00    +0.000 F 
BRANCH  27  30
ATOM     30  C   UNL     1       0.437  13.549  20.246  0.00  0.00    +0.000 A 
ATOM     31  N   UNL     1       0.634  13.924  21.497  0.00  0.00    +0.000 NA
ATOM     32  N   UNL     1       1.971  13.809  21.784  0.00  0.00    +0.000 NA
ATOM     33  C   UNL     1       2.572  13.379  20.702  0.00  0.00    +0.000 A 
ATOM     34  N   UNL     1       1.656  13.208  19.710  0.00  0.00    +0.000 N 
ATOM     35  C   UNL     1       1.944  12.765  18.372  0.00  0.00    +0.000 C 
ENDBRANCH  27  30
ENDBRANCH  24  27
ENDBRANCH  22  24
ENDBRANCH   8  18
BRANCH   5  36
ATOM     36  C   UNL     1       2.069   3.702  20.999  0.00  0.00    +0.000 C 
ATOM     37  F   UNL     1       2.395   3.983  22.290  0.00  0.00    +0.000 F 
ATOM     38  F   UNL     1       0.710   3.623  20.972  0.00  0.00    +0.000 F 
ATOM     39  F   UNL     1       2.523   2.441  20.766  0.00  0.00    +0.000 F 
ENDBRANCH   5  36
TORSDOF 6
ENDMDL
MODEL 5
REMARK VINA RESULT:      -9.5      1.492      2.062
REMARK  Name = 
REMARK  9 active torsions:
REMARK  status: ('A' for Active; 'I' for Inactive)
REMARK    1  A    between atoms: C_1  and  N_2
REMARK    2  A    between atoms: N_5  and  C_6
REMARK    3  A    between atoms: C_10  and  C_11
REMARK    4  A    between atoms: N_17  and  C_18
REMARK    5  A    between atoms: C_22  and  C_23
REMARK    6  A    between atoms: C_23  and  C_24
REMARK    7  A    between atoms: C_23  and  C_26
REMARK    8  A    between atoms: C_26  and  C_29
REMARK    9  A    between atoms: N_33  and  C_34
REMARK                            x       y       z     vdW  Elec       q    Type
REMARK                         _______ _______ _______ _____ _____    ______ ____
ROOT
ATOM      1  C   UNL     1       0.916  11.637  19.713  0.00  0.00    +0.000 A 
ATOM      2  C   UNL     1       1.477  10.539  19.054  0.00  0.00    +0.000 A 
ATOM      3  C   UNL     1       1.437   9.303  19.659  0.00  0.00    +0.000 A 
ATOM      4  C   UNL     1       0.862   9.083  20.901  0.00  0.00    +0.000 A 
ATOM      5  C   UNL     1       0.302  10.142  21.601  0.00  0.00    +0.000 A 
ATOM      6  C   UNL     1       0.343  11.417  20.987  0.00  0.00    +0.000 A 
ATOM      7  C   UNL     1       0.988   7.636  21.248  0.00  0.00    +0.000 C 
ATOM      8  N   UNL     1       1.714   7.078  20.113  0.00  0.00    +0.000 N 
ATOM      9  C   UNL     1       1.988   8.049  19.152  0.00  0.00    +0.000 C 
ATOM     10  O   UNL     1       2.550   7.980  18.073  0.00  0.00    +0.000 OA
ENDROOT
BRANCH   1  15
ATOM     11  C   UNL     1       1.558  17.051  18.561  0.00  0.00    +0.000 C 
ATOM     12  N   UNL     1       1.309  15.638  18.292  0.00  0.00    +0.000 NA
ATOM     13  C   UNL     1       0.095  15.169  18.999  0.00  0.00    +0.000 C 
ATOM     14  C   UNL     1      -0.196  13.666  18.763  0.00  0.00    +0.000 C 
ATOM     15  N   UNL     1       0.989  12.882  19.128  0.00  0.00    +0.000 N 
ATOM     16  C   UNL     1       2.229  13.315  18.458  0.00  0.00    +0.000 C 
ATOM     17  C   UNL     1       2.464  14.817  18.721  0.00  0.00    +0.000 C 
ENDBRANCH   1  15
BRANCH   8  18
ATOM     18  C   UNL     1       2.107   5.720  20.060  0.00  0.00    +0.000 A 
ATOM     19  C   UNL     1       2.042   4.904  21.195  0.00  0.00    +0.000 A 
ATOM     20  C   UNL     1       2.401   3.559  21.135  0.00  0.00    +0.000 A 
ATOM     21  C   UNL     1       2.856   3.012  19.942  0.00  0.00    +0.000 A 
ATOM     22  C   UNL     1       2.960   3.809  18.790  0.00  0.00    +0.000 A 
ATOM     23  C   UNL     1       2.567   5.153  18.863  0.00  0.00    +0.000 A 
BRANCH  22  24
ATOM     24  C   UNL     1       3.536   3.253  17.481  0.00  0.00    +0.000 C 
ATOM     25  C   UNL     1       4.013   1.811  17.699  0.00  0.00    +0.000 C 
ATOM     26  F   UNL     1       2.565   3.151  16.510  0.00  0.00    +0.000 F 
BRANCH  24  27
ATOM     27  C   UNL     1       4.698   4.133  16.935  0.00  0.00    +0.000 C 
ATOM     28  F   UNL     1       5.395   3.423  15.991  0.00  0.00    +0.000 F 
ATOM     29  F   UNL     1       4.181   5.191  16.236  0.00  0.00    +0.000 F 
BRANCH  27  30
ATOM     30  C   UNL     1       5.622   4.645  17.997  0.00  0.00    +0.000 A 
ATOM     31  N   UNL     1       5.908   4.073  19.152  0.00  0.00    +0.000 NA
ATOM     32  N   UNL     1       6.792   4.874  19.831  0.00  0.00    +0.000 NA
ATOM     33  C   UNL     1       7.021   5.928  19.086  0.00  0.00    +0.000 A 
ATOM     34  N   UNL     1       6.307   5.834  17.931  0.00  0.00    +0.000 N 
ATOM     35  C   UNL     1       6.290   6.812  16.877  0.00  0.00    +0.000 C 
ENDBRANCH  27  30
ENDBRANCH  24  27
ENDBRANCH  22  24
ENDBRANCH   8  18
BRANCH   5  36
ATOM     36  C   UNL     1      -0.322   9.976  22.960  0.00  0.00    +0.000 C 
ATOM     37  F   UNL     1      -1.300   9.031  23.000  0.00  0.00    +0.000 F 
ATOM     38  F   UNL     1       0.586   9.605  23.905  0.00  0.00    +0.000 F 
ATOM     39  F   UNL     1      -0.893  11.123  23.418  0.00  0.00    +0.000 F 
ENDBRANCH   5  36
TORSDOF 6
ENDMDL
MODEL 6
REMARK VINA RESULT:      -9.5      2.868      9.205
REMARK  Name = 
REMARK  9 active torsions:
REMARK  status: ('A' for Active; 'I' for Inactive)
REMARK    1  A    between atoms: C_1  and  N_2
REMARK    2  A    between atoms: N_5  and  C_6
REMARK    3  A    between atoms: C_10  and  C_11
REMARK    4  A    between atoms: N_17  and  C_18
REMARK    5  A    between atoms: C_22  and  C_23
REMARK    6  A    between atoms: C_23  and  C_24
REMARK    7  A    between atoms: C_23  and  C_26
REMARK    8  A    between atoms: C_26  and  C_29
REMARK    9  A    between atoms: N_33  and  C_34
REMARK                            x       y       z     vdW  Elec       q    Type
REMARK                         _______ _______ _______ _____ _____    ______ ____
ROOT
ATOM      1  C   UNL     1       4.092   5.136  17.975  0.00  0.00    +0.000 A 
ATOM      2  C   UNL     1       3.663   6.465  18.021  0.00  0.00    +0.000 A 
ATOM      3  C   UNL     1       2.774   6.847  19.001  0.00  0.00    +0.000 A 
ATOM      4  C   UNL     1       2.275   5.975  19.957  0.00  0.00    +0.000 A 
ATOM      5  C   UNL     1       2.662   4.643  19.946  0.00  0.00    +0.000 A 
ATOM      6  C   UNL     1       3.573   4.242  18.940  0.00  0.00    +0.000 A 
ATOM      7  C   UNL     1       1.349   6.720  20.861  0.00  0.00    +0.000 C 
ATOM      8  N   UNL     1       1.344   8.067  20.304  0.00  0.00    +0.000 N 
ATOM      9  C   UNL     1       2.188   8.170  19.201  0.00  0.00    +0.000 C 
ATOM     10  O   UNL     1       2.467   9.114  18.483  0.00  0.00    +0.000 OA
ENDROOT
BRANCH   1  15
ATOM     11  C   UNL     1       7.471   4.797  13.556  0.00  0.00    +0.000 C 
ATOM     12  N   UNL     1       6.776   4.344  14.757  0.00  0.00    +0.000 NA
ATOM     13  C   UNL     1       5.308   4.380  14.567  0.00  0.00    +0.000 C 
ATOM     14  C   UNL     1       4.527   3.929  15.827  0.00  0.00    +0.000 C 
ATOM     15  N   UNL     1       4.951   4.741  16.973  0.00  0.00    +0.000 N 
ATOM     16  C   UNL     1       6.409   4.746  17.202  0.00  0.00    +0.000 C 
ATOM     17  C   UNL     1       7.134   5.195  15.915  0.00  0.00    +0.000 C 
ENDBRANCH   1  15
BRANCH   8  18
ATOM     18  C   UNL     1       0.531   9.100  20.830  0.00  0.00    +0.000 A 
ATOM     19  C   UNL     1       0.265   9.184  22.201  0.00  0.00    +0.000 A 
ATOM     20  C   UNL     1      -0.511  10.218  22.721  0.00  0.00    +0.000 A 
ATOM     21  C   UNL     1      -1.054  11.175  21.874  0.00  0.00    +0.000 A 
ATOM     22  C   UNL     1      -0.829  11.106  20.489  0.00  0.00    +0.000 A 
ATOM     23  C   UNL     1      -0.023  10.075  19.988  0.00  0.00    +0.000 A 
BRANCH  22  24
ATOM     24  C   UNL     1      -1.484  12.101  19.522  0.00  0.00    +0.000 C 
ATOM     25  C   UNL     1      -2.389  11.346  18.540  0.00  0.00    +0.000 C 
ATOM     26  F   UNL     1      -2.335  12.958  20.184  0.00  0.00    +0.000 F 
BRANCH  24  27
ATOM     27  C   UNL     1      -0.428  12.945  18.749  0.00  0.00    +0.000 C 
ATOM     28  F   UNL     1       0.695  12.184  18.547  0.00  0.00    +0.000 F 
ATOM     29  F   UNL     1      -0.884  13.202  17.485  0.00  0.00    +0.000 F 
BRANCH  27  30
ATOM     30  C   UNL     1      -0.074  14.236  19.421  0.00  0.00    +0.000 A 
ATOM     31  N   UNL     1      -0.639  15.416  19.236  0.00  0.00    +0.000 NA
ATOM     32  N   UNL     1      -0.012  16.332  20.042  0.00  0.00    +0.000 NA
ATOM     33  C   UNL     1       0.932  15.702  20.696  0.00  0.00    +0.000 A 
ATOM     34  N   UNL     1       0.938  14.389  20.337  0.00  0.00    +0.000 N 
ATOM     35  C   UNL     1       1.846  13.390  20.833  0.00  0.00    +0.000 C 
ENDBRANCH  27  30
ENDBRANCH  24  27
ENDBRANCH  22  24
ENDBRANCH   8  18
BRANCH   5  36
ATOM     36  C   UNL     1       2.146   3.640  20.943  0.00  0.00    +0.000 C 
ATOM     37  F   UNL     1       2.423   3.964  22.236  0.00  0.00    +0.000 F 
ATOM     38  F   UNL     1       0.793   3.498  20.882  0.00  0.00    +0.000 F 
ATOM     39  F   UNL     1       2.664   2.397  20.752  0.00  0.00    +0.000 F 
ENDBRANCH   5  36
TORSDOF 6
ENDMDL
MODEL 7
REMARK VINA RESULT:      -9.3      1.704      2.678
REMARK  Name = 
REMARK  9 active torsions:
REMARK  status: ('A' for Active; 'I' for Inactive)
REMARK    1  A    between atoms: C_1  and  N_2
REMARK    2  A    between atoms: N_5  and  C_6
REMARK    3  A    between atoms: C_10  and  C_11
REMARK    4  A    between atoms: N_17  and  C_18
REMARK    5  A    between atoms: C_22  and  C_23
REMARK    6  A    between atoms: C_23  and  C_24
REMARK    7  A    between atoms: C_23  and  C_26
REMARK    8  A    between atoms: C_26  and  C_29
REMARK    9  A    between atoms: N_33  and  C_34
REMARK                            x       y       z     vdW  Elec       q    Type
REMARK                         _______ _______ _______ _____ _____    ______ ____
ROOT
ATOM      1  C   UNL     1       1.017  11.498  19.283  0.00  0.00    +0.000 A 
ATOM      2  C   UNL     1       1.648  10.582  18.437  0.00  0.00    +0.000 A 
ATOM      3  C   UNL     1       1.793   9.277  18.852  0.00  0.00    +0.000 A 
ATOM      4  C   UNL     1       1.341   8.815  20.078  0.00  0.00    +0.000 A 
ATOM      5  C   UNL     1       0.718   9.687  20.959  0.00  0.00    +0.000 A 
ATOM      6  C   UNL     1       0.568  11.031  20.541  0.00  0.00    +0.000 A 
ATOM      7  C   UNL     1       1.655   7.360  20.197  0.00  0.00    +0.000 C 
ATOM      8  N   UNL     1       2.353   7.062  18.952  0.00  0.00    +0.000 N 
ATOM      9  C   UNL     1       2.443   8.185  18.133  0.00  0.00    +0.000 C 
ATOM     10  O   UNL     1       2.928   8.339  17.026  0.00  0.00    +0.000 OA
ENDROOT
BRANCH   1  15
ATOM     11  C   UNL     1       0.762  17.056  18.965  0.00  0.00    +0.000 C 
ATOM     12  N   UNL     1       0.784  15.679  18.479  0.00  0.00    +0.000 NA
ATOM     13  C   UNL     1      -0.369  14.913  19.005  0.00  0.00    +0.000 C 
ATOM     14  C   UNL     1      -0.375  13.437  18.535  0.00  0.00    +0.000 C 
ATOM     15  N   UNL     1       0.904  12.813  18.889  0.00  0.00    +0.000 N 
ATOM     16  C   UNL     1       2.088  13.542  18.396  0.00  0.00    +0.000 C 
ATOM     17  C   UNL     1       2.037  15.005  18.887  0.00  0.00    +0.000 C 
ENDBRANCH   1  15
BRANCH   8  18
ATOM     18  C   UNL     1       2.893   5.783  18.675  0.00  0.00    +0.000 A 
ATOM     19  C   UNL     1       2.399   4.637  19.308  0.00  0.00    +0.000 A 
ATOM     20  C   UNL     1       2.911   3.375  19.013  0.00  0.00    +0.000 A 
ATOM     21  C   UNL     1       3.944   3.240  18.093  0.00  0.00    +0.000 A 
ATOM     22  C   UNL     1       4.481   4.372  17.459  0.00  0.00    +0.000 A 
ATOM     23  C   UNL     1       3.934   5.631  17.748  0.00  0.00    +0.000 A 
BRANCH  22  24
ATOM     24  C   UNL     1       5.676   4.262  16.503  0.00  0.00    +0.000 C 
ATOM     25  C   UNL     1       6.963   4.655  17.238  0.00  0.00    +0.000 C 
ATOM     26  F   UNL     1       5.887   2.958  16.114  0.00  0.00    +0.000 F 
BRANCH  24  27
ATOM     27  C   UNL     1       5.487   5.139  15.230  0.00  0.00    +0.000 C 
ATOM     28  F   UNL     1       4.338   4.756  14.587  0.00  0.00    +0.000 F 
ATOM     29  F   UNL     1       5.244   6.434  15.599  0.00  0.00    +0.000 F 
BRANCH  27  30
ATOM     30  C   UNL     1       6.653   5.102  14.290  0.00  0.00    +0.000 A 
ATOM     31  N   UNL     1       7.770   5.802  14.372  0.00  0.00    +0.000 NA
ATOM     32  N   UNL     1       8.572   5.473  13.308  0.00  0.00    +0.000 NA
ATOM     33  C   UNL     1       7.928   4.589  12.587  0.00  0.00    +0.000 A 
ATOM     34  N   UNL     1       6.720   4.328  13.156  0.00  0.00    +0.000 N 
ATOM     35  C   UNL     1       5.728   3.424  12.639  0.00  0.00    +0.000 C 
ENDBRANCH  27  30
ENDBRANCH  24  27
ENDBRANCH  22  24
ENDBRANCH   8  18
BRANCH   5  36
ATOM     36  C   UNL     1       0.219   9.255  22.312  0.00  0.00    +0.000 C 
ATOM     37  F   UNL     1      -0.328  10.267  23.040  0.00  0.00    +0.000 F 
ATOM     38  F   UNL     1      -0.747   8.300  22.226  0.00  0.00    +0.000 F 
ATOM     39  F   UNL     1       1.203   8.727  23.089  0.00  0.00    +0.000 F 
ENDBRANCH   5  36
TORSDOF 6
ENDMDL
MODEL 8
REMARK VINA RESULT:      -9.3      3.983      5.467
REMARK  Name = 
REMARK  9 active torsions:
REMARK  status: ('A' for Active; 'I' for Inactive)
REMARK    1  A    between atoms: C_1  and  N_2
REMARK    2  A    between atoms: N_5  and  C_6
REMARK    3  A    between atoms: C_10  and  C_11
REMARK    4  A    between atoms: N_17  and  C_18
REMARK    5  A    between atoms: C_22  and  C_23
REMARK    6  A    between atoms: C_23  and  C_24
REMARK    7  A    between atoms: C_23  and  C_26
REMARK    8  A    between atoms: C_26  and  C_29
REMARK    9  A    between atoms: N_33  and  C_34
REMARK                            x       y       z     vdW  Elec       q    Type
REMARK                         _______ _______ _______ _____ _____    ______ ____
ROOT
ATOM      1  C   UNL     1      -2.957  12.748  21.148  0.00  0.00    +0.000 A 
ATOM      2  C   UNL     1      -1.706  12.158  21.346  0.00  0.00    +0.000 A 
ATOM      3  C   UNL     1      -1.170  11.372  20.350  0.00  0.00    +0.000 A 
ATOM      4  C   UNL     1      -1.812  11.130  19.146  0.00  0.00    +0.000 A 
ATOM      5  C   UNL     1      -3.062  11.683  18.905  0.00  0.00    +0.000 A 
ATOM      6  C   UNL     1      -3.620  12.490  19.925  0.00  0.00    +0.000 A 
ATOM      7  C   UNL     1      -0.951  10.248  18.302  0.00  0.00    +0.000 C 
ATOM      8  N   UNL     1       0.204   9.990  19.154  0.00  0.00    +0.000 N 
ATOM      9  C   UNL     1       0.099  10.652  20.375  0.00  0.00    +0.000 C 
ATOM     10  O   UNL     1       0.851  10.702  21.332  0.00  0.00    +0.000 OA
ENDROOT
BRANCH   1  15
ATOM     11  C   UNL     1      -4.153  16.567  25.026  0.00  0.00    +0.000 C 
ATOM     12  N   UNL     1      -4.358  15.388  24.188  0.00  0.00    +0.000 NA
ATOM     13  C   UNL     1      -3.322  14.363  24.452  0.00  0.00    +0.000 C 
ATOM     14  C   UNL     1      -3.485  13.103  23.567  0.00  0.00    +0.000 C 
ATOM     15  N   UNL     1      -3.513  13.504  22.156  0.00  0.00    +0.000 N 
ATOM     16  C   UNL     1      -4.524  14.531  21.841  0.00  0.00    +0.000 C 
ATOM     17  C   UNL     1      -4.318  15.758  22.755  0.00  0.00    +0.000 C 
ENDBRANCH   1  15
BRANCH   8  18
ATOM     18  C   UNL     1       1.257   9.130  18.760  0.00  0.00    +0.000 A 
ATOM     19  C   UNL     1       2.117   9.474  17.711  0.00  0.00    +0.000 A 
ATOM     20  C   UNL     1       3.172   8.641  17.343  0.00  0.00    +0.000 A 
ATOM     21  C   UNL     1       3.370   7.435  18.005  0.00  0.00    +0.000 A 
ATOM     22  C   UNL     1       2.509   7.046  19.044  0.00  0.00    +0.000 A 
ATOM     23  C   UNL     1       1.471   7.911  19.419  0.00  0.00    +0.000 A 
BRANCH  22  24
ATOM     24  C   UNL     1       2.654   5.684  19.736  0.00  0.00    +0.000 C 
ATOM     25  C   UNL     1       4.135   5.287  19.787  0.00  0.00    +0.000 C 
ATOM     26  F   UNL     1       2.270   5.750  21.057  0.00  0.00    +0.000 F 
BRANCH  24  27
ATOM     27  C   UNL     1       1.819   4.578  19.027  0.00  0.00    +0.000 C 
ATOM     28  F   UNL     1       0.699   4.313  19.773  0.00  0.00    +0.000 F 
ATOM     29  F   UNL     1       1.323   5.065  17.848  0.00  0.00    +0.000 F 
BRANCH  27  30
ATOM     30  C   UNL     1       2.583   3.318  18.761  0.00  0.00    +0.000 A 
ATOM     31  N   UNL     1       3.040   2.889  17.598  0.00  0.00    +0.000 NA
ATOM     32  N   UNL     1       3.678   1.690  17.793  0.00  0.00    +0.000 NA
ATOM     33  C   UNL     1       3.590   1.399  19.068  0.00  0.00    +0.000 A 
ATOM     34  N   UNL     1       2.908   2.384  19.714  0.00  0.00    +0.000 N 
ATOM     35  C   UNL     1       2.598   2.403  21.119  0.00  0.00    +0.000 C 
ENDBRANCH  27  30
ENDBRANCH  24  27
ENDBRANCH  22  24
ENDBRANCH   8  18
BRANCH   5  36
ATOM     36  C   UNL     1      -3.821  11.446  17.627  0.00  0.00    +0.000 C 
ATOM     37  F   UNL     1      -3.082  11.667  16.505  0.00  0.00    +0.000 F 
ATOM     38  F   UNL     1      -4.273  10.166  17.522  0.00  0.00    +0.000 F 
ATOM     39  F   UNL     1      -4.917  12.243  17.514  0.00  0.00    +0.000 F 
ENDBRANCH   5  36
TORSDOF 6
ENDMDL
MODEL 9
REMARK VINA RESULT:      -9.2      3.155      9.597
REMARK  Name = 
REMARK  9 active torsions:
REMARK  status: ('A' for Active; 'I' for Inactive)
REMARK    1  A    between atoms: C_1  and  N_2
REMARK    2  A    between atoms: N_5  and  C_6
REMARK    3  A    between atoms: C_10  and  C_11
REMARK    4  A    between atoms: N_17  and  C_18
REMARK    5  A    between atoms: C_22  and  C_23
REMARK    6  A    between atoms: C_23  and  C_24
REMARK    7  A    between atoms: C_23  and  C_26
REMARK    8  A    between atoms: C_26  and  C_29
REMARK    9  A    between atoms: N_33  and  C_34
REMARK                            x       y       z     vdW  Elec       q    Type
REMARK                         _______ _______ _______ _____ _____    ______ ____
ROOT
ATOM      1  C   UNL     1       4.093   5.216  17.909  0.00  0.00    +0.000 A 
ATOM      2  C   UNL     1       3.675   6.549  17.944  0.00  0.00    +0.000 A 
ATOM      3  C   UNL     1       2.784   6.947  18.916  0.00  0.00    +0.000 A 
ATOM      4  C   UNL     1       2.272   6.086  19.875  0.00  0.00    +0.000 A 
ATOM      5  C   UNL     1       2.647   4.750  19.876  0.00  0.00    +0.000 A 
ATOM      6  C   UNL     1       3.561   4.334  18.878  0.00  0.00    +0.000 A 
ATOM      7  C   UNL     1       1.346   6.845  20.767  0.00  0.00    +0.000 C 
ATOM      8  N   UNL     1       1.356   8.188  20.201  0.00  0.00    +0.000 N 
ATOM      9  C   UNL     1       2.208   8.276  19.102  0.00  0.00    +0.000 C 
ATOM     10  O   UNL     1       2.500   9.212  18.379  0.00  0.00    +0.000 OA
ENDROOT
BRANCH   1  15
ATOM     11  C   UNL     1       7.502   4.818  13.519  0.00  0.00    +0.000 C 
ATOM     12  N   UNL     1       6.792   4.378  14.716  0.00  0.00    +0.000 NA
ATOM     13  C   UNL     1       5.326   4.434  14.514  0.00  0.00    +0.000 C 
ATOM     14  C   UNL     1       4.529   3.998  15.768  0.00  0.00    +0.000 C 
ATOM     15  N   UNL     1       4.955   4.806  16.916  0.00  0.00    +0.000 N 
ATOM     16  C   UNL     1       6.410   4.793  17.156  0.00  0.00    +0.000 C 
ATOM     17  C   UNL     1       7.152   5.228  15.874  0.00  0.00    +0.000 C 
ENDBRANCH   1  15
BRANCH   8  18
ATOM     18  C   UNL     1       0.550   9.233  20.714  0.00  0.00    +0.000 A 
ATOM     19  C   UNL     1       0.257   9.315  22.080  0.00  0.00    +0.000 A 
ATOM     20  C   UNL     1      -0.513  10.359  22.589  0.00  0.00    +0.000 A 
ATOM     21  C   UNL     1      -1.024  11.328  21.734  0.00  0.00    +0.000 A 
ATOM     22  C   UNL     1      -0.772  11.261  20.354  0.00  0.00    +0.000 A 
ATOM     23  C   UNL     1       0.028  10.218  19.865  0.00  0.00    +0.000 A 
BRANCH  22  24
ATOM     24  C   UNL     1      -1.392  12.269  19.377  0.00  0.00    +0.000 C 
ATOM     25  C   UNL     1      -1.361  13.672  19.997  0.00  0.00    +0.000 C 
ATOM     26  F   UNL     1      -0.637  12.384  18.231  0.00  0.00    +0.000 F 
BRANCH  24  27
ATOM     27  C   UNL     1      -2.847  11.881  18.982  0.00  0.00    +0.000 C 
ATOM     28  F   UNL     1      -3.343  10.999  19.907  0.00  0.00    +0.000 F 
ATOM     29  F   UNL     1      -3.660  12.976  19.100  0.00  0.00    +0.000 F 
BRANCH  27  30
ATOM     30  C   UNL     1      -2.969  11.318  17.600  0.00  0.00    +0.000 A 
ATOM     31  N   UNL     1      -2.038  10.686  16.907  0.00  0.00    +0.000 NA
ATOM     32  N   UNL     1      -2.560  10.342  15.685  0.00  0.00    +0.000 NA
ATOM     33  C   UNL     1      -3.795  10.779  15.646  0.00  0.00    +0.000 A 
ATOM     34  N   UNL     1      -4.096  11.403  16.818  0.00  0.00    +0.000 N 
ATOM     35  C   UNL     1      -5.352  12.026  17.135  0.00  0.00    +0.000 C 
ENDBRANCH  27  30
ENDBRANCH  24  27
ENDBRANCH  22  24
ENDBRANCH   8  18
BRANCH   5  36
ATOM     36  C   UNL     1       2.116   3.760  20.877  0.00  0.00    +0.000 C 
ATOM     37  F   UNL     1       2.624   2.505  20.725  0.00  0.00    +0.000 F 
ATOM     38  F   UNL     1       2.400   4.117  22.159  0.00  0.00    +0.000 F 
ATOM     39  F   UNL     1       0.764   3.625  20.814  0.00  0.00    +0.000 F 
ENDBRANCH   5  36
TORSDOF 6
ENDMDL
