MODEL 1
REMARK VINA RESULT:      -9.0      0.000      0.000
REMARK  Name = 
REMARK  9 active torsions:
REMARK  status: ('A' for Active; 'I' for Inactive)
REMARK    1  A    between atoms: C_1  and  C_2
REMARK    2  A    between atoms: C_2  and  S_3
REMARK    3  A    between atoms: C_2  and  C_10
REMARK    4  A    between atoms: S_3  and  C_4
REMARK    5  A    between atoms: N_8  and  C_9
REMARK    6  A    between atoms: C_14  and  N_15
REMARK    7  A    between atoms: C_16  and  C_18
REMARK    8  A    between atoms: C_20  and  C_21
REMARK    9  A    between atoms: C_26  and  C_27
REMARK                            x       y       z     vdW  Elec       q    Type
REMARK                         _______ _______ _______ _____ _____    ______ ____
ROOT
ATOM      1  N   UNL     1       2.047   7.240  19.621  0.00  0.00    +0.000 N 
ATOM      2  C   UNL     1       2.755   7.243  18.422  0.00  0.00    +0.000 C 
ATOM      3  O   UNL     1       3.010   8.206  17.714  0.00  0.00    +0.000 OA
ATOM      4  H   UNL     1       2.026   6.364  20.127  0.00  0.00    +0.000 HD
ENDROOT
BRANCH   1   9
ATOM      5  C   UNL     1       0.298  10.525  19.925  0.00  0.00    +0.000 A 
ATOM      6  C   UNL     1       0.203  10.640  21.320  0.00  0.00    +0.000 A 
ATOM      7  C   UNL     1       0.731   9.646  22.141  0.00  0.00    +0.000 A 
ATOM      8  C   UNL     1       1.345   8.530  21.579  0.00  0.00    +0.000 A 
ATOM      9  C   UNL     1       1.437   8.374  20.202  0.00  0.00    +0.000 A 
ATOM     10  C   UNL     1       0.918   9.376  19.378  0.00  0.00    +0.000 A 
BRANCH   5  12
ATOM     11  C   UNL     1       0.436  12.983  19.411  0.00  0.00    +0.000 C 
ATOM     12  C   UNL     1      -0.214  11.650  19.020  0.00  0.00    +0.000 C 
BRANCH  12  13
ATOM     13  S   UNL     1      -2.053  11.635  19.118  0.00  0.00    +0.000 S 
BRANCH  13  14
ATOM     14  C   UNL     1      -2.587  11.013  17.603  0.00  0.00    +0.000 A 
ATOM     15  N   UNL     1      -1.906  10.307  16.731  0.00  0.00    +0.000 NA
ATOM     16  N   UNL     1      -2.685  10.168  15.601  0.00  0.00    +0.000 NA
ATOM     17  C   UNL     1      -3.830  10.770  15.832  0.00  0.00    +0.000 A 
ATOM     18  N   UNL     1      -3.833  11.269  17.099  0.00  0.00    +0.000 N 
ATOM     19  C   UNL     1      -4.941  11.924  17.742  0.00  0.00    +0.000 C 
ENDBRANCH  13  14
ENDBRANCH  12  13
ENDBRANCH   5  12
ENDBRANCH   1   9
BRANCH   2  20
ATOM     20  C   UNL     1       3.273   5.911  18.003  0.00  0.00    +0.000 A 
ATOM     21  C   UNL     1       4.373   5.843  17.153  0.00  0.00    +0.000 A 
ATOM     22  C   UNL     1       4.865   4.584  16.799  0.00  0.00    +0.000 A 
ATOM     23  C   UNL     1       4.229   3.449  17.327  0.00  0.00    +0.000 A 
ATOM     24  C   UNL     1       3.126   3.594  18.179  0.00  0.00    +0.000 A 
ATOM     25  N   UNL     1       2.640   4.823  18.510  0.00  0.00    +0.000 NA
BRANCH  22  26
ATOM     26  C   UNL     1       6.058   4.446  15.891  0.00  0.00    +0.000 C 
ATOM     27  F   UNL     1       7.251   4.598  16.526  0.00  0.00    +0.000 F 
ATOM     28  F   UNL     1       6.104   3.227  15.289  0.00  0.00    +0.000 F 
ATOM     29  F   UNL     1       6.047   5.362  14.884  0.00  0.00    +0.000 F 
ENDBRANCH  22  26
BRANCH  24  30
ATOM     30  C   UNL     1       2.444   2.372  18.777  0.00  0.00    +0.000 C 
ATOM     31  F   UNL     1       3.099   1.204  18.515  0.00  0.00    +0.000 F 
ATOM     32  F   UNL     1       2.341   2.443  20.132  0.00  0.00    +0.000 F 
ATOM     33  F   UNL     1       1.176   2.198  18.309  0.00  0.00    +0.000 F 
ENDBRANCH  24  30
ENDBRANCH   2  20
TORSDOF 7
ENDMDL
MODEL 2
REMARK VINA RESULT:      -8.9      0.878      3.148
REMARK  Name = 
REMARK  9 active torsions:
REMARK  status: ('A' for Active; 'I' for Inactive)
REMARK    1  A    between atoms: C_1  and  C_2
REMARK    2  A    between atoms: C_2  and  S_3
REMARK    3  A    between atoms: C_2  and  C_10
REMARK    4  A    between atoms: S_3  and  C_4
REMARK    5  A    between atoms: N_8  and  C_9
REMARK    6  A    between atoms: C_14  and  N_15
REMARK    7  A    between atoms: C_16  and  C_18
REMARK    8  A    between atoms: C_20  and  C_21
REMARK    9  A    between atoms: C_26  and  C_27
REMARK                            x       y       z     vdW  Elec       q    Type
REMARK                         _______ _______ _______ _____ _____    ______ ____
ROOT
ATOM      1  N   UNL     1       1.785   7.774  19.712  0.00  0.00    +0.000 N 
ATOM      2  C   UNL     1       2.353   7.766  18.441  0.00  0.00    +0.000 C 
ATOM      3  O   UNL     1       2.430   8.700  17.657  0.00  0.00    +0.000 OA
ATOM      4  H   UNL     1       1.910   6.935  20.265  0.00  0.00    +0.000 HD
ENDROOT
BRANCH   1   9
ATOM      5  C   UNL     1      -0.105  10.978  20.029  0.00  0.00    +0.000 A 
ATOM      6  C   UNL     1      -0.193  11.091  21.424  0.00  0.00    +0.000 A 
ATOM      7  C   UNL     1       0.386  10.122  22.241  0.00  0.00    +0.000 A 
ATOM      8  C   UNL     1       1.044   9.033  21.676  0.00  0.00    +0.000 A 
ATOM      9  C   UNL     1       1.131   8.880  20.298  0.00  0.00    +0.000 A 
ATOM     10  C   UNL     1       0.561   9.857  19.478  0.00  0.00    +0.000 A 
BRANCH   5  12
ATOM     11  C   UNL     1      -0.252  13.460  19.645  0.00  0.00    +0.000 C 
ATOM     12  C   UNL     1      -0.674  12.078  19.127  0.00  0.00    +0.000 C 
BRANCH  12  13
ATOM     13  S   UNL     1      -2.494  11.818  19.032  0.00  0.00    +0.000 S 
BRANCH  13  14
ATOM     14  C   UNL     1      -2.769  11.061  17.510  0.00  0.00    +0.000 A 
ATOM     15  N   UNL     1      -1.948  10.305  16.820  0.00  0.00    +0.000 NA
ATOM     16  N   UNL     1      -2.533  10.053  15.597  0.00  0.00    +0.000 NA
ATOM     17  C   UNL     1      -3.708  10.642  15.590  0.00  0.00    +0.000 A 
ATOM     18  N   UNL     1      -3.921  11.243  16.794  0.00  0.00    +0.000 N 
ATOM     19  C   UNL     1      -5.126  11.918  17.194  0.00  0.00    +0.000 C 
ENDBRANCH  13  14
ENDBRANCH  12  13
ENDBRANCH   5  12
ENDBRANCH   1   9
BRANCH   2  20
ATOM     20  C   UNL     1       2.955   6.465  18.038  0.00  0.00    +0.000 A 
ATOM     21  C   UNL     1       2.280   5.282  18.322  0.00  0.00    +0.000 A 
ATOM     22  C   UNL     1       2.845   4.074  17.905  0.00  0.00    +0.000 A 
ATOM     23  C   UNL     1       4.064   4.115  17.209  0.00  0.00    +0.000 A 
ATOM     24  C   UNL     1       4.687   5.344  16.957  0.00  0.00    +0.000 A 
ATOM     25  N   UNL     1       4.141   6.519  17.378  0.00  0.00    +0.000 NA
BRANCH  22  26
ATOM     26  C   UNL     1       2.156   2.762  18.175  0.00  0.00    +0.000 C 
ATOM     27  F   UNL     1       2.381   1.819  17.222  0.00  0.00    +0.000 F 
ATOM     28  F   UNL     1       2.552   2.211  19.354  0.00  0.00    +0.000 F 
ATOM     29  F   UNL     1       0.805   2.899  18.259  0.00  0.00    +0.000 F 
ENDBRANCH  22  26
BRANCH  24  30
ATOM     30  C   UNL     1       5.996   5.403  16.183  0.00  0.00    +0.000 C 
ATOM     31  F   UNL     1       6.826   6.404  16.599  0.00  0.00    +0.000 F 
ATOM     32  F   UNL     1       6.719   4.255  16.291  0.00  0.00    +0.000 F 
ATOM     33  F   UNL     1       5.808   5.609  14.850  0.00  0.00    +0.000 F 
ENDBRANCH  24  30
ENDBRANCH   2  20
TORSDOF 7
ENDMDL
MODEL 3
REMARK VINA RESULT:      -8.9      5.187      9.444
REMARK  Name = 
REMARK  9 active torsions:
REMARK  status: ('A' for Active; 'I' for Inactive)
REMARK    1  A    between atoms: C_1  and  C_2
REMARK    2  A    between atoms: C_2  and  S_3
REMARK    3  A    between atoms: C_2  and  C_10
REMARK    4  A    between atoms: S_3  and  C_4
REMARK    5  A    between atoms: N_8  and  C_9
REMARK    6  A    between atoms: C_14  and  N_15
REMARK    7  A    between atoms: C_16  and  C_18
REMARK    8  A    between atoms: C_20  and  C_21
REMARK    9  A    between atoms: C_26  and  C_27
REMARK                            x       y       z     vdW  Elec       q    Type
REMARK                         _______ _______ _______ _____ _____    ______ ____
ROOT
ATOM      1  N   UNL     1       2.099   7.107  18.890  0.00  0.00    +0.000 N 
ATOM      2  C   UNL     1       2.015   8.382  18.336  0.00  0.00    +0.000 C 
ATOM      3  O   UNL     1       2.328   8.721  17.204  0.00  0.00    +0.000 OA
ATOM      4  H   UNL     1       1.692   6.989  19.809  0.00  0.00    +0.000 HD
ENDROOT
BRANCH   1   9
ATOM      5  C   UNL     1       4.336   5.000  16.770  0.00  0.00    +0.000 A 
ATOM      6  C   UNL     1       3.733   3.744  16.923  0.00  0.00    +0.000 A 
ATOM      7  C   UNL     1       2.588   3.610  17.706  0.00  0.00    +0.000 A 
ATOM      8  C   UNL     1       2.047   4.721  18.348  0.00  0.00    +0.000 A 
ATOM      9  C   UNL     1       2.633   5.975  18.234  0.00  0.00    +0.000 A 
ATOM     10  C   UNL     1       3.773   6.113  17.440  0.00  0.00    +0.000 A 
BRANCH   5  12
ATOM     11  C   UNL     1       5.428   4.238  14.635  0.00  0.00    +0.000 C 
ATOM     12  C   UNL     1       5.551   5.167  15.850  0.00  0.00    +0.000 C 
BRANCH  12  13
ATOM     13  S   UNL     1       7.054   4.890  16.877  0.00  0.00    +0.000 S 
BRANCH  13  14
ATOM     14  C   UNL     1       7.487   6.444  17.482  0.00  0.00    +0.000 A 
ATOM     15  N   UNL     1       7.458   7.596  16.854  0.00  0.00    +0.000 NA
ATOM     16  N   UNL     1       8.039   8.539  17.676  0.00  0.00    +0.000 NA
ATOM     17  C   UNL     1       8.378   7.937  18.793  0.00  0.00    +0.000 A 
ATOM     18  N   UNL     1       8.001   6.630  18.736  0.00  0.00    +0.000 N 
ATOM     19  C   UNL     1       8.130   5.671  19.801  0.00  0.00    +0.000 C 
ENDBRANCH  13  14
ENDBRANCH  12  13
ENDBRANCH   5  12
ENDBRANCH   1   9
BRANCH   2  20
ATOM     20  C   UNL     1       1.444   9.416  19.243  0.00  0.00    +0.000 A 
ATOM     21  C   UNL     1       0.914   9.031  20.471  0.00  0.00    +0.000 A 
ATOM     22  C   UNL     1       0.414  10.021  21.322  0.00  0.00    +0.000 A 
ATOM     23  C   UNL     1       0.482  11.358  20.898  0.00  0.00    +0.000 A 
ATOM     24  C   UNL     1       1.030  11.672  19.647  0.00  0.00    +0.000 A 
ATOM     25  N   UNL     1       1.503  10.703  18.815  0.00  0.00    +0.000 NA
BRANCH  22  26
ATOM     26  C   UNL     1      -0.162   9.667  22.667  0.00  0.00    +0.000 C 
ATOM     27  F   UNL     1       0.777   9.444  23.624  0.00  0.00    +0.000 F 
ATOM     28  F   UNL     1      -0.969  10.650  23.151  0.00  0.00    +0.000 F 
ATOM     29  F   UNL     1      -0.927   8.542  22.619  0.00  0.00    +0.000 F 
ENDBRANCH  22  26
BRANCH  24  30
ATOM     30  C   UNL     1       1.131  13.119  19.188  0.00  0.00    +0.000 C 
ATOM     31  F   UNL     1       0.209  13.451  18.238  0.00  0.00    +0.000 F 
ATOM     32  F   UNL     1       0.946  14.004  20.206  0.00  0.00    +0.000 F 
ATOM     33  F   UNL     1       2.345  13.414  18.644  0.00  0.00    +0.000 F 
ENDBRANCH  24  30
ENDBRANCH   2  20
TORSDOF 7
ENDMDL
MODEL 4
REMARK VINA RESULT:      -8.9      0.251      1.022
REMARK  Name = 
REMARK  9 active torsions:
REMARK  status: ('A' for Active; 'I' for Inactive)
REMARK    1  A    between atoms: C_1  and  C_2
REMARK    2  A    between atoms: C_2  and  S_3
REMARK    3  A    between atoms: C_2  and  C_10
REMARK    4  A    between atoms: S_3  and  C_4
REMARK    5  A    between atoms: N_8  and  C_9
REMARK    6  A    between atoms: C_14  and  N_15
REMARK    7  A    between atoms: C_16  and  C_18
REMARK    8  A    between atoms: C_20  and  C_21
REMARK    9  A    between atoms: C_26  and  C_27
REMARK                            x       y       z     vdW  Elec       q    Type
REMARK                         _______ _______ _______ _____ _____    ______ ____
ROOT
ATOM      1  N   UNL     1       2.027   7.272  19.448  0.00  0.00    +0.000 N 
ATOM      2  C   UNL     1       2.872   7.301  18.342  0.00  0.00    +0.000 C 
ATOM      3  O   UNL     1       3.248   8.284  17.720  0.00  0.00    +0.000 OA
ATOM      4  H   UNL     1       1.911   6.375  19.901  0.00  0.00    +0.000 HD
ENDROOT
BRANCH   1   9
ATOM      5  C   UNL     1       0.240  10.539  19.709  0.00  0.00    +0.000 A 
ATOM      6  C   UNL     1       0.129  10.665  21.101  0.00  0.00    +0.000 A 
ATOM      7  C   UNL     1       0.660   9.683  21.935  0.00  0.00    +0.000 A 
ATOM      8  C   UNL     1       1.292   8.569  21.389  0.00  0.00    +0.000 A 
ATOM      9  C   UNL     1       1.399   8.404  20.014  0.00  0.00    +0.000 A 
ATOM     10  C   UNL     1       0.878   9.393  19.177  0.00  0.00    +0.000 A 
BRANCH   5  12
ATOM     11  C   UNL     1       0.359  12.994  19.174  0.00  0.00    +0.000 C 
ATOM     12  C   UNL     1      -0.276  11.652  18.790  0.00  0.00    +0.000 C 
BRANCH  12  13
ATOM     13  S   UNL     1      -2.115  11.621  18.875  0.00  0.00    +0.000 S 
BRANCH  13  14
ATOM     14  C   UNL     1      -2.630  10.909  17.393  0.00  0.00    +0.000 A 
ATOM     15  N   UNL     1      -1.956  10.108  16.601  0.00  0.00    +0.000 NA
ATOM     16  N   UNL     1      -2.704   9.918  15.458  0.00  0.00    +0.000 NA
ATOM     17  C   UNL     1      -3.826  10.587  15.602  0.00  0.00    +0.000 A 
ATOM     18  N   UNL     1      -3.845  11.183  16.827  0.00  0.00    +0.000 N 
ATOM     19  C   UNL     1      -4.940  11.934  17.379  0.00  0.00    +0.000 C 
ENDBRANCH  13  14
ENDBRANCH  12  13
ENDBRANCH   5  12
ENDBRANCH   1   9
BRANCH   2  20
ATOM     20  C   UNL     1       3.382   5.968  17.915  0.00  0.00    +0.000 A 
ATOM     21  C   UNL     1       4.472   5.898  17.053  0.00  0.00    +0.000 A 
ATOM     22  C   UNL     1       4.957   4.638  16.691  0.00  0.00    +0.000 A 
ATOM     23  C   UNL     1       4.324   3.504  17.225  0.00  0.00    +0.000 A 
ATOM     24  C   UNL     1       3.231   3.651  18.089  0.00  0.00    +0.000 A 
ATOM     25  N   UNL     1       2.752   4.880  18.427  0.00  0.00    +0.000 NA
BRANCH  22  26
ATOM     26  C   UNL     1       6.140   4.498  15.770  0.00  0.00    +0.000 C 
ATOM     27  F   UNL     1       6.112   3.370  15.010  0.00  0.00    +0.000 F 
ATOM     28  F   UNL     1       6.235   5.538  14.899  0.00  0.00    +0.000 F 
ATOM     29  F   UNL     1       7.319   4.466  16.449  0.00  0.00    +0.000 F 
ENDBRANCH  22  26
BRANCH  24  30
ATOM     30  C   UNL     1       2.553   2.430  18.693  0.00  0.00    +0.000 C 
ATOM     31  F   UNL     1       2.077   2.643  19.954  0.00  0.00    +0.000 F 
ATOM     32  F   UNL     1       1.484   2.011  17.961  0.00  0.00    +0.000 F 
ATOM     33  F   UNL     1       3.390   1.359  18.789  0.00  0.00    +0.000 F 
ENDBRANCH  24  30
ENDBRANCH   2  20
TORSDOF 7
ENDMDL
MODEL 5
REMARK VINA RESULT:      -8.8      0.551      3.131
REMARK  Name = 
REMARK  9 active torsions:
REMARK  status: ('A' for Active; 'I' for Inactive)
REMARK    1  A    between atoms: C_1  and  C_2
REMARK    2  A    between atoms: C_2  and  S_3
REMARK    3  A    between atoms: C_2  and  C_10
REMARK    4  A    between atoms: S_3  and  C_4
REMARK    5  A    between atoms: N_8  and  C_9
REMARK    6  A    between atoms: C_14  and  N_15
REMARK    7  A    between atoms: C_16  and  C_18
REMARK    8  A    between atoms: C_20  and  C_21
REMARK    9  A    between atoms: C_26  and  C_27
REMARK                            x       y       z     vdW  Elec       q    Type
REMARK                         _______ _______ _______ _____ _____    ______ ____
ROOT
ATOM      1  N   UNL     1       2.036   7.314  19.734  0.00  0.00    +0.000 N 
ATOM      2  C   UNL     1       2.611   7.274  18.467  0.00  0.00    +0.000 C 
ATOM      3  O   UNL     1       2.732   8.199  17.677  0.00  0.00    +0.000 OA
ATOM      4  H   UNL     1       2.122   6.475  20.293  0.00  0.00    +0.000 HD
ENDROOT
BRANCH   1   9
ATOM      5  C   UNL     1       0.323  10.619  20.019  0.00  0.00    +0.000 A 
ATOM      6  C   UNL     1       0.189  10.724  21.411  0.00  0.00    +0.000 A 
ATOM      7  C   UNL     1       0.681   9.715  22.238  0.00  0.00    +0.000 A 
ATOM      8  C   UNL     1       1.296   8.596  21.684  0.00  0.00    +0.000 A 
ATOM      9  C   UNL     1       1.425   8.451  20.308  0.00  0.00    +0.000 A 
ATOM     10  C   UNL     1       0.944   9.467  19.479  0.00  0.00    +0.000 A 
BRANCH   5  12
ATOM     11  C   UNL     1       0.588  13.058  19.462  0.00  0.00    +0.000 C 
ATOM     12  C   UNL     1      -0.148  11.759  19.109  0.00  0.00    +0.000 C 
BRANCH  12  13
ATOM     13  S   UNL     1      -1.981  11.852  19.256  0.00  0.00    +0.000 S 
BRANCH  13  14
ATOM     14  C   UNL     1      -2.591  11.225  17.772  0.00  0.00    +0.000 A 
ATOM     15  N   UNL     1      -1.935  10.591  16.829  0.00  0.00    +0.000 NA
ATOM     16  N   UNL     1      -2.792  10.420  15.762  0.00  0.00    +0.000 NA
ATOM     17  C   UNL     1      -3.955  10.930  16.100  0.00  0.00    +0.000 A 
ATOM     18  N   UNL     1      -3.890  11.400  17.377  0.00  0.00    +0.000 N 
ATOM     19  C   UNL     1      -4.985  11.956  18.125  0.00  0.00    +0.000 C 
ENDBRANCH  13  14
ENDBRANCH  12  13
ENDBRANCH   5  12
ENDBRANCH   1   9
BRANCH   2  20
ATOM     20  C   UNL     1       3.161   5.946  18.076  0.00  0.00    +0.000 A 
ATOM     21  C   UNL     1       2.595   4.790  18.606  0.00  0.00    +0.000 A 
ATOM     22  C   UNL     1       3.103   3.552  18.200  0.00  0.00    +0.000 A 
ATOM     23  C   UNL     1       4.154   3.538  17.269  0.00  0.00    +0.000 A 
ATOM     24  C   UNL     1       4.673   4.743  16.777  0.00  0.00    +0.000 A 
ATOM     25  N   UNL     1       4.186   5.947  17.186  0.00  0.00    +0.000 NA
BRANCH  22  26
ATOM     26  C   UNL     1       2.525   2.267  18.730  0.00  0.00    +0.000 C 
ATOM     27  F   UNL     1       1.247   2.034  18.329  0.00  0.00    +0.000 F 
ATOM     28  F   UNL     1       3.248   1.183  18.339  0.00  0.00    +0.000 F 
ATOM     29  F   UNL     1       2.505   2.235  20.091  0.00  0.00    +0.000 F 
ENDBRANCH  22  26
BRANCH  24  30
ATOM     30  C   UNL     1       5.796   4.739  15.750  0.00  0.00    +0.000 C 
ATOM     31  F   UNL     1       5.710   3.710  14.858  0.00  0.00    +0.000 F 
ATOM     32  F   UNL     1       5.822   5.876  15.001  0.00  0.00    +0.000 F 
ATOM     33  F   UNL     1       7.028   4.633  16.321  0.00  0.00    +0.000 F 
ENDBRANCH  24  30
ENDBRANCH   2  20
TORSDOF 7
ENDMDL
MODEL 6
REMARK VINA RESULT:      -8.8      2.366      4.541
REMARK  Name = 
REMARK  9 active torsions:
REMARK  status: ('A' for Active; 'I' for Inactive)
REMARK    1  A    between atoms: C_1  and  C_2
REMARK    2  A    between atoms: C_2  and  S_3
REMARK    3  A    between atoms: C_2  and  C_10
REMARK    4  A    between atoms: S_3  and  C_4
REMARK    5  A    between atoms: N_8  and  C_9
REMARK    6  A    between atoms: C_14  and  N_15
REMARK    7  A    between atoms: C_16  and  C_18
REMARK    8  A    between atoms: C_20  and  C_21
REMARK    9  A    between atoms: C_26  and  C_27
REMARK                            x       y       z     vdW  Elec       q    Type
REMARK                         _______ _______ _______ _____ _____    ______ ____
ROOT
ATOM      1  N   UNL     1       1.900   8.448  18.013  0.00  0.00    +0.000 N 
ATOM      2  C   UNL     1       2.231   7.524  19.001  0.00  0.00    +0.000 C 
ATOM      3  O   UNL     1       2.130   7.663  20.211  0.00  0.00    +0.000 OA
ATOM      4  H   UNL     1       1.948   8.119  17.057  0.00  0.00    +0.000 HD
ENDROOT
BRANCH   1   9
ATOM      5  C   UNL     1      -0.409  11.268  18.819  0.00  0.00    +0.000 A 
ATOM      6  C   UNL     1       0.477  12.354  18.763  0.00  0.00    +0.000 A 
ATOM      7  C   UNL     1       1.817  12.146  18.442  0.00  0.00    +0.000 A 
ATOM      8  C   UNL     1       2.282  10.859  18.188  0.00  0.00    +0.000 A 
ATOM      9  C   UNL     1       1.436   9.759  18.257  0.00  0.00    +0.000 A 
ATOM     10  C   UNL     1       0.090   9.968  18.566  0.00  0.00    +0.000 A 
BRANCH   5  12
ATOM     11  C   UNL     1      -2.692  11.482  17.784  0.00  0.00    +0.000 C 
ATOM     12  C   UNL     1      -1.898  11.499  19.097  0.00  0.00    +0.000 C 
BRANCH  12  13
ATOM     13  S   UNL     1      -2.038  13.064  20.057  0.00  0.00    +0.000 S 
BRANCH  13  14
ATOM     14  C   UNL     1      -2.883  12.643  21.498  0.00  0.00    +0.000 A 
ATOM     15  N   UNL     1      -4.154  12.820  21.773  0.00  0.00    +0.000 NA
ATOM     16  N   UNL     1      -4.351  12.479  23.095  0.00  0.00    +0.000 NA
ATOM     17  C   UNL     1      -3.197  12.076  23.576  0.00  0.00    +0.000 A 
ATOM     18  N   UNL     1      -2.257  12.112  22.592  0.00  0.00    +0.000 N 
ATOM     19  C   UNL     1      -0.894  11.668  22.714  0.00  0.00    +0.000 C 
ENDBRANCH  13  14
ENDBRANCH  12  13
ENDBRANCH   5  12
ENDBRANCH   1   9
BRANCH   2  20
ATOM     20  C   UNL     1       2.730   6.217  18.488  0.00  0.00    +0.000 A 
ATOM     21  C   UNL     1       2.154   5.038  18.949  0.00  0.00    +0.000 A 
ATOM     22  C   UNL     1       2.613   3.824  18.430  0.00  0.00    +0.000 A 
ATOM     23  C   UNL     1       3.629   3.857  17.459  0.00  0.00    +0.000 A 
ATOM     24  C   UNL     1       4.161   5.084  17.042  0.00  0.00    +0.000 A 
ATOM     25  N   UNL     1       3.721   6.264  17.561  0.00  0.00    +0.000 NA
BRANCH  22  26
ATOM     26  C   UNL     1       2.022   2.515  18.881  0.00  0.00    +0.000 C 
ATOM     27  F   UNL     1       2.724   1.425  18.469  0.00  0.00    +0.000 F 
ATOM     28  F   UNL     1       1.951   2.427  20.237  0.00  0.00    +0.000 F 
ATOM     29  F   UNL     1       0.752   2.339  18.425  0.00  0.00    +0.000 F 
ENDBRANCH  22  26
BRANCH  24  30
ATOM     30  C   UNL     1       5.244   5.134  15.975  0.00  0.00    +0.000 C 
ATOM     31  F   UNL     1       5.406   6.372  15.424  0.00  0.00    +0.000 F 
ATOM     32  F   UNL     1       6.468   4.781  16.456  0.00  0.00    +0.000 F 
ATOM     33  F   UNL     1       4.990   4.295  14.931  0.00  0.00    +0.000 F 
ENDBRANCH  24  30
ENDBRANCH   2  20
TORSDOF 7
ENDMDL
MODEL 7
REMARK VINA RESULT:      -8.8      0.941      1.122
REMARK  Name = 
REMARK  9 active torsions:
REMARK  status: ('A' for Active; 'I' for Inactive)
REMARK    1  A    between atoms: C_1  and  C_2
REMARK    2  A    between atoms: C_2  and  S_3
REMARK    3  A    between atoms: C_2  and  C_10
REMARK    4  A    between atoms: S_3  and  C_4
REMARK    5  A    between atoms: N_8  and  C_9
REMARK    6  A    between atoms: C_14  and  N_15
REMARK    7  A    between atoms: C_16  and  C_18
REMARK    8  A    between atoms: C_20  and  C_21
REMARK    9  A    between atoms: C_26  and  C_27
REMARK                            x       y       z     vdW  Elec       q    Type
REMARK                         _______ _______ _______ _____ _____    ______ ____
ROOT
ATOM      1  N   UNL     1       2.265   7.487  19.979  0.00  0.00    +0.000 N 
ATOM      2  C   UNL     1       2.669   7.276  18.663  0.00  0.00    +0.000 C 
ATOM      3  O   UNL     1       2.368   7.936  17.679  0.00  0.00    +0.000 OA
ATOM      4  H   UNL     1       2.701   6.905  20.682  0.00  0.00    +0.000 HD
ENDROOT
BRANCH   1   9
ATOM      5  C   UNL     1       0.028  10.474  19.860  0.00  0.00    +0.000 A 
ATOM      6  C   UNL     1      -0.437  10.503  21.182  0.00  0.00    +0.000 A 
ATOM      7  C   UNL     1       0.006   9.552  22.100  0.00  0.00    +0.000 A 
ATOM      8  C   UNL     1       0.902   8.564  21.703  0.00  0.00    +0.000 A 
ATOM      9  C   UNL     1       1.365   8.493  20.395  0.00  0.00    +0.000 A 
ATOM     10  C   UNL     1       0.931   9.453  19.478  0.00  0.00    +0.000 A 
BRANCH   5  12
ATOM     11  C   UNL     1       0.264  12.897  19.227  0.00  0.00    +0.000 C 
ATOM     12  C   UNL     1      -0.398  11.560  18.866  0.00  0.00    +0.000 C 
BRANCH  12  13
ATOM     13  S   UNL     1      -2.238  11.595  18.851  0.00  0.00    +0.000 S 
BRANCH  13  14
ATOM     14  C   UNL     1      -2.696  10.904  17.340  0.00  0.00    +0.000 A 
ATOM     15  N   UNL     1      -1.989  10.120  16.560  0.00  0.00    +0.000 NA
ATOM     16  N   UNL     1      -2.696   9.944  15.389  0.00  0.00    +0.000 NA
ATOM     17  C   UNL     1      -3.826  10.604  15.504  0.00  0.00    +0.000 A 
ATOM     18  N   UNL     1      -3.893  11.179  16.736  0.00  0.00    +0.000 N 
ATOM     19  C   UNL     1      -5.012  11.914  17.262  0.00  0.00    +0.000 C 
ENDBRANCH  13  14
ENDBRANCH  12  13
ENDBRANCH   5  12
ENDBRANCH   1   9
BRANCH   2  20
ATOM     20  C   UNL     1       3.599   6.127  18.476  0.00  0.00    +0.000 A 
ATOM     21  C   UNL     1       4.789   6.319  17.780  0.00  0.00    +0.000 A 
ATOM     22  C   UNL     1       5.664   5.237  17.645  0.00  0.00    +0.000 A 
ATOM     23  C   UNL     1       5.301   4.012  18.228  0.00  0.00    +0.000 A 
ATOM     24  C   UNL     1       4.087   3.893  18.915  0.00  0.00    +0.000 A 
ATOM     25  N   UNL     1       3.230   4.946  19.032  0.00  0.00    +0.000 NA
BRANCH  22  26
ATOM     26  C   UNL     1       6.971   5.385  16.912  0.00  0.00    +0.000 C 
ATOM     27  F   UNL     1       7.606   6.563  17.156  0.00  0.00    +0.000 F 
ATOM     28  F   UNL     1       7.854   4.405  17.240  0.00  0.00    +0.000 F 
ATOM     29  F   UNL     1       6.814   5.314  15.562  0.00  0.00    +0.000 F 
ENDBRANCH  22  26
BRANCH  24  30
ATOM     30  C   UNL     1       3.695   2.577  19.571  0.00  0.00    +0.000 C 
ATOM     31  F   UNL     1       3.618   1.536  18.692  0.00  0.00    +0.000 F 
ATOM     32  F   UNL     1       4.580   2.188  20.529  0.00  0.00    +0.000 F 
ATOM     33  F   UNL     1       2.477   2.638  20.180  0.00  0.00    +0.000 F 
ENDBRANCH  24  30
ENDBRANCH   2  20
TORSDOF 7
ENDMDL
MODEL 8
REMARK VINA RESULT:      -8.8      2.475      4.588
REMARK  Name = 
REMARK  9 active torsions:
REMARK  status: ('A' for Active; 'I' for Inactive)
REMARK    1  A    between atoms: C_1  and  C_2
REMARK    2  A    between atoms: C_2  and  S_3
REMARK    3  A    between atoms: C_2  and  C_10
REMARK    4  A    between atoms: S_3  and  C_4
REMARK    5  A    between atoms: N_8  and  C_9
REMARK    6  A    between atoms: C_14  and  N_15
REMARK    7  A    between atoms: C_16  and  C_18
REMARK    8  A    between atoms: C_20  and  C_21
REMARK    9  A    between atoms: C_26  and  C_27
REMARK                            x       y       z     vdW  Elec       q    Type
REMARK                         _______ _______ _______ _____ _____    ______ ____
ROOT
ATOM      1  N   UNL     1       1.875   8.705  17.954  0.00  0.00    +0.000 N 
ATOM      2  C   UNL     1       2.203   7.749  18.912  0.00  0.00    +0.000 C 
ATOM      3  O   UNL     1       2.052   7.829  20.122  0.00  0.00    +0.000 OA
ATOM      4  H   UNL     1       1.970   8.422  16.987  0.00  0.00    +0.000 HD
ENDROOT
BRANCH   1   9
ATOM      5  C   UNL     1      -0.552  11.392  18.865  0.00  0.00    +0.000 A 
ATOM      6  C   UNL     1       0.281  12.519  18.823  0.00  0.00    +0.000 A 
ATOM      7  C   UNL     1       1.624  12.383  18.477  0.00  0.00    +0.000 A 
ATOM      8  C   UNL     1       2.146  11.127  18.184  0.00  0.00    +0.000 A 
ATOM      9  C   UNL     1       1.354   9.987  18.238  0.00  0.00    +0.000 A 
ATOM     10  C   UNL     1       0.004  10.124  18.572  0.00  0.00    +0.000 A 
BRANCH   5  12
ATOM     11  C   UNL     1      -2.864  11.459  17.877  0.00  0.00    +0.000 C 
ATOM     12  C   UNL     1      -2.045  11.545  19.172  0.00  0.00    +0.000 C 
BRANCH  12  13
ATOM     13  S   UNL     1      -2.252  13.118  20.107  0.00  0.00    +0.000 S 
BRANCH  13  14
ATOM     14  C   UNL     1      -3.100  12.688  21.543  0.00  0.00    +0.000 A 
ATOM     15  N   UNL     1      -4.383  12.451  21.687  0.00  0.00    +0.000 NA
ATOM     16  N   UNL     1      -4.635  12.302  23.035  0.00  0.00    +0.000 NA
ATOM     17  C   UNL     1      -3.491  12.424  23.669  0.00  0.00    +0.000 A 
ATOM     18  N   UNL     1      -2.490  12.614  22.766  0.00  0.00    +0.000 N 
ATOM     19  C   UNL     1      -1.087  12.710  23.072  0.00  0.00    +0.000 C 
ENDBRANCH  13  14
ENDBRANCH  12  13
ENDBRANCH   5  12
ENDBRANCH   1   9
BRANCH   2  20
ATOM     20  C   UNL     1       2.769   6.486  18.361  0.00  0.00    +0.000 A 
ATOM     21  C   UNL     1       2.143   5.277  18.644  0.00  0.00    +0.000 A 
ATOM     22  C   UNL     1       2.670   4.107  18.090  0.00  0.00    +0.000 A 
ATOM     23  C   UNL     1       3.802   4.213  17.265  0.00  0.00    +0.000 A 
ATOM     24  C   UNL     1       4.379   5.466  17.024  0.00  0.00    +0.000 A 
ATOM     25  N   UNL     1       3.872   6.602  17.578  0.00  0.00    +0.000 NA
BRANCH  22  26
ATOM     26  C   UNL     1       2.030   2.769  18.351  0.00  0.00    +0.000 C 
ATOM     27  F   UNL     1       2.388   2.213  19.539  0.00  0.00    +0.000 F 
ATOM     28  F   UNL     1       0.672   2.846  18.364  0.00  0.00    +0.000 F 
ATOM     29  F   UNL     1       2.345   1.853  17.395  0.00  0.00    +0.000 F 
ENDBRANCH  22  26
BRANCH  24  30
ATOM     30  C   UNL     1       5.592   5.597  16.113  0.00  0.00    +0.000 C 
ATOM     31  F   UNL     1       6.284   4.430  15.963  0.00  0.00    +0.000 F 
ATOM     32  F   UNL     1       5.259   5.993  14.854  0.00  0.00    +0.000 F 
ATOM     33  F   UNL     1       6.496   6.507  16.571  0.00  0.00    +0.000 F 
ENDBRANCH  24  30
ENDBRANCH   2  20
TORSDOF 7
ENDMDL
MODEL 9
REMARK VINA RESULT:      -8.8      1.247      1.566
REMARK  Name = 
REMARK  9 active torsions:
REMARK  status: ('A' for Active; 'I' for Inactive)
REMARK    1  A    between atoms: C_1  and  C_2
REMARK    2  A    between atoms: C_2  and  S_3
REMARK    3  A    between atoms: C_2  and  C_10
REMARK    4  A    between atoms: S_3  and  C_4
REMARK    5  A    between atoms: N_8  and  C_9
REMARK    6  A    between atoms: C_14  and  N_15
REMARK    7  A    between atoms: C_16  and  C_18
REMARK    8  A    between atoms: C_20  and  C_21
REMARK    9  A    between atoms: C_26  and  C_27
REMARK                            x       y       z     vdW  Elec       q    Type
REMARK                         _______ _______ _______ _____ _____    ______ ____
ROOT
ATOM      1  N   UNL     1       2.025   7.818  19.511  0.00  0.00    +0.000 N 
ATOM      2  C   UNL     1       2.086   6.475  19.873  0.00  0.00    +0.000 C 
ATOM      3  O   UNL     1       1.524   5.934  20.814  0.00  0.00    +0.000 OA
ATOM      4  H   UNL     1       2.468   8.068  18.637  0.00  0.00    +0.000 HD
ENDROOT
BRANCH   1   9
ATOM      5  C   UNL     1       0.107  10.939  20.234  0.00  0.00    +0.000 A 
ATOM      6  C   UNL     1      -0.069  10.820  21.621  0.00  0.00    +0.000 A 
ATOM      7  C   UNL     1       0.461   9.726  22.301  0.00  0.00    +0.000 A 
ATOM      8  C   UNL     1       1.157   8.742  21.605  0.00  0.00    +0.000 A 
ATOM      9  C   UNL     1       1.331   8.817  20.229  0.00  0.00    +0.000 A 
ATOM     10  C   UNL     1       0.810   9.920  19.548  0.00  0.00    +0.000 A 
BRANCH   5  12
ATOM     11  C   UNL     1       0.246  13.445  20.058  0.00  0.00    +0.000 C 
ATOM     12  C   UNL     1      -0.408  12.177  19.493  0.00  0.00    +0.000 C 
BRANCH  12  13
ATOM     13  S   UNL     1      -2.246  12.150  19.599  0.00  0.00    +0.000 S 
BRANCH  13  14
ATOM     14  C   UNL     1      -2.784  11.581  18.064  0.00  0.00    +0.000 A 
ATOM     15  N   UNL     1      -2.058  11.227  17.030  0.00  0.00    +0.000 NA
ATOM     16  N   UNL     1      -2.914  10.993  15.974  0.00  0.00    +0.000 NA
ATOM     17  C   UNL     1      -4.139  11.184  16.406  0.00  0.00    +0.000 A 
ATOM     18  N   UNL     1      -4.109  11.503  17.730  0.00  0.00    +0.000 N 
ATOM     19  C   UNL     1      -5.257  11.704  18.573  0.00  0.00    +0.000 C 
ENDBRANCH  13  14
ENDBRANCH  12  13
ENDBRANCH   5  12
ENDBRANCH   1   9
BRANCH   2  20
ATOM     20  C   UNL     1       2.912   5.626  18.970  0.00  0.00    +0.000 A 
ATOM     21  C   UNL     1       3.703   6.230  17.998  0.00  0.00    +0.000 A 
ATOM     22  C   UNL     1       4.496   5.418  17.184  0.00  0.00    +0.000 A 
ATOM     23  C   UNL     1       4.462   4.029  17.394  0.00  0.00    +0.000 A 
ATOM     24  C   UNL     1       3.641   3.491  18.393  0.00  0.00    +0.000 A 
ATOM     25  N   UNL     1       2.858   4.285  19.175  0.00  0.00    +0.000 NA
BRANCH  22  26
ATOM     26  C   UNL     1       5.382   6.014  16.121  0.00  0.00    +0.000 C 
ATOM     27  F   UNL     1       4.767   6.963  15.365  0.00  0.00    +0.000 F 
ATOM     28  F   UNL     1       6.484   6.608  16.650  0.00  0.00    +0.000 F 
ATOM     29  F   UNL     1       5.841   5.076  15.249  0.00  0.00    +0.000 F 
ENDBRANCH  22  26
BRANCH  24  30
ATOM     30  C   UNL     1       3.614   1.991  18.647  0.00  0.00    +0.000 C 
ATOM     31  F   UNL     1       4.477   1.591  19.625  0.00  0.00    +0.000 F 
ATOM     32  F   UNL     1       2.386   1.549  19.035  0.00  0.00    +0.000 F 
ATOM     33  F   UNL     1       3.946   1.266  17.541  0.00  0.00    +0.000 F 
ENDBRANCH  24  30
ENDBRANCH   2  20
TORSDOF 7
ENDMDL
