MODEL 1
REMARK VINA RESULT:      -9.1      0.000      0.000
REMARK  Name = 
REMARK  10 active torsions:
REMARK  status: ('A' for Active; 'I' for Inactive)
REMARK    1  A    between atoms: C_1  and  C_2
REMARK    2  A    between atoms: C_2  and  C_3
REMARK    3  A    between atoms: C_2  and  C_10
REMARK    4  A    between atoms: C_3  and  C_4
REMARK    5  A    between atoms: N_8  and  C_9
REMARK    6  A    between atoms: C_12  and  N_13
REMARK    7  A    between atoms: N_13  and  C_14
REMARK    8  A    between atoms: C_14  and  C_15
REMARK    9  A    between atoms: C_15  and  O_16
REMARK   10  A    between atoms: C_26  and  C_27
REMARK                            x       y       z     vdW  Elec       q    Type
REMARK                         _______ _______ _______ _____ _____    ______ ____
ROOT
ATOM      1  C   UNL     1       5.439   5.337  18.825  0.00  0.00    +0.000 A 
ATOM      2  C   UNL     1       4.901   4.101  19.209  0.00  0.00    +0.000 A 
ATOM      3  C   UNL     1       3.592   4.012  19.699  0.00  0.00    +0.000 A 
ATOM      4  N   UNL     1       2.840   5.108  19.925  0.00  0.00    +0.000 NA
ATOM      5  C   UNL     1       3.313   6.286  19.479  0.00  0.00    +0.000 A 
ATOM      6  N   UNL     1       2.488   7.409  19.543  0.00  0.00    +0.000 N 
ATOM      7  C   UNL     1       1.680   7.726  20.698  0.00  0.00    +0.000 C 
ATOM      8  C   UNL     1       0.871   8.896  20.208  0.00  0.00    +0.000 A 
ATOM      9  C   UNL     1       1.120   9.087  18.846  0.00  0.00    +0.000 A 
ATOM     10  C   UNL     1       0.459  10.025  18.074  0.00  0.00    +0.000 A 
ATOM     11  C   UNL     1      -0.469  10.838  18.715  0.00  0.00    +0.000 A 
ATOM     12  C   UNL     1      -0.687  10.710  20.100  0.00  0.00    +0.000 A 
ATOM     13  C   UNL     1      -0.013   9.738  20.873  0.00  0.00    +0.000 A 
ATOM     14  C   UNL     1       2.173   8.163  18.427  0.00  0.00    +0.000 C 
ATOM     15  O   UNL     1       2.616   8.122  17.294  0.00  0.00    +0.000 OA
ATOM     16  C   UNL     1       4.583   6.434  18.932  0.00  0.00    +0.000 A 
ENDROOT
BRANCH  13  17
ATOM     17  C   UNL     1      -0.243   9.681  22.360  0.00  0.00    +0.000 C 
ATOM     18  F   UNL     1      -0.938  10.744  22.850  0.00  0.00    +0.000 F 
ATOM     19  F   UNL     1      -0.952   8.577  22.728  0.00  0.00    +0.000 F 
ATOM     20  F   UNL     1       0.918   9.633  23.068  0.00  0.00    +0.000 F 
ENDBRANCH  13  17
BRANCH   1  22
ATOM     21  C   UNL     1       7.244   6.923  17.893  0.00  0.00    +0.000 C 
ATOM     22  C   UNL     1       6.900   5.509  18.407  0.00  0.00    +0.000 C 
BRANCH  22  23
ATOM     23  C   UNL     1       7.485   4.450  17.440  0.00  0.00    +0.000 C 
BRANCH  23  24
ATOM     24  C   UNL     1       7.040   4.632  16.029  0.00  0.00    +0.000 A 
ATOM     25  N   UNL     1       7.654   5.345  15.102  0.00  0.00    +0.000 NA
ATOM     26  N   UNL     1       6.989   5.166  13.916  0.00  0.00    +0.000 NA
ATOM     27  C   UNL     1       5.973   4.369  14.142  0.00  0.00    +0.000 A 
ATOM     28  N   UNL     1       5.925   4.062  15.467  0.00  0.00    +0.000 N 
ATOM     29  C   UNL     1       4.888   3.312  16.121  0.00  0.00    +0.000 C 
ENDBRANCH  23  24
ENDBRANCH  22  23
ENDBRANCH   1  22
BRANCH   3  30
ATOM     30  N   UNL     1       3.084   2.734  19.998  0.00  0.00    +0.000 N 
ATOM     31  H   UNL     1       3.804   2.166  20.440  0.00  0.00    +0.000 HD
BRANCH  30  32
ATOM     32  C   UNL     1       2.510   2.010  18.851  0.00  0.00    +0.000 C 
BRANCH  32  33
ATOM     33  C   UNL     1       1.068   2.444  18.541  0.00  0.00    +0.000 C 
BRANCH  33  34
ATOM     34  O   UNL     1       1.065   3.608  17.710  0.00  0.00    +0.000 OA
ATOM     35  H   UNL     1       0.841   3.298  16.813  0.00  0.00    +0.000 HD
ENDBRANCH  33  34
ENDBRANCH  32  33
ENDBRANCH  30  32
ENDBRANCH   3  30
TORSDOF 8
ENDMDL
MODEL 2
REMARK VINA RESULT:      -9.1      1.082      1.282
REMARK  Name = 
REMARK  10 active torsions:
REMARK  status: ('A' for Active; 'I' for Inactive)
REMARK    1  A    between atoms: C_1  and  C_2
REMARK    2  A    between atoms: C_2  and  C_3
REMARK    3  A    between atoms: C_2  and  C_10
REMARK    4  A    between atoms: C_3  and  C_4
REMARK    5  A    between atoms: N_8  and  C_9
REMARK    6  A    between atoms: C_12  and  N_13
REMARK    7  A    between atoms: N_13  and  C_14
REMARK    8  A    between atoms: C_14  and  C_15
REMARK    9  A    between atoms: C_15  and  O_16
REMARK   10  A    between atoms: C_26  and  C_27
REMARK                            x       y       z     vdW  Elec       q    Type
REMARK                         _______ _______ _______ _____ _____    ______ ____
ROOT
ATOM      1  C   UNL     1       5.233   5.585  18.599  0.00  0.00    +0.000 A 
ATOM      2  C   UNL     1       4.660   4.331  18.848  0.00  0.00    +0.000 A 
ATOM      3  C   UNL     1       3.345   4.226  19.320  0.00  0.00    +0.000 A 
ATOM      4  N   UNL     1       2.620   5.312  19.656  0.00  0.00    +0.000 NA
ATOM      5  C   UNL     1       3.128   6.517  19.338  0.00  0.00    +0.000 A 
ATOM      6  N   UNL     1       2.332   7.649  19.516  0.00  0.00    +0.000 N 
ATOM      7  C   UNL     1       1.523   7.865  20.694  0.00  0.00    +0.000 C 
ATOM      8  C   UNL     1       0.750   9.102  20.325  0.00  0.00    +0.000 A 
ATOM      9  C   UNL     1       1.014   9.427  18.992  0.00  0.00    +0.000 A 
ATOM     10  C   UNL     1       0.384  10.458  18.320  0.00  0.00    +0.000 A 
ATOM     11  C   UNL     1      -0.527  11.225  19.039  0.00  0.00    +0.000 A 
ATOM     12  C   UNL     1      -0.760  10.958  20.401  0.00  0.00    +0.000 A 
ATOM     13  C   UNL     1      -0.118   9.892  21.071  0.00  0.00    +0.000 A 
ATOM     14  C   UNL     1       2.046   8.525  18.484  0.00  0.00    +0.000 C 
ATOM     15  O   UNL     1       2.496   8.590  17.355  0.00  0.00    +0.000 OA
ATOM     16  C   UNL     1       4.405   6.688  18.817  0.00  0.00    +0.000 A 
ENDROOT
BRANCH  13  17
ATOM     17  C   UNL     1      -0.360   9.686  22.543  0.00  0.00    +0.000 C 
ATOM     18  F   UNL     1      -1.017   8.530  22.835  0.00  0.00    +0.000 F 
ATOM     19  F   UNL     1       0.802   9.639  23.252  0.00  0.00    +0.000 F 
ATOM     20  F   UNL     1      -1.097  10.687  23.097  0.00  0.00    +0.000 F 
ENDBRANCH  13  17
BRANCH   1  22
ATOM     21  C   UNL     1       7.020   7.123  17.558  0.00  0.00    +0.000 C 
ATOM     22  C   UNL     1       6.701   5.761  18.209  0.00  0.00    +0.000 C 
BRANCH  22  23
ATOM     23  C   UNL     1       7.349   4.625  17.377  0.00  0.00    +0.000 C 
BRANCH  23  24
ATOM     24  C   UNL     1       7.036   4.709  15.923  0.00  0.00    +0.000 A 
ATOM     25  N   UNL     1       7.673   5.444  15.028  0.00  0.00    +0.000 NA
ATOM     26  N   UNL     1       7.152   5.156  13.793  0.00  0.00    +0.000 NA
ATOM     27  C   UNL     1       6.197   4.272  13.955  0.00  0.00    +0.000 A 
ATOM     28  N   UNL     1       6.043   4.013  15.281  0.00  0.00    +0.000 N 
ATOM     29  C   UNL     1       5.018   3.190  15.866  0.00  0.00    +0.000 C 
ENDBRANCH  23  24
ENDBRANCH  22  23
ENDBRANCH   1  22
BRANCH   3  30
ATOM     30  N   UNL     1       2.802   2.938  19.480  0.00  0.00    +0.000 N 
ATOM     31  H   UNL     1       2.810   2.441  18.592  0.00  0.00    +0.000 HD
BRANCH  30  32
ATOM     32  C   UNL     1       1.449   2.902  20.061  0.00  0.00    +0.000 C 
BRANCH  32  33
ATOM     33  C   UNL     1       1.465   2.692  21.584  0.00  0.00    +0.000 C 
BRANCH  33  34
ATOM     34  O   UNL     1       2.792   2.409  22.035  0.00  0.00    +0.000 OA
ATOM     35  H   UNL     1       2.732   1.583  22.549  0.00  0.00    +0.000 HD
ENDBRANCH  33  34
ENDBRANCH  32  33
ENDBRANCH  30  32
ENDBRANCH   3  30
TORSDOF 8
ENDMDL
MODEL 3
REMARK VINA RESULT:      -9.0      0.915      1.246
REMARK  Name = 
REMARK  10 active torsions:
REMARK  status: ('A' for Active; 'I' for Inactive)
REMARK    1  A    between atoms: C_1  and  C_2
REMARK    2  A    between atoms: C_2  and  C_3
REMARK    3  A    between atoms: C_2  and  C_10
REMARK    4  A    between atoms: C_3  and  C_4
REMARK    5  A    between atoms: N_8  and  C_9
REMARK    6  A    between atoms: C_12  and  N_13
REMARK    7  A    between atoms: N_13  and  C_14
REMARK    8  A    between atoms: C_14  and  C_15
REMARK    9  A    between atoms: C_15  and  O_16
REMARK   10  A    between atoms: C_26  and  C_27
REMARK                            x       y       z     vdW  Elec       q    Type
REMARK                         _______ _______ _______ _____ _____    ______ ____
ROOT
ATOM      1  C   UNL     1       5.402   5.081  18.929  0.00  0.00    +0.000 A 
ATOM      2  C   UNL     1       4.782   3.854  19.199  0.00  0.00    +0.000 A 
ATOM      3  C   UNL     1       3.445   3.804  19.615  0.00  0.00    +0.000 A 
ATOM      4  N   UNL     1       2.739   4.922  19.878  0.00  0.00    +0.000 NA
ATOM      5  C   UNL     1       3.295   6.099  19.538  0.00  0.00    +0.000 A 
ATOM      6  N   UNL     1       2.527   7.259  19.637  0.00  0.00    +0.000 N 
ATOM      7  C   UNL     1       1.674   7.543  20.769  0.00  0.00    +0.000 C 
ATOM      8  C   UNL     1       0.954   8.786  20.319  0.00  0.00    +0.000 A 
ATOM      9  C   UNL     1       1.285   9.052  18.988  0.00  0.00    +0.000 A 
ATOM     10  C   UNL     1       0.716  10.073  18.250  0.00  0.00    +0.000 A 
ATOM     11  C   UNL     1      -0.203  10.892  18.898  0.00  0.00    +0.000 A 
ATOM     12  C   UNL     1      -0.502  10.685  20.258  0.00  0.00    +0.000 A 
ATOM     13  C   UNL     1       0.078   9.628  20.996  0.00  0.00    +0.000 A 
ATOM     14  C   UNL     1       2.311   8.102  18.560  0.00  0.00    +0.000 C 
ATOM     15  O   UNL     1       2.812   8.110  17.451  0.00  0.00    +0.000 OA
ATOM     16  C   UNL     1       4.598   6.214  19.068  0.00  0.00    +0.000 A 
ENDROOT
BRANCH  13  17
ATOM     17  C   UNL     1      -0.234   9.487  22.462  0.00  0.00    +0.000 C 
ATOM     18  F   UNL     1      -0.961   8.376  22.764  0.00  0.00    +0.000 F 
ATOM     19  F   UNL     1       0.895   9.406  23.221  0.00  0.00    +0.000 F 
ATOM     20  F   UNL     1      -0.939  10.543  22.951  0.00  0.00    +0.000 F 
ENDBRANCH  13  17
BRANCH   1  22
ATOM     21  C   UNL     1       7.743   5.790  19.742  0.00  0.00    +0.000 C 
ATOM     22  C   UNL     1       6.890   5.201  18.598  0.00  0.00    +0.000 C 
BRANCH  22  23
ATOM     23  C   UNL     1       7.262   5.896  17.264  0.00  0.00    +0.000 C 
BRANCH  23  24
ATOM     24  C   UNL     1       6.711   5.203  16.066  0.00  0.00    +0.000 A 
ATOM     25  N   UNL     1       7.152   4.070  15.547  0.00  0.00    +0.000 NA
ATOM     26  N   UNL     1       6.310   3.713  14.526  0.00  0.00    +0.000 NA
ATOM     27  C   UNL     1       5.386   4.638  14.425  0.00  0.00    +0.000 A 
ATOM     28  N   UNL     1       5.636   5.626  15.325  0.00  0.00    +0.000 N 
ATOM     29  C   UNL     1       4.917   6.866  15.437  0.00  0.00    +0.000 C 
ENDBRANCH  23  24
ENDBRANCH  22  23
ENDBRANCH   1  22
BRANCH   3  30
ATOM     30  N   UNL     1       2.858   2.539  19.799  0.00  0.00    +0.000 N 
ATOM     31  H   UNL     1       3.574   1.848  20.011  0.00  0.00    +0.000 HD
BRANCH  30  32
ATOM     32  C   UNL     1       2.026   2.071  18.678  0.00  0.00    +0.000 C 
BRANCH  32  33
ATOM     33  C   UNL     1       0.521   2.184  18.972  0.00  0.00    +0.000 C 
BRANCH  33  34
ATOM     34  O   UNL     1       0.286   3.125  20.021  0.00  0.00    +0.000 OA
ATOM     35  H   UNL     1       1.158   3.500  20.248  0.00  0.00    +0.000 HD
ENDBRANCH  33  34
ENDBRANCH  32  33
ENDBRANCH  30  32
ENDBRANCH   3  30
TORSDOF 8
ENDMDL
MODEL 4
REMARK VINA RESULT:      -8.9      1.381      1.682
REMARK  Name = 
REMARK  10 active torsions:
REMARK  status: ('A' for Active; 'I' for Inactive)
REMARK    1  A    between atoms: C_1  and  C_2
REMARK    2  A    between atoms: C_2  and  C_3
REMARK    3  A    between atoms: C_2  and  C_10
REMARK    4  A    between atoms: C_3  and  C_4
REMARK    5  A    between atoms: N_8  and  C_9
REMARK    6  A    between atoms: C_12  and  N_13
REMARK    7  A    between atoms: N_13  and  C_14
REMARK    8  A    between atoms: C_14  and  C_15
REMARK    9  A    between atoms: C_15  and  O_16
REMARK   10  A    between atoms: C_26  and  C_27
REMARK                            x       y       z     vdW  Elec       q    Type
REMARK                         _______ _______ _______ _____ _____    ______ ____
ROOT
ATOM      1  C   UNL     1       4.385   5.221  17.558  0.00  0.00    +0.000 A 
ATOM      2  C   UNL     1       3.550   4.098  17.625  0.00  0.00    +0.000 A 
ATOM      3  C   UNL     1       2.271   4.191  18.188  0.00  0.00    +0.000 A 
ATOM      4  N   UNL     1       1.835   5.319  18.783  0.00  0.00    +0.000 NA
ATOM      5  C   UNL     1       2.592   6.423  18.646  0.00  0.00    +0.000 A 
ATOM      6  N   UNL     1       2.090   7.642  19.101  0.00  0.00    +0.000 N 
ATOM      7  C   UNL     1       1.411   7.791  20.368  0.00  0.00    +0.000 C 
ATOM      8  C   UNL     1       0.928   9.214  20.305  0.00  0.00    +0.000 A 
ATOM      9  C   UNL     1       1.196   9.733  19.035  0.00  0.00    +0.000 A 
ATOM     10  C   UNL     1       0.790  10.990  18.624  0.00  0.00    +0.000 A 
ATOM     11  C   UNL     1       0.117  11.777  19.552  0.00  0.00    +0.000 A 
ATOM     12  C   UNL     1      -0.105  11.302  20.858  0.00  0.00    +0.000 A 
ATOM     13  C   UNL     1       0.304  10.009  21.259  0.00  0.00    +0.000 A 
ATOM     14  C   UNL     1       1.965   8.747  18.277  0.00  0.00    +0.000 C 
ATOM     15  O   UNL     1       2.363   8.937  17.143  0.00  0.00    +0.000 OA
ATOM     16  C   UNL     1       3.847   6.412  18.049  0.00  0.00    +0.000 A 
ENDROOT
BRANCH  13  17
ATOM     17  C   UNL     1       0.091   9.572  22.684  0.00  0.00    +0.000 C 
ATOM     18  F   UNL     1       1.239   9.229  23.331  0.00  0.00    +0.000 F 
ATOM     19  F   UNL     1      -0.479  10.552  23.441  0.00  0.00    +0.000 F 
ATOM     20  F   UNL     1      -0.733   8.495  22.784  0.00  0.00    +0.000 F 
ENDBRANCH  13  17
BRANCH   1  22
ATOM     21  C   UNL     1       6.420   6.505  16.634  0.00  0.00    +0.000 C 
ATOM     22  C   UNL     1       5.834   5.147  17.073  0.00  0.00    +0.000 C 
BRANCH  22  23
ATOM     23  C   UNL     1       6.166   4.071  16.008  0.00  0.00    +0.000 C 
BRANCH  23  24
ATOM     24  C   UNL     1       6.832   4.629  14.797  0.00  0.00    +0.000 A 
ATOM     25  N   UNL     1       7.829   5.496  14.784  0.00  0.00    +0.000 NA
ATOM     26  N   UNL     1       8.227   5.668  13.483  0.00  0.00    +0.000 NA
ATOM     27  C   UNL     1       7.457   4.924  12.726  0.00  0.00    +0.000 A 
ATOM     28  N   UNL     1       6.524   4.307  13.499  0.00  0.00    +0.000 N 
ATOM     29  C   UNL     1       5.430   3.505  13.022  0.00  0.00    +0.000 C 
ENDBRANCH  23  24
ENDBRANCH  22  23
ENDBRANCH   1  22
BRANCH   3  30
ATOM     30  N   UNL     1       1.453   3.046  18.159  0.00  0.00    +0.000 N 
ATOM     31  H   UNL     1       0.480   3.308  18.306  0.00  0.00    +0.000 HD
BRANCH  30  32
ATOM     32  C   UNL     1       1.835   1.985  19.107  0.00  0.00    +0.000 C 
BRANCH  32  33
ATOM     33  C   UNL     1       1.883   2.482  20.561  0.00  0.00    +0.000 C 
BRANCH  33  34
ATOM     34  O   UNL     1       0.650   3.112  20.915  0.00  0.00    +0.000 OA
ATOM     35  H   UNL     1       0.871   3.774  21.597  0.00  0.00    +0.000 HD
ENDBRANCH  33  34
ENDBRANCH  32  33
ENDBRANCH  30  32
ENDBRANCH   3  30
TORSDOF 8
ENDMDL
MODEL 5
REMARK VINA RESULT:      -8.7      1.758      2.624
REMARK  Name = 
REMARK  10 active torsions:
REMARK  status: ('A' for Active; 'I' for Inactive)
REMARK    1  A    between atoms: C_1  and  C_2
REMARK    2  A    between atoms: C_2  and  C_3
REMARK    3  A    between atoms: C_2  and  C_10
REMARK    4  A    between atoms: C_3  and  C_4
REMARK    5  A    between atoms: N_8  and  C_9
REMARK    6  A    between atoms: C_12  and  N_13
REMARK    7  A    between atoms: N_13  and  C_14
REMARK    8  A    between atoms: C_14  and  C_15
REMARK    9  A    between atoms: C_15  and  O_16
REMARK   10  A    between atoms: C_26  and  C_27
REMARK                            x       y       z     vdW  Elec       q    Type
REMARK                         _______ _______ _______ _____ _____    ______ ____
ROOT
ATOM      1  C   UNL     1       4.201   4.920  17.132  0.00  0.00    +0.000 A 
ATOM      2  C   UNL     1       3.349   3.821  17.297  0.00  0.00    +0.000 A 
ATOM      3  C   UNL     1       2.142   3.950  17.996  0.00  0.00    +0.000 A 
ATOM      4  N   UNL     1       1.803   5.091  18.628  0.00  0.00    +0.000 NA
ATOM      5  C   UNL     1       2.570   6.174  18.402  0.00  0.00    +0.000 A 
ATOM      6  N   UNL     1       2.154   7.408  18.901  0.00  0.00    +0.000 N 
ATOM      7  C   UNL     1       1.621   7.579  20.234  0.00  0.00    +0.000 C 
ATOM      8  C   UNL     1       1.172   9.015  20.215  0.00  0.00    +0.000 A 
ATOM      9  C   UNL     1       1.314   9.523  18.920  0.00  0.00    +0.000 A 
ATOM     10  C   UNL     1       0.900  10.788  18.548  0.00  0.00    +0.000 A 
ATOM     11  C   UNL     1       0.353  11.597  19.538  0.00  0.00    +0.000 A 
ATOM     12  C   UNL     1       0.262  11.132  20.864  0.00  0.00    +0.000 A 
ATOM     13  C   UNL     1       0.678   9.830  21.227  0.00  0.00    +0.000 A 
ATOM     14  C   UNL     1       1.969   8.513  18.089  0.00  0.00    +0.000 C 
ATOM     15  O   UNL     1       2.246   8.688  16.917  0.00  0.00    +0.000 OA
ATOM     16  C   UNL     1       3.752   6.126  17.672  0.00  0.00    +0.000 A 
ENDROOT
BRANCH  13  17
ATOM     17  C   UNL     1       0.611   9.404  22.669  0.00  0.00    +0.000 C 
ATOM     18  F   UNL     1      -0.081   8.249  22.869  0.00  0.00    +0.000 F 
ATOM     19  F   UNL     1       1.848   9.188  23.198  0.00  0.00    +0.000 F 
ATOM     20  F   UNL     1       0.022  10.338  23.464  0.00  0.00    +0.000 F 
ENDBRANCH  13  17
BRANCH   1  22
ATOM     21  C   UNL     1       5.712   3.656  15.470  0.00  0.00    +0.000 C 
ATOM     22  C   UNL     1       5.586   4.804  16.493  0.00  0.00    +0.000 C 
BRANCH  22  23
ATOM     23  C   UNL     1       6.804   4.780  17.451  0.00  0.00    +0.000 C 
BRANCH  23  24
ATOM     24  C   UNL     1       7.423   6.120  17.649  0.00  0.00    +0.000 A 
ATOM     25  N   UNL     1       7.477   7.095  16.758  0.00  0.00    +0.000 NA
ATOM     26  N   UNL     1       8.025   8.196  17.365  0.00  0.00    +0.000 NA
ATOM     27  C   UNL     1       8.316   7.871  18.601  0.00  0.00    +0.000 A 
ATOM     28  N   UNL     1       8.019   6.559  18.805  0.00  0.00    +0.000 N 
ATOM     29  C   UNL     1       8.307   5.805  19.994  0.00  0.00    +0.000 C 
ENDBRANCH  23  24
ENDBRANCH  22  23
ENDBRANCH   1  22
BRANCH   3  30
ATOM     30  N   UNL     1       1.295   2.828  18.064  0.00  0.00    +0.000 N 
ATOM     31  H   UNL     1       0.555   2.905  17.369  0.00  0.00    +0.000 HD
BRANCH  30  32
ATOM     32  C   UNL     1       0.710   2.571  19.391  0.00  0.00    +0.000 C 
BRANCH  32  33
ATOM     33  C   UNL     1       1.777   2.448  20.492  0.00  0.00    +0.000 C 
BRANCH  33  34
ATOM     34  O   UNL     1       1.691   3.552  21.397  0.00  0.00    +0.000 OA
ATOM     35  H   UNL     1       2.608   3.836  21.564  0.00  0.00    +0.000 HD
ENDBRANCH  33  34
ENDBRANCH  32  33
ENDBRANCH  30  32
ENDBRANCH   3  30
TORSDOF 8
ENDMDL
MODEL 6
REMARK VINA RESULT:      -8.6      0.906      1.148
REMARK  Name = 
REMARK  10 active torsions:
REMARK  status: ('A' for Active; 'I' for Inactive)
REMARK    1  A    between atoms: C_1  and  C_2
REMARK    2  A    between atoms: C_2  and  C_3
REMARK    3  A    between atoms: C_2  and  C_10
REMARK    4  A    between atoms: C_3  and  C_4
REMARK    5  A    between atoms: N_8  and  C_9
REMARK    6  A    between atoms: C_12  and  N_13
REMARK    7  A    between atoms: N_13  and  C_14
REMARK    8  A    between atoms: C_14  and  C_15
REMARK    9  A    between atoms: C_15  and  O_16
REMARK   10  A    between atoms: C_26  and  C_27
REMARK                            x       y       z     vdW  Elec       q    Type
REMARK                         _______ _______ _______ _____ _____    ______ ____
ROOT
ATOM      1  C   UNL     1       5.517   4.725  19.186  0.00  0.00    +0.000 A 
ATOM      2  C   UNL     1       4.842   3.529  19.463  0.00  0.00    +0.000 A 
ATOM      3  C   UNL     1       3.482   3.537  19.799  0.00  0.00    +0.000 A 
ATOM      4  N   UNL     1       2.799   4.686  19.978  0.00  0.00    +0.000 NA
ATOM      5  C   UNL     1       3.414   5.831  19.630  0.00  0.00    +0.000 A 
ATOM      6  N   UNL     1       2.680   7.017  19.641  0.00  0.00    +0.000 N 
ATOM      7  C   UNL     1       1.772   7.371  20.708  0.00  0.00    +0.000 C 
ATOM      8  C   UNL     1       1.122   8.617  20.172  0.00  0.00    +0.000 A 
ATOM      9  C   UNL     1       1.541   8.822  18.854  0.00  0.00    +0.000 A 
ATOM     10  C   UNL     1       1.050   9.832  18.047  0.00  0.00    +0.000 A 
ATOM     11  C   UNL     1       0.123  10.704  18.608  0.00  0.00    +0.000 A 
ATOM     12  C   UNL     1      -0.263  10.558  19.954  0.00  0.00    +0.000 A 
ATOM     13  C   UNL     1       0.237   9.512  20.763  0.00  0.00    +0.000 A 
ATOM     14  C   UNL     1       2.558   7.825  18.524  0.00  0.00    +0.000 C 
ATOM     15  O   UNL     1       3.123   7.776  17.447  0.00  0.00    +0.000 OA
ATOM     16  C   UNL     1       4.746   5.887  19.236  0.00  0.00    +0.000 A 
ENDROOT
BRANCH  13  17
ATOM     17  C   UNL     1      -0.166   9.436  22.212  0.00  0.00    +0.000 C 
ATOM     18  F   UNL     1      -0.922   8.346  22.516  0.00  0.00    +0.000 F 
ATOM     19  F   UNL     1       0.913   9.379  23.042  0.00  0.00    +0.000 F 
ATOM     20  F   UNL     1      -0.888  10.518  22.612  0.00  0.00    +0.000 F 
ENDBRANCH  13  17
BRANCH   1  22
ATOM     21  C   UNL     1       7.727   5.974  19.631  0.00  0.00    +0.000 C 
ATOM     22  C   UNL     1       7.026   4.785  18.942  0.00  0.00    +0.000 C 
BRANCH  22  23
ATOM     23  C   UNL     1       7.506   4.681  17.472  0.00  0.00    +0.000 C 
BRANCH  23  24
ATOM     24  C   UNL     1       6.557   5.293  16.500  0.00  0.00    +0.000 A 
ATOM     25  N   UNL     1       6.374   6.585  16.294  0.00  0.00    +0.000 NA
ATOM     26  N   UNL     1       5.503   6.731  15.245  0.00  0.00    +0.000 NA
ATOM     27  C   UNL     1       5.154   5.532  14.844  0.00  0.00    +0.000 A 
ATOM     28  N   UNL     1       5.737   4.600  15.645  0.00  0.00    +0.000 N 
ATOM     29  C   UNL     1       5.502   3.183  15.597  0.00  0.00    +0.000 C 
ENDBRANCH  23  24
ENDBRANCH  22  23
ENDBRANCH   1  22
BRANCH   3  30
ATOM     30  N   UNL     1       2.842   2.299  19.993  0.00  0.00    +0.000 N 
ATOM     31  H   UNL     1       3.530   1.549  20.015  0.00  0.00    +0.000 HD
BRANCH  30  32
ATOM     32  C   UNL     1       1.789   1.983  19.013  0.00  0.00    +0.000 C 
BRANCH  32  33
ATOM     33  C   UNL     1       2.241   2.223  17.563  0.00  0.00    +0.000 C 
BRANCH  33  34
ATOM     34  O   UNL     1       1.800   3.505  17.108  0.00  0.00    +0.000 OA
ATOM     35  H   UNL     1       1.018   3.728  17.646  0.00  0.00    +0.000 HD
ENDBRANCH  33  34
ENDBRANCH  32  33
ENDBRANCH  30  32
ENDBRANCH   3  30
TORSDOF 8
ENDMDL
MODEL 7
REMARK VINA RESULT:      -8.6      1.331      1.564
REMARK  Name = 
REMARK  10 active torsions:
REMARK  status: ('A' for Active; 'I' for Inactive)
REMARK    1  A    between atoms: C_1  and  C_2
REMARK    2  A    between atoms: C_2  and  C_3
REMARK    3  A    between atoms: C_2  and  C_10
REMARK    4  A    between atoms: C_3  and  C_4
REMARK    5  A    between atoms: N_8  and  C_9
REMARK    6  A    between atoms: C_12  and  N_13
REMARK    7  A    between atoms: N_13  and  C_14
REMARK    8  A    between atoms: C_14  and  C_15
REMARK    9  A    between atoms: C_15  and  O_16
REMARK   10  A    between atoms: C_26  and  C_27
REMARK                            x       y       z     vdW  Elec       q    Type
REMARK                         _______ _______ _______ _____ _____    ______ ____
ROOT
ATOM      1  C   UNL     1       5.074   5.170  18.716  0.00  0.00    +0.000 A 
ATOM      2  C   UNL     1       4.343   3.977  18.790  0.00  0.00    +0.000 A 
ATOM      3  C   UNL     1       2.984   3.990  19.129  0.00  0.00    +0.000 A 
ATOM      4  N   UNL     1       2.354   5.121  19.503  0.00  0.00    +0.000 NA
ATOM      5  C   UNL     1       3.021   6.280  19.351  0.00  0.00    +0.000 A 
ATOM      6  N   UNL     1       2.342   7.479  19.565  0.00  0.00    +0.000 N 
ATOM      7  C   UNL     1       1.448   7.688  20.681  0.00  0.00    +0.000 C 
ATOM      8  C   UNL     1       0.857   9.036  20.367  0.00  0.00    +0.000 A 
ATOM      9  C   UNL     1       1.288   9.441  19.101  0.00  0.00    +0.000 A 
ATOM     10  C   UNL     1       0.847  10.594  18.478  0.00  0.00    +0.000 A 
ATOM     11  C   UNL     1      -0.041  11.399  19.183  0.00  0.00    +0.000 A 
ATOM     12  C   UNL     1      -0.437  11.046  20.487  0.00  0.00    +0.000 A 
ATOM     13  C   UNL     1       0.012   9.857  21.105  0.00  0.00    +0.000 A 
ATOM     14  C   UNL     1       2.260   8.469  18.602  0.00  0.00    +0.000 C 
ATOM     15  O   UNL     1       2.826   8.577  17.530  0.00  0.00    +0.000 OA
ATOM     16  C   UNL     1       4.355   6.341  18.965  0.00  0.00    +0.000 A 
ENDROOT
BRANCH  13  17
ATOM     17  C   UNL     1      -0.398   9.555  22.522  0.00  0.00    +0.000 C 
ATOM     18  F   UNL     1       0.644   9.498  23.396  0.00  0.00    +0.000 F 
ATOM     19  F   UNL     1      -1.246  10.498  23.022  0.00  0.00    +0.000 F 
ATOM     20  F   UNL     1      -1.051   8.367  22.637  0.00  0.00    +0.000 F 
ENDBRANCH  13  17
BRANCH   1  22
ATOM     21  C   UNL     1       7.405   5.638  19.711  0.00  0.00    +0.000 C 
ATOM     22  C   UNL     1       6.584   5.202  18.478  0.00  0.00    +0.000 C 
BRANCH  22  23
ATOM     23  C   UNL     1       7.084   5.967  17.227  0.00  0.00    +0.000 C 
BRANCH  23  24
ATOM     24  C   UNL     1       6.693   5.315  15.945  0.00  0.00    +0.000 A 
ATOM     25  N   UNL     1       7.296   4.285  15.377  0.00  0.00    +0.000 NA
ATOM     26  N   UNL     1       6.566   3.919  14.275  0.00  0.00    +0.000 NA
ATOM     27  C   UNL     1       5.549   4.741  14.177  0.00  0.00    +0.000 A 
ATOM     28  N   UNL     1       5.625   5.675  15.162  0.00  0.00    +0.000 N 
ATOM     29  C   UNL     1       4.760   6.814  15.313  0.00  0.00    +0.000 C 
ENDBRANCH  23  24
ENDBRANCH  22  23
ENDBRANCH   1  22
BRANCH   3  30
ATOM     30  N   UNL     1       2.288   2.767  19.114  0.00  0.00    +0.000 N 
ATOM     31  H   UNL     1       1.312   2.922  18.873  0.00  0.00    +0.000 HD
BRANCH  30  32
ATOM     32  C   UNL     1       2.378   1.986  20.359  0.00  0.00    +0.000 C 
BRANCH  32  33
ATOM     33  C   UNL     1       1.485   2.550  21.476  0.00  0.00    +0.000 C 
BRANCH  33  34
ATOM     34  O   UNL     1       2.220   3.467  22.289  0.00  0.00    +0.000 OA
ATOM     35  H   UNL     1       3.009   2.984  22.596  0.00  0.00    +0.000 HD
ENDBRANCH  33  34
ENDBRANCH  32  33
ENDBRANCH  30  32
ENDBRANCH   3  30
TORSDOF 8
ENDMDL
MODEL 8
REMARK VINA RESULT:      -8.6      4.458      9.346
REMARK  Name = 
REMARK  10 active torsions:
REMARK  status: ('A' for Active; 'I' for Inactive)
REMARK    1  A    between atoms: C_1  and  C_2
REMARK    2  A    between atoms: C_2  and  C_3
REMARK    3  A    between atoms: C_2  and  C_10
REMARK    4  A    between atoms: C_3  and  C_4
REMARK    5  A    between atoms: N_8  and  C_9
REMARK    6  A    between atoms: C_12  and  N_13
REMARK    7  A    between atoms: N_13  and  C_14
REMARK    8  A    between atoms: C_14  and  C_15
REMARK    9  A    between atoms: C_15  and  O_16
REMARK   10  A    between atoms: C_26  and  C_27
REMARK                            x       y       z     vdW  Elec       q    Type
REMARK                         _______ _______ _______ _____ _____    ______ ____
ROOT
ATOM      1  C   UNL     1       0.102  10.127  20.731  0.00  0.00    +0.000 A 
ATOM      2  C   UNL     1      -0.589  10.565  19.594  0.00  0.00    +0.000 A 
ATOM      3  C   UNL     1      -0.295  10.037  18.330  0.00  0.00    +0.000 A 
ATOM      4  N   UNL     1       0.727   9.179  18.137  0.00  0.00    +0.000 NA
ATOM      5  C   UNL     1       1.337   8.687  19.232  0.00  0.00    +0.000 A 
ATOM      6  N   UNL     1       2.280   7.672  19.076  0.00  0.00    +0.000 N 
ATOM      7  C   UNL     1       3.289   7.687  18.042  0.00  0.00    +0.000 C 
ATOM      8  C   UNL     1       3.918   6.328  18.191  0.00  0.00    +0.000 A 
ATOM      9  C   UNL     1       3.194   5.589  19.131  0.00  0.00    +0.000 A 
ATOM     10  C   UNL     1       3.459   4.265  19.427  0.00  0.00    +0.000 A 
ATOM     11  C   UNL     1       4.532   3.668  18.774  0.00  0.00    +0.000 A 
ATOM     12  C   UNL     1       5.317   4.412  17.874  0.00  0.00    +0.000 A 
ATOM     13  C   UNL     1       5.026   5.762  17.571  0.00  0.00    +0.000 A 
ATOM     14  C   UNL     1       2.171   6.452  19.721  0.00  0.00    +0.000 C 
ATOM     15  O   UNL     1       1.405   6.084  20.591  0.00  0.00    +0.000 OA
ATOM     16  C   UNL     1       1.054   9.129  20.519  0.00  0.00    +0.000 A 
ENDROOT
BRANCH  13  17
ATOM     17  C   UNL     1       5.932   6.527  16.644  0.00  0.00    +0.000 C 
ATOM     18  F   UNL     1       6.476   7.643  17.203  0.00  0.00    +0.000 F 
ATOM     19  F   UNL     1       6.987   5.775  16.221  0.00  0.00    +0.000 F 
ATOM     20  F   UNL     1       5.295   6.945  15.516  0.00  0.00    +0.000 F 
ENDBRANCH  13  17
BRANCH   1  22
ATOM     21  C   UNL     1      -0.199   9.740  23.262  0.00  0.00    +0.000 C 
ATOM     22  C   UNL     1      -0.089  10.761  22.110  0.00  0.00    +0.000 C 
BRANCH  22  23
ATOM     23  C   UNL     1      -1.211  11.820  22.248  0.00  0.00    +0.000 C 
BRANCH  23  24
ATOM     24  C   UNL     1      -0.699  13.181  22.575  0.00  0.00    +0.000 A 
ATOM     25  N   UNL     1       0.477  13.676  22.230  0.00  0.00    +0.000 NA
ATOM     26  N   UNL     1       0.518  14.989  22.623  0.00  0.00    +0.000 NA
ATOM     27  C   UNL     1      -0.618  15.266  23.217  0.00  0.00    +0.000 A 
ATOM     28  N   UNL     1      -1.385  14.144  23.271  0.00  0.00    +0.000 N 
ATOM     29  C   UNL     1      -2.646  14.017  23.950  0.00  0.00    +0.000 C 
ENDBRANCH  23  24
ENDBRANCH  22  23
ENDBRANCH   1  22
BRANCH   3  30
ATOM     30  N   UNL     1      -1.074  10.463  17.239  0.00  0.00    +0.000 N 
ATOM     31  H   UNL     1      -1.005  11.472  17.132  0.00  0.00    +0.000 HD
BRANCH  30  32
ATOM     32  C   UNL     1      -2.490  10.060  17.291  0.00  0.00    +0.000 C 
BRANCH  32  33
ATOM     33  C   UNL     1      -3.435  11.159  16.777  0.00  0.00    +0.000 C 
BRANCH  33  34
ATOM     34  O   UNL     1      -3.116  11.501  15.426  0.00  0.00    +0.000 OA
ATOM     35  H   UNL     1      -2.946  10.657  14.967  0.00  0.00    +0.000 HD
ENDBRANCH  33  34
ENDBRANCH  32  33
ENDBRANCH  30  32
ENDBRANCH   3  30
TORSDOF 8
ENDMDL
MODEL 9
REMARK VINA RESULT:      -8.5      4.478      9.447
REMARK  Name = 
REMARK  10 active torsions:
REMARK  status: ('A' for Active; 'I' for Inactive)
REMARK    1  A    between atoms: C_1  and  C_2
REMARK    2  A    between atoms: C_2  and  C_3
REMARK    3  A    between atoms: C_2  and  C_10
REMARK    4  A    between atoms: C_3  and  C_4
REMARK    5  A    between atoms: N_8  and  C_9
REMARK    6  A    between atoms: C_12  and  N_13
REMARK    7  A    between atoms: N_13  and  C_14
REMARK    8  A    between atoms: C_14  and  C_15
REMARK    9  A    between atoms: C_15  and  O_16
REMARK   10  A    between atoms: C_26  and  C_27
REMARK                            x       y       z     vdW  Elec       q    Type
REMARK                         _______ _______ _______ _____ _____    ______ ____
ROOT
ATOM      1  C   UNL     1       0.100   9.980  20.870  0.00  0.00    +0.000 A 
ATOM      2  C   UNL     1      -0.574  10.465  19.742  0.00  0.00    +0.000 A 
ATOM      3  C   UNL     1      -0.263   9.987  18.462  0.00  0.00    +0.000 A 
ATOM      4  N   UNL     1       0.761   9.136  18.249  0.00  0.00    +0.000 NA
ATOM      5  C   UNL     1       1.354   8.599  19.332  0.00  0.00    +0.000 A 
ATOM      6  N   UNL     1       2.298   7.589  19.148  0.00  0.00    +0.000 N 
ATOM      7  C   UNL     1       3.321   7.643  18.130  0.00  0.00    +0.000 C 
ATOM      8  C   UNL     1       3.946   6.279  18.233  0.00  0.00    +0.000 A 
ATOM      9  C   UNL     1       3.208   5.504  19.132  0.00  0.00    +0.000 A 
ATOM     10  C   UNL     1       3.466   4.168  19.378  0.00  0.00    +0.000 A 
ATOM     11  C   UNL     1       4.548   3.596  18.717  0.00  0.00    +0.000 A 
ATOM     12  C   UNL     1       5.347   4.374  17.858  0.00  0.00    +0.000 A 
ATOM     13  C   UNL     1       5.062   5.735  17.606  0.00  0.00    +0.000 A 
ATOM     14  C   UNL     1       2.178   6.344  19.742  0.00  0.00    +0.000 C 
ATOM     15  O   UNL     1       1.399   5.943  20.586  0.00  0.00    +0.000 OA
ATOM     16  C   UNL     1       1.053   8.989  20.632  0.00  0.00    +0.000 A 
ENDROOT
BRANCH  13  17
ATOM     17  C   UNL     1       5.982   6.536  16.723  0.00  0.00    +0.000 C 
ATOM     18  F   UNL     1       7.065   5.839  16.283  0.00  0.00    +0.000 F 
ATOM     19  F   UNL     1       5.352   6.986  15.601  0.00  0.00    +0.000 F 
ATOM     20  F   UNL     1       6.474   7.641  17.345  0.00  0.00    +0.000 F 
ENDBRANCH  13  17
BRANCH   1  22
ATOM     21  C   UNL     1       0.203   9.568  23.412  0.00  0.00    +0.000 C 
ATOM     22  C   UNL     1      -0.109  10.558  22.270  0.00  0.00    +0.000 C 
BRANCH  22  23
ATOM     23  C   UNL     1      -1.464  11.258  22.548  0.00  0.00    +0.000 C 
BRANCH  23  24
ATOM     24  C   UNL     1      -1.313  12.657  23.040  0.00  0.00    +0.000 A 
ATOM     25  N   UNL     1      -0.206  13.379  23.013  0.00  0.00    +0.000 NA
ATOM     26  N   UNL     1      -0.511  14.642  23.451  0.00  0.00    +0.000 NA
ATOM     27  C   UNL     1      -1.786  14.664  23.757  0.00  0.00    +0.000 A 
ATOM     28  N   UNL     1      -2.315  13.423  23.580  0.00  0.00    +0.000 N 
ATOM     29  C   UNL     1      -3.651  13.019  23.923  0.00  0.00    +0.000 C 
ENDBRANCH  23  24
ENDBRANCH  22  23
ENDBRANCH   1  22
BRANCH   3  30
ATOM     30  N   UNL     1      -1.026  10.458  17.378  0.00  0.00    +0.000 N 
ATOM     31  H   UNL     1      -0.930  11.468  17.294  0.00  0.00    +0.000 HD
BRANCH  30  32
ATOM     32  C   UNL     1      -2.452  10.092  17.416  0.00  0.00    +0.000 C 
BRANCH  32  33
ATOM     33  C   UNL     1      -3.373  11.270  17.057  0.00  0.00    +0.000 C 
BRANCH  33  34
ATOM     34  O   UNL     1      -3.691  12.030  18.225  0.00  0.00    +0.000 OA
ATOM     35  H   UNL     1      -2.864  12.471  18.494  0.00  0.00    +0.000 HD
ENDBRANCH  33  34
ENDBRANCH  32  33
ENDBRANCH  30  32
ENDBRANCH   3  30
TORSDOF 8
ENDMDL
