MODEL 1
REMARK VINA RESULT:      -9.1      0.000      0.000
REMARK  Name = 
REMARK  8 active torsions:
REMARK  status: ('A' for Active; 'I' for Inactive)
REMARK    1  A    between atoms: C_1  and  N_2
REMARK    2  A    between atoms: C_8  and  C_9
REMARK    3  A    between atoms: N_11  and  C_12
REMARK    4  A    between atoms: C_16  and  C_17
REMARK    5  A    between atoms: C_17  and  C_18
REMARK    6  A    between atoms: C_18  and  C_19
REMARK    7  A    between atoms: N_23  and  C_24
REMARK    8  A    between atoms: C_30  and  C_31
REMARK                            x       y       z     vdW  Elec       q    Type
REMARK                         _______ _______ _______ _____ _____    ______ ____
ROOT
ATOM      1  C   UNL     1       1.600   8.736  19.124  0.00  0.00    +0.000 C 
ATOM      2  O   UNL     1       1.633   8.373  20.297  0.00  0.00    +0.000 OA
ATOM      3  N   UNL     1       2.190   8.095  18.053  0.00  0.00    +0.000 N 
ATOM      4  H   UNL     1       2.193   8.613  17.177  0.00  0.00    +0.000 HD
ENDROOT
BRANCH   1  12
ATOM      5  C   UNL     1       3.961  16.509  20.718  0.00  0.00    +0.000 C 
ATOM      6  N   UNL     1       3.108  15.833  19.743  0.00  0.00    +0.000 NA
ATOM      7  C   UNL     1       1.775  15.529  20.324  0.00  0.00    +0.000 C 
ATOM      8  C   UNL     1       0.850  14.722  19.366  0.00  0.00    +0.000 C 
ATOM      9  N   UNL     1       1.573  13.521  18.957  0.00  0.00    +0.000 N 
ATOM     10  C   UNL     1       0.912  12.335  18.717  0.00  0.00    +0.000 A 
ATOM     11  C   UNL     1       1.598  11.170  18.934  0.00  0.00    +0.000 A 
ATOM     12  C   UNL     1       0.899  10.002  18.786  0.00  0.00    +0.000 A 
ATOM     13  N   UNL     1      -0.386   9.929  18.388  0.00  0.00    +0.000 NA
ATOM     14  C   UNL     1      -0.992  11.112  18.181  0.00  0.00    +0.000 A 
ATOM     15  N   UNL     1      -0.384  12.311  18.366  0.00  0.00    +0.000 NA
ATOM     16  C   UNL     1       2.861  13.789  18.306  0.00  0.00    +0.000 C 
ATOM     17  C   UNL     1       3.754  14.580  19.285  0.00  0.00    +0.000 C 
BRANCH  14  18
ATOM     18  C   UNL     1      -2.416  11.082  17.676  0.00  0.00    +0.000 C 
ATOM     19  C   UNL     1      -2.693  10.898  16.200  0.00  0.00    +0.000 C 
ATOM     20  C   UNL     1      -3.038   9.804  17.166  0.00  0.00    +0.000 C 
ENDBRANCH  14  18
ENDBRANCH   1  12
BRANCH   3  21
ATOM     21  C   UNL     1       2.919   6.895  18.132  0.00  0.00    +0.000 A 
ATOM     22  C   UNL     1       2.330   5.678  18.473  0.00  0.00    +0.000 A 
ATOM     23  C   UNL     1       3.102   4.530  18.595  0.00  0.00    +0.000 A 
ATOM     24  C   UNL     1       4.478   4.601  18.398  0.00  0.00    +0.000 A 
ATOM     25  C   UNL     1       5.122   5.811  18.065  0.00  0.00    +0.000 A 
ATOM     26  C   UNL     1       4.297   6.943  17.888  0.00  0.00    +0.000 A 
BRANCH  25  27
ATOM     27  C   UNL     1       6.717   5.890  17.961  0.00  0.00    +0.000 C 
ATOM     28  C   UNL     1       7.396   7.234  17.571  0.00  0.00    +0.000 C 
ATOM     29  O   UNL     1       8.347   7.095  18.666  0.00  0.00    +0.000 OA
ATOM     30  C   UNL     1       7.439   6.172  19.314  0.00  0.00    +0.000 C 
BRANCH  27  31
ATOM     31  C   UNL     1       7.303   4.670  17.228  0.00  0.00    +0.000 C 
BRANCH  31  32
ATOM     32  C   UNL     1       7.060   4.701  15.756  0.00  0.00    +0.000 A 
ATOM     33  N   UNL     1       7.705   5.452  14.879  0.00  0.00    +0.000 NA
ATOM     34  N   UNL     1       7.202   5.186  13.631  0.00  0.00    +0.000 NA
ATOM     35  C   UNL     1       6.264   4.277  13.762  0.00  0.00    +0.000 A 
ATOM     36  N   UNL     1       6.136   3.948  15.080  0.00  0.00    +0.000 N 
ATOM     37  C   UNL     1       5.210   2.988  15.612  0.00  0.00    +0.000 C 
ENDBRANCH  31  32
ENDBRANCH  27  31
ENDBRANCH  25  27
ENDBRANCH   3  21
TORSDOF 6
ENDMDL
MODEL 2
REMARK VINA RESULT:      -9.0      2.026      2.513
REMARK  Name = 
REMARK  8 active torsions:
REMARK  status: ('A' for Active; 'I' for Inactive)
REMARK    1  A    between atoms: C_1  and  N_2
REMARK    2  A    between atoms: C_8  and  C_9
REMARK    3  A    between atoms: N_11  and  C_12
REMARK    4  A    between atoms: C_16  and  C_17
REMARK    5  A    between atoms: C_17  and  C_18
REMARK    6  A    between atoms: C_18  and  C_19
REMARK    7  A    between atoms: N_23  and  C_24
REMARK    8  A    between atoms: C_30  and  C_31
REMARK                            x       y       z     vdW  Elec       q    Type
REMARK                         _______ _______ _______ _____ _____    ______ ____
ROOT
ATOM      1  C   UNL     1       2.045   8.492  18.235  0.00  0.00    +0.000 C 
ATOM      2  O   UNL     1       2.427   8.802  17.109  0.00  0.00    +0.000 OA
ATOM      3  N   UNL     1       2.059   7.224  18.782  0.00  0.00    +0.000 N 
ATOM      4  H   UNL     1       1.565   7.121  19.666  0.00  0.00    +0.000 HD
ENDROOT
BRANCH   1  12
ATOM      5  C   UNL     1       4.204  16.464  18.795  0.00  0.00    +0.000 C 
ATOM      6  N   UNL     1       3.011  15.662  19.058  0.00  0.00    +0.000 NA
ATOM      7  C   UNL     1       3.118  14.966  20.367  0.00  0.00    +0.000 C 
ATOM      8  C   UNL     1       1.919  14.018  20.664  0.00  0.00    +0.000 C 
ATOM      9  N   UNL     1       1.796  13.091  19.542  0.00  0.00    +0.000 N 
ATOM     10  C   UNL     1       1.369  11.794  19.729  0.00  0.00    +0.000 A 
ATOM     11  C   UNL     1       1.823  10.842  18.855  0.00  0.00    +0.000 A 
ATOM     12  C   UNL     1       1.470   9.545  19.111  0.00  0.00    +0.000 A 
ATOM     13  N   UNL     1       0.667   9.160  20.122  0.00  0.00    +0.000 NA
ATOM     14  C   UNL     1       0.248  10.149  20.933  0.00  0.00    +0.000 A 
ATOM     15  N   UNL     1       0.606  11.449  20.779  0.00  0.00    +0.000 NA
ATOM     16  C   UNL     1       1.610  13.746  18.242  0.00  0.00    +0.000 C 
ATOM     17  C   UNL     1       2.818  14.668  17.976  0.00  0.00    +0.000 C 
BRANCH  14  18
ATOM     18  C   UNL     1      -0.704   9.776  22.045  0.00  0.00    +0.000 C 
ATOM     19  C   UNL     1      -0.179   9.543  23.445  0.00  0.00    +0.000 C 
ATOM     20  C   UNL     1      -1.026  10.746  23.157  0.00  0.00    +0.000 C 
ENDBRANCH  14  18
ENDBRANCH   1  12
BRANCH   3  21
ATOM     21  C   UNL     1       2.538   6.071  18.136  0.00  0.00    +0.000 A 
ATOM     22  C   UNL     1       1.758   4.928  17.958  0.00  0.00    +0.000 A 
ATOM     23  C   UNL     1       2.294   3.793  17.364  0.00  0.00    +0.000 A 
ATOM     24  C   UNL     1       3.627   3.789  16.965  0.00  0.00    +0.000 A 
ATOM     25  C   UNL     1       4.460   4.914  17.135  0.00  0.00    +0.000 A 
ATOM     26  C   UNL     1       3.863   6.070  17.684  0.00  0.00    +0.000 A 
BRANCH  25  27
ATOM     27  C   UNL     1       6.018   4.843  16.777  0.00  0.00    +0.000 C 
ATOM     28  C   UNL     1       6.844   6.158  16.676  0.00  0.00    +0.000 C 
ATOM     29  O   UNL     1       7.900   5.581  17.498  0.00  0.00    +0.000 OA
ATOM     30  C   UNL     1       6.952   4.610  18.004  0.00  0.00    +0.000 C 
BRANCH  27  31
ATOM     31  C   UNL     1       6.297   3.853  15.633  0.00  0.00    +0.000 C 
BRANCH  31  32
ATOM     32  C   UNL     1       6.926   4.497  14.443  0.00  0.00    +0.000 A 
ATOM     33  N   UNL     1       7.870   5.424  14.473  0.00  0.00    +0.000 NA
ATOM     34  N   UNL     1       8.192   5.751  13.180  0.00  0.00    +0.000 NA
ATOM     35  C   UNL     1       7.447   5.020  12.383  0.00  0.00    +0.000 A 
ATOM     36  N   UNL     1       6.632   4.224  13.133  0.00  0.00    +0.000 N 
ATOM     37  C   UNL     1       5.675   3.287  12.614  0.00  0.00    +0.000 C 
ENDBRANCH  31  32
ENDBRANCH  27  31
ENDBRANCH  25  27
ENDBRANCH   3  21
TORSDOF 6
ENDMDL
MODEL 3
REMARK VINA RESULT:      -9.0      2.115      9.614
REMARK  Name = 
REMARK  8 active torsions:
REMARK  status: ('A' for Active; 'I' for Inactive)
REMARK    1  A    between atoms: C_1  and  N_2
REMARK    2  A    between atoms: C_8  and  C_9
REMARK    3  A    between atoms: N_11  and  C_12
REMARK    4  A    between atoms: C_16  and  C_17
REMARK    5  A    between atoms: C_17  and  C_18
REMARK    6  A    between atoms: C_18  and  C_19
REMARK    7  A    between atoms: N_23  and  C_24
REMARK    8  A    between atoms: C_30  and  C_31
REMARK                            x       y       z     vdW  Elec       q    Type
REMARK                         _______ _______ _______ _____ _____    ______ ____
ROOT
ATOM      1  C   UNL     1       1.832   8.779  18.414  0.00  0.00    +0.000 C 
ATOM      2  O   UNL     1       2.215   9.397  17.423  0.00  0.00    +0.000 OA
ATOM      3  N   UNL     1       0.906   9.214  19.342  0.00  0.00    +0.000 N 
ATOM      4  H   UNL     1       0.822   8.643  20.179  0.00  0.00    +0.000 HD
ENDROOT
BRANCH   1  12
ATOM      5  C   UNL     1       7.082   4.379  13.764  0.00  0.00    +0.000 C 
ATOM      6  N   UNL     1       6.736   4.475  15.181  0.00  0.00    +0.000 NA
ATOM      7  C   UNL     1       5.491   3.719  15.476  0.00  0.00    +0.000 C 
ATOM      8  C   UNL     1       5.016   3.861  16.952  0.00  0.00    +0.000 C 
ATOM      9  N   UNL     1       4.892   5.286  17.245  0.00  0.00    +0.000 N 
ATOM     10  C   UNL     1       3.924   5.759  18.105  0.00  0.00    +0.000 A 
ATOM     11  C   UNL     1       3.453   7.028  17.899  0.00  0.00    +0.000 A 
ATOM     12  C   UNL     1       2.425   7.447  18.699  0.00  0.00    +0.000 A 
ATOM     13  N   UNL     1       1.896   6.719  19.702  0.00  0.00    +0.000 NA
ATOM     14  C   UNL     1       2.416   5.487  19.855  0.00  0.00    +0.000 A 
ATOM     15  N   UNL     1       3.393   4.980  19.062  0.00  0.00    +0.000 NA
ATOM     16  C   UNL     1       6.128   6.050  17.039  0.00  0.00    +0.000 C 
ATOM     17  C   UNL     1       6.565   5.896  15.567  0.00  0.00    +0.000 C 
BRANCH  14  18
ATOM     18  C   UNL     1       1.898   4.655  21.004  0.00  0.00    +0.000 C 
ATOM     19  C   UNL     1       1.074   3.415  20.731  0.00  0.00    +0.000 C 
ATOM     20  C   UNL     1       2.459   3.283  21.292  0.00  0.00    +0.000 C 
ENDBRANCH  14  18
ENDBRANCH   1  12
BRANCH   3  21
ATOM     21  C   UNL     1       0.229  10.445  19.290  0.00  0.00    +0.000 A 
ATOM     22  C   UNL     1      -0.947  10.627  18.563  0.00  0.00    +0.000 A 
ATOM     23  C   UNL     1      -1.549  11.877  18.495  0.00  0.00    +0.000 A 
ATOM     24  C   UNL     1      -0.959  12.960  19.139  0.00  0.00    +0.000 A 
ATOM     25  C   UNL     1       0.237  12.831  19.875  0.00  0.00    +0.000 A 
ATOM     26  C   UNL     1       0.785  11.533  19.974  0.00  0.00    +0.000 A 
BRANCH  25  27
ATOM     27  C   UNL     1       0.956  14.114  20.504  0.00  0.00    +0.000 C 
ATOM     28  C   UNL     1       0.646  14.525  21.973  0.00  0.00    +0.000 C 
ATOM     29  O   UNL     1       2.068  14.676  22.253  0.00  0.00    +0.000 OA
ATOM     30  C   UNL     1       2.363  13.831  21.114  0.00  0.00    +0.000 C 
BRANCH  27  31
ATOM     31  C   UNL     1       0.970  15.300  19.525  0.00  0.00    +0.000 C 
BRANCH  31  32
ATOM     32  C   UNL     1       2.291  15.492  18.858  0.00  0.00    +0.000 A 
ATOM     33  N   UNL     1       2.771  14.762  17.865  0.00  0.00    +0.000 NA
ATOM     34  N   UNL     1       4.003  15.260  17.523  0.00  0.00    +0.000 NA
ATOM     35  C   UNL     1       4.254  16.284  18.304  0.00  0.00    +0.000 A 
ATOM     36  N   UNL     1       3.209  16.462  19.163  0.00  0.00    +0.000 N 
ATOM     37  C   UNL     1       3.123  17.485  20.168  0.00  0.00    +0.000 C 
ENDBRANCH  31  32
ENDBRANCH  27  31
ENDBRANCH  25  27
ENDBRANCH   3  21
TORSDOF 6
ENDMDL
MODEL 4
REMARK VINA RESULT:      -8.9      3.535     10.732
REMARK  Name = 
REMARK  8 active torsions:
REMARK  status: ('A' for Active; 'I' for Inactive)
REMARK    1  A    between atoms: C_1  and  N_2
REMARK    2  A    between atoms: C_8  and  C_9
REMARK    3  A    between atoms: N_11  and  C_12
REMARK    4  A    between atoms: C_16  and  C_17
REMARK    5  A    between atoms: C_17  and  C_18
REMARK    6  A    between atoms: C_18  and  C_19
REMARK    7  A    between atoms: N_23  and  C_24
REMARK    8  A    between atoms: C_30  and  C_31
REMARK                            x       y       z     vdW  Elec       q    Type
REMARK                         _______ _______ _______ _____ _____    ______ ____
ROOT
ATOM      1  C   UNL     1       1.679   8.757  18.728  0.00  0.00    +0.000 C 
ATOM      2  O   UNL     1       2.287   9.621  18.102  0.00  0.00    +0.000 OA
ATOM      3  N   UNL     1       0.417   8.879  19.275  0.00  0.00    +0.000 N 
ATOM      4  H   UNL     1       0.129   8.122  19.891  0.00  0.00    +0.000 HD
ENDROOT
BRANCH   1  12
ATOM      5  C   UNL     1       7.172   4.795  13.967  0.00  0.00    +0.000 C 
ATOM      6  N   UNL     1       6.820   4.829  15.385  0.00  0.00    +0.000 NA
ATOM      7  C   UNL     1       5.618   3.997  15.653  0.00  0.00    +0.000 C 
ATOM      8  C   UNL     1       5.133   4.068  17.131  0.00  0.00    +0.000 C 
ATOM      9  N   UNL     1       4.929   5.475  17.466  0.00  0.00    +0.000 N 
ATOM     10  C   UNL     1       3.936   5.868  18.337  0.00  0.00    +0.000 A 
ATOM     11  C   UNL     1       3.395   7.115  18.167  0.00  0.00    +0.000 A 
ATOM     12  C   UNL     1       2.344   7.451  18.976  0.00  0.00    +0.000 A 
ATOM     13  N   UNL     1       1.855   6.666  19.954  0.00  0.00    +0.000 NA
ATOM     14  C   UNL     1       2.442   5.461  20.073  0.00  0.00    +0.000 A 
ATOM     15  N   UNL     1       3.447   5.033  19.269  0.00  0.00    +0.000 NA
ATOM     16  C   UNL     1       6.122   6.312  17.287  0.00  0.00    +0.000 C 
ATOM     17  C   UNL     1       6.569   6.226  15.812  0.00  0.00    +0.000 C 
BRANCH  14  18
ATOM     18  C   UNL     1       1.969   4.567  21.195  0.00  0.00    +0.000 C 
ATOM     19  C   UNL     1       1.104   3.363  20.892  0.00  0.00    +0.000 C 
ATOM     20  C   UNL     1       2.514   3.169  21.365  0.00  0.00    +0.000 C 
ENDBRANCH  14  18
ENDBRANCH   1  12
BRANCH   3  21
ATOM     21  C   UNL     1      -0.394  10.023  19.186  0.00  0.00    +0.000 A 
ATOM     22  C   UNL     1      -0.924  10.478  17.978  0.00  0.00    +0.000 A 
ATOM     23  C   UNL     1      -1.673  11.647  17.931  0.00  0.00    +0.000 A 
ATOM     24  C   UNL     1      -1.874  12.382  19.096  0.00  0.00    +0.000 A 
ATOM     25  C   UNL     1      -1.348  11.972  20.338  0.00  0.00    +0.000 A 
ATOM     26  C   UNL     1      -0.647  10.747  20.358  0.00  0.00    +0.000 A 
BRANCH  25  27
ATOM     27  C   UNL     1      -1.493  12.896  21.636  0.00  0.00    +0.000 C 
ATOM     28  C   UNL     1      -1.349  12.263  23.050  0.00  0.00    +0.000 C 
ATOM     29  O   UNL     1      -0.450  13.335  23.460  0.00  0.00    +0.000 OA
ATOM     30  C   UNL     1      -0.179  13.617  22.066  0.00  0.00    +0.000 C 
BRANCH  27  31
ATOM     31  C   UNL     1      -2.681  13.867  21.517  0.00  0.00    +0.000 C 
BRANCH  31  32
ATOM     32  C   UNL     1      -3.890  13.406  22.261  0.00  0.00    +0.000 A 
ATOM     33  N   UNL     1      -4.711  12.441  21.882  0.00  0.00    +0.000 NA
ATOM     34  N   UNL     1      -5.688  12.309  22.836  0.00  0.00    +0.000 NA
ATOM     35  C   UNL     1      -5.448  13.188  23.781  0.00  0.00    +0.000 A 
ATOM     36  N   UNL     1      -4.332  13.904  23.458  0.00  0.00    +0.000 N 
ATOM     37  C   UNL     1      -3.759  14.956  24.250  0.00  0.00    +0.000 C 
ENDBRANCH  31  32
ENDBRANCH  27  31
ENDBRANCH  25  27
ENDBRANCH   3  21
TORSDOF 6
ENDMDL
MODEL 5
REMARK VINA RESULT:      -8.8      2.311      9.644
REMARK  Name = 
REMARK  8 active torsions:
REMARK  status: ('A' for Active; 'I' for Inactive)
REMARK    1  A    between atoms: C_1  and  N_2
REMARK    2  A    between atoms: C_8  and  C_9
REMARK    3  A    between atoms: N_11  and  C_12
REMARK    4  A    between atoms: C_16  and  C_17
REMARK    5  A    between atoms: C_17  and  C_18
REMARK    6  A    between atoms: C_18  and  C_19
REMARK    7  A    between atoms: N_23  and  C_24
REMARK    8  A    between atoms: C_30  and  C_31
REMARK                            x       y       z     vdW  Elec       q    Type
REMARK                         _______ _______ _______ _____ _____    ______ ____
ROOT
ATOM      1  C   UNL     1       1.852   8.793  18.450  0.00  0.00    +0.000 C 
ATOM      2  O   UNL     1       2.057   9.318  17.358  0.00  0.00    +0.000 OA
ATOM      3  N   UNL     1       1.087   9.313  19.476  0.00  0.00    +0.000 N 
ATOM      4  H   UNL     1       1.149   8.820  20.363  0.00  0.00    +0.000 HD
ENDROOT
BRANCH   1  12
ATOM      5  C   UNL     1       7.427   4.656  13.939  0.00  0.00    +0.000 C 
ATOM      6  N   UNL     1       7.041   4.735  15.346  0.00  0.00    +0.000 NA
ATOM      7  C   UNL     1       5.826   3.919  15.610  0.00  0.00    +0.000 C 
ATOM      8  C   UNL     1       5.307   4.037  17.073  0.00  0.00    +0.000 C 
ATOM      9  N   UNL     1       5.106   5.454  17.362  0.00  0.00    +0.000 N 
ATOM     10  C   UNL     1       4.095   5.879  18.197  0.00  0.00    +0.000 A 
ATOM     11  C   UNL     1       3.569   7.124  17.978  0.00  0.00    +0.000 A 
ATOM     12  C   UNL     1       2.501   7.491  18.751  0.00  0.00    +0.000 A 
ATOM     13  N   UNL     1       1.983   6.738  19.740  0.00  0.00    +0.000 NA
ATOM     14  C   UNL     1       2.557   5.533  19.908  0.00  0.00    +0.000 A 
ATOM     15  N   UNL     1       3.578   5.074  19.140  0.00  0.00    +0.000 NA
ATOM     16  C   UNL     1       6.309   6.277  17.187  0.00  0.00    +0.000 C 
ATOM     17  C   UNL     1       6.791   6.145  15.727  0.00  0.00    +0.000 C 
BRANCH  14  18
ATOM     18  C   UNL     1       2.050   4.676  21.043  0.00  0.00    +0.000 C 
ATOM     19  C   UNL     1       1.107   3.526  20.763  0.00  0.00    +0.000 C 
ATOM     20  C   UNL     1       2.511   3.247  21.211  0.00  0.00    +0.000 C 
ENDBRANCH  14  18
ENDBRANCH   1  12
BRANCH   3  21
ATOM     21  C   UNL     1       0.395  10.535  19.427  0.00  0.00    +0.000 A 
ATOM     22  C   UNL     1      -0.972  10.616  19.157  0.00  0.00    +0.000 A 
ATOM     23  C   UNL     1      -1.601  11.851  19.062  0.00  0.00    +0.000 A 
ATOM     24  C   UNL     1      -0.855  13.016  19.215  0.00  0.00    +0.000 A 
ATOM     25  C   UNL     1       0.531  12.987  19.475  0.00  0.00    +0.000 A 
ATOM     26  C   UNL     1       1.122  11.714  19.627  0.00  0.00    +0.000 A 
BRANCH  25  27
ATOM     27  C   UNL     1       1.384  14.339  19.527  0.00  0.00    +0.000 C 
ATOM     28  C   UNL     1       0.950  15.556  18.659  0.00  0.00    +0.000 C 
ATOM     29  O   UNL     1       1.096  16.449  19.801  0.00  0.00    +0.000 OA
ATOM     30  C   UNL     1       0.990  15.307  20.685  0.00  0.00    +0.000 C 
BRANCH  27  31
ATOM     31  C   UNL     1       2.897  14.063  19.484  0.00  0.00    +0.000 C 
BRANCH  31  32
ATOM     32  C   UNL     1       3.587  14.385  20.767  0.00  0.00    +0.000 A 
ATOM     33  N   UNL     1       3.596  13.630  21.853  0.00  0.00    +0.000 NA
ATOM     34  N   UNL     1       4.346  14.263  22.811  0.00  0.00    +0.000 NA
ATOM     35  C   UNL     1       4.786  15.389  22.298  0.00  0.00    +0.000 A 
ATOM     36  N   UNL     1       4.328  15.510  21.018  0.00  0.00    +0.000 N 
ATOM     37  C   UNL     1       4.601  16.611  20.137  0.00  0.00    +0.000 C 
ENDBRANCH  31  32
ENDBRANCH  27  31
ENDBRANCH  25  27
ENDBRANCH   3  21
TORSDOF 6
ENDMDL
MODEL 6
REMARK VINA RESULT:      -8.7      2.940     10.135
REMARK  Name = 
REMARK  8 active torsions:
REMARK  status: ('A' for Active; 'I' for Inactive)
REMARK    1  A    between atoms: C_1  and  N_2
REMARK    2  A    between atoms: C_8  and  C_9
REMARK    3  A    between atoms: N_11  and  C_12
REMARK    4  A    between atoms: C_16  and  C_17
REMARK    5  A    between atoms: C_17  and  C_18
REMARK    6  A    between atoms: C_18  and  C_19
REMARK    7  A    between atoms: N_23  and  C_24
REMARK    8  A    between atoms: C_30  and  C_31
REMARK                            x       y       z     vdW  Elec       q    Type
REMARK                         _______ _______ _______ _____ _____    ______ ____
ROOT
ATOM      1  C   UNL     1       1.820   8.770  18.354  0.00  0.00    +0.000 C 
ATOM      2  O   UNL     1       2.286   9.477  17.463  0.00  0.00    +0.000 OA
ATOM      3  N   UNL     1       0.735   9.071  19.153  0.00  0.00    +0.000 N 
ATOM      4  H   UNL     1       0.581   8.444  19.939  0.00  0.00    +0.000 HD
ENDROOT
BRANCH   1  12
ATOM      5  C   UNL     1       7.160   4.496  13.689  0.00  0.00    +0.000 C 
ATOM      6  N   UNL     1       6.843   4.613  15.111  0.00  0.00    +0.000 NA
ATOM      7  C   UNL     1       5.642   3.809  15.455  0.00  0.00    +0.000 C 
ATOM      8  C   UNL     1       5.195   3.967  16.938  0.00  0.00    +0.000 C 
ATOM      9  N   UNL     1       5.011   5.393  17.198  0.00  0.00    +0.000 N 
ATOM     10  C   UNL     1       4.043   5.843  18.070  0.00  0.00    +0.000 A 
ATOM     11  C   UNL     1       3.509   7.083  17.844  0.00  0.00    +0.000 A 
ATOM     12  C   UNL     1       2.481   7.474  18.658  0.00  0.00    +0.000 A 
ATOM     13  N   UNL     1       2.010   6.750  19.691  0.00  0.00    +0.000 NA
ATOM     14  C   UNL     1       2.590   5.548  19.863  0.00  0.00    +0.000 A 
ATOM     15  N   UNL     1       3.571   5.066  19.059  0.00  0.00    +0.000 NA
ATOM     16  C   UNL     1       6.206   6.206  16.943  0.00  0.00    +0.000 C 
ATOM     17  C   UNL     1       6.615   6.034  15.465  0.00  0.00    +0.000 C 
BRANCH  14  18
ATOM     18  C   UNL     1       2.138   4.723  21.045  0.00  0.00    +0.000 C 
ATOM     19  C   UNL     1       1.120   3.619  20.854  0.00  0.00    +0.000 C 
ATOM     20  C   UNL     1       2.541   3.274  21.188  0.00  0.00    +0.000 C 
ENDBRANCH  14  18
ENDBRANCH   1  12
BRANCH   3  21
ATOM     21  C   UNL     1      -0.033  10.244  19.062  0.00  0.00    +0.000 A 
ATOM     22  C   UNL     1      -1.095  10.382  18.168  0.00  0.00    +0.000 A 
ATOM     23  C   UNL     1      -1.789  11.581  18.074  0.00  0.00    +0.000 A 
ATOM     24  C   UNL     1      -1.405  12.661  18.863  0.00  0.00    +0.000 A 
ATOM     25  C   UNL     1      -0.330  12.577  19.772  0.00  0.00    +0.000 A 
ATOM     26  C   UNL     1       0.310  11.324  19.885  0.00  0.00    +0.000 A 
BRANCH  25  27
ATOM     27  C   UNL     1       0.165  13.867  20.579  0.00  0.00    +0.000 C 
ATOM     28  C   UNL     1       1.488  14.573  20.163  0.00  0.00    +0.000 C 
ATOM     29  O   UNL     1       0.833  15.874  20.210  0.00  0.00    +0.000 OA
ATOM     30  C   UNL     1      -0.450  15.213  20.085  0.00  0.00    +0.000 C 
BRANCH  27  31
ATOM     31  C   UNL     1       0.020  13.681  22.100  0.00  0.00    +0.000 C 
BRANCH  31  32
ATOM     32  C   UNL     1      -1.375  13.360  22.519  0.00  0.00    +0.000 A 
ATOM     33  N   UNL     1      -2.396  14.200  22.523  0.00  0.00    +0.000 NA
ATOM     34  N   UNL     1      -3.507  13.526  22.961  0.00  0.00    +0.000 NA
ATOM     35  C   UNL     1      -3.151  12.288  23.215  0.00  0.00    +0.000 A 
ATOM     36  N   UNL     1      -1.819  12.140  22.958  0.00  0.00    +0.000 N 
ATOM     37  C   UNL     1      -1.070  10.925  23.118  0.00  0.00    +0.000 C 
ENDBRANCH  31  32
ENDBRANCH  27  31
ENDBRANCH  25  27
ENDBRANCH   3  21
TORSDOF 6
ENDMDL
MODEL 7
REMARK VINA RESULT:      -8.7      2.489     10.171
REMARK  Name = 
REMARK  8 active torsions:
REMARK  status: ('A' for Active; 'I' for Inactive)
REMARK    1  A    between atoms: C_1  and  N_2
REMARK    2  A    between atoms: C_8  and  C_9
REMARK    3  A    between atoms: N_11  and  C_12
REMARK    4  A    between atoms: C_16  and  C_17
REMARK    5  A    between atoms: C_17  and  C_18
REMARK    6  A    between atoms: C_18  and  C_19
REMARK    7  A    between atoms: N_23  and  C_24
REMARK    8  A    between atoms: C_30  and  C_31
REMARK                            x       y       z     vdW  Elec       q    Type
REMARK                         _______ _______ _______ _____ _____    ______ ____
ROOT
ATOM      1  C   UNL     1       1.913   8.742  18.414  0.00  0.00    +0.000 C 
ATOM      2  O   UNL     1       2.197   9.307  17.361  0.00  0.00    +0.000 OA
ATOM      3  N   UNL     1       1.097   9.235  19.413  0.00  0.00    +0.000 N 
ATOM      4  H   UNL     1       1.093   8.703  20.280  0.00  0.00    +0.000 HD
ENDROOT
BRANCH   1  12
ATOM      5  C   UNL     1       7.030   4.292  13.665  0.00  0.00    +0.000 C 
ATOM      6  N   UNL     1       6.724   4.402  15.090  0.00  0.00    +0.000 NA
ATOM      7  C   UNL     1       5.487   3.650  15.427  0.00  0.00    +0.000 C 
ATOM      8  C   UNL     1       5.052   3.807  16.914  0.00  0.00    +0.000 C 
ATOM      9  N   UNL     1       4.937   5.235  17.196  0.00  0.00    +0.000 N 
ATOM     10  C   UNL     1       3.994   5.717  18.078  0.00  0.00    +0.000 A 
ATOM     11  C   UNL     1       3.518   6.985  17.872  0.00  0.00    +0.000 A 
ATOM     12  C   UNL     1       2.513   7.412  18.696  0.00  0.00    +0.000 A 
ATOM     13  N   UNL     1       2.012   6.694  19.720  0.00  0.00    +0.000 NA
ATOM     14  C   UNL     1       2.534   5.464  19.872  0.00  0.00    +0.000 A 
ATOM     15  N   UNL     1       3.490   4.948  19.057  0.00  0.00    +0.000 NA
ATOM     16  C   UNL     1       6.168   5.996  16.949  0.00  0.00    +0.000 C 
ATOM     17  C   UNL     1       6.564   5.827  15.466  0.00  0.00    +0.000 C 
BRANCH  14  18
ATOM     18  C   UNL     1       2.048   4.644  21.043  0.00  0.00    +0.000 C 
ATOM     19  C   UNL     1       1.112   3.476  20.814  0.00  0.00    +0.000 C 
ATOM     20  C   UNL     1       2.523   3.226  21.256  0.00  0.00    +0.000 C 
ENDBRANCH  14  18
ENDBRANCH   1  12
BRANCH   3  21
ATOM     21  C   UNL     1       0.437  10.475  19.377  0.00  0.00    +0.000 A 
ATOM     22  C   UNL     1      -0.924  10.596  19.096  0.00  0.00    +0.000 A 
ATOM     23  C   UNL     1      -1.520  11.848  19.014  0.00  0.00    +0.000 A 
ATOM     24  C   UNL     1      -0.747  12.991  19.191  0.00  0.00    +0.000 A 
ATOM     25  C   UNL     1       0.635  12.922  19.463  0.00  0.00    +0.000 A 
ATOM     26  C   UNL     1       1.193  11.633  19.601  0.00  0.00    +0.000 A 
BRANCH  25  27
ATOM     27  C   UNL     1       1.522  14.251  19.543  0.00  0.00    +0.000 C 
ATOM     28  C   UNL     1       2.436  14.639  18.344  0.00  0.00    +0.000 C 
ATOM     29  O   UNL     1       1.946  16.011  18.388  0.00  0.00    +0.000 OA
ATOM     30  C   UNL     1       0.778  15.552  19.111  0.00  0.00    +0.000 C 
BRANCH  27  31
ATOM     31  C   UNL     1       2.211  14.398  20.912  0.00  0.00    +0.000 C 
BRANCH  31  32
ATOM     32  C   UNL     1       1.322  14.994  21.952  0.00  0.00    +0.000 A 
ATOM     33  N   UNL     1       0.355  14.363  22.598  0.00  0.00    +0.000 NA
ATOM     34  N   UNL     1      -0.220  15.245  23.477  0.00  0.00    +0.000 NA
ATOM     35  C   UNL     1       0.403  16.394  23.360  0.00  0.00    +0.000 A 
ATOM     36  N   UNL     1       1.375  16.284  22.408  0.00  0.00    +0.000 N 
ATOM     37  C   UNL     1       2.265  17.336  22.002  0.00  0.00    +0.000 C 
ENDBRANCH  31  32
ENDBRANCH  27  31
ENDBRANCH  25  27
ENDBRANCH   3  21
TORSDOF 6
ENDMDL
MODEL 8
REMARK VINA RESULT:      -8.7      1.090      1.090
REMARK  Name = 
REMARK  8 active torsions:
REMARK  status: ('A' for Active; 'I' for Inactive)
REMARK    1  A    between atoms: C_1  and  N_2
REMARK    2  A    between atoms: C_8  and  C_9
REMARK    3  A    between atoms: N_11  and  C_12
REMARK    4  A    between atoms: C_16  and  C_17
REMARK    5  A    between atoms: C_17  and  C_18
REMARK    6  A    between atoms: C_18  and  C_19
REMARK    7  A    between atoms: N_23  and  C_24
REMARK    8  A    between atoms: C_30  and  C_31
REMARK                            x       y       z     vdW  Elec       q    Type
REMARK                         _______ _______ _______ _____ _____    ______ ____
ROOT
ATOM      1  C   UNL     1       2.091   8.633  18.086  0.00  0.00    +0.000 C 
ATOM      2  O   UNL     1       2.754   8.570  17.053  0.00  0.00    +0.000 OA
ATOM      3  N   UNL     1       2.099   7.717  19.120  0.00  0.00    +0.000 N 
ATOM      4  H   UNL     1       1.378   7.844  19.826  0.00  0.00    +0.000 HD
ENDROOT
BRANCH   1  12
ATOM      5  C   UNL     1       3.220  15.629  22.367  0.00  0.00    +0.000 C 
ATOM      6  N   UNL     1       2.400  15.189  21.239  0.00  0.00    +0.000 NA
ATOM      7  C   UNL     1       1.208  14.438  21.711  0.00  0.00    +0.000 C 
ATOM      8  C   UNL     1       0.343  13.859  20.553  0.00  0.00    +0.000 C 
ATOM      9  N   UNL     1       1.216  13.054  19.704  0.00  0.00    +0.000 N 
ATOM     10  C   UNL     1       0.750  11.925  19.064  0.00  0.00    +0.000 A 
ATOM     11  C   UNL     1       1.647  10.921  18.811  0.00  0.00    +0.000 A 
ATOM     12  C   UNL     1       1.150   9.769  18.264  0.00  0.00    +0.000 A 
ATOM     13  N   UNL     1      -0.137   9.587  17.911  0.00  0.00    +0.000 NA
ATOM     14  C   UNL     1      -0.958  10.619  18.176  0.00  0.00    +0.000 A 
ATOM     15  N   UNL     1      -0.551  11.769  18.772  0.00  0.00    +0.000 NA
ATOM     16  C   UNL     1       2.363  13.788  19.157  0.00  0.00    +0.000 C 
ATOM     17  C   UNL     1       3.203  14.338  20.329  0.00  0.00    +0.000 C 
BRANCH  14  18
ATOM     18  C   UNL     1      -2.399  10.488  17.744  0.00  0.00    +0.000 C 
ATOM     19  C   UNL     1      -2.850  11.069  16.421  0.00  0.00    +0.000 C 
ATOM     20  C   UNL     1      -2.794   9.582  16.602  0.00  0.00    +0.000 C 
ENDBRANCH  14  18
ENDBRANCH   1  12
BRANCH   3  21
ATOM     21  C   UNL     1       2.893   6.557  19.164  0.00  0.00    +0.000 A 
ATOM     22  C   UNL     1       2.448   5.362  19.728  0.00  0.00    +0.000 A 
ATOM     23  C   UNL     1       3.289   4.259  19.801  0.00  0.00    +0.000 A 
ATOM     24  C   UNL     1       4.594   4.357  19.327  0.00  0.00    +0.000 A 
ATOM     25  C   UNL     1       5.095   5.548  18.761  0.00  0.00    +0.000 A 
ATOM     26  C   UNL     1       4.192   6.627  18.647  0.00  0.00    +0.000 A 
BRANCH  25  27
ATOM     27  C   UNL     1       6.633   5.670  18.335  0.00  0.00    +0.000 C 
ATOM     28  C   UNL     1       7.175   7.024  17.792  0.00  0.00    +0.000 C 
ATOM     29  O   UNL     1       8.332   6.937  18.675  0.00  0.00    +0.000 OA
ATOM     30  C   UNL     1       7.604   6.004  19.509  0.00  0.00    +0.000 C 
BRANCH  27  31
ATOM     31  C   UNL     1       7.098   4.451  17.519  0.00  0.00    +0.000 C 
BRANCH  31  32
ATOM     32  C   UNL     1       6.836   4.592  16.056  0.00  0.00    +0.000 A 
ATOM     33  N   UNL     1       7.652   5.140  15.172  0.00  0.00    +0.000 NA
ATOM     34  N   UNL     1       7.059   5.069  13.937  0.00  0.00    +0.000 NA
ATOM     35  C   UNL     1       5.896   4.478  14.084  0.00  0.00    +0.000 A 
ATOM     36  N   UNL     1       5.711   4.167  15.399  0.00  0.00    +0.000 N 
ATOM     37  C   UNL     1       4.555   3.513  15.946  0.00  0.00    +0.000 C 
ENDBRANCH  31  32
ENDBRANCH  27  31
ENDBRANCH  25  27
ENDBRANCH   3  21
TORSDOF 6
ENDMDL
MODEL 9
REMARK VINA RESULT:      -8.7      3.125     10.688
REMARK  Name = 
REMARK  8 active torsions:
REMARK  status: ('A' for Active; 'I' for Inactive)
REMARK    1  A    between atoms: C_1  and  N_2
REMARK    2  A    between atoms: C_8  and  C_9
REMARK    3  A    between atoms: N_11  and  C_12
REMARK    4  A    between atoms: C_16  and  C_17
REMARK    5  A    between atoms: C_17  and  C_18
REMARK    6  A    between atoms: C_18  and  C_19
REMARK    7  A    between atoms: N_23  and  C_24
REMARK    8  A    between atoms: C_30  and  C_31
REMARK                            x       y       z     vdW  Elec       q    Type
REMARK                         _______ _______ _______ _____ _____    ______ ____
ROOT
ATOM      1  C   UNL     1       1.749   8.791  18.540  0.00  0.00    +0.000 C 
ATOM      2  O   UNL     1       2.114   9.432  17.557  0.00  0.00    +0.000 OA
ATOM      3  N   UNL     1       0.820   9.194  19.479  0.00  0.00    +0.000 N 
ATOM      4  H   UNL     1       0.751   8.608  20.308  0.00  0.00    +0.000 HD
ENDROOT
BRANCH   1  12
ATOM      5  C   UNL     1       7.099   4.591  13.821  0.00  0.00    +0.000 C 
ATOM      6  N   UNL     1       6.749   4.653  15.238  0.00  0.00    +0.000 NA
ATOM      7  C   UNL     1       5.519   3.866  15.515  0.00  0.00    +0.000 C 
ATOM      8  C   UNL     1       5.037   3.969  16.993  0.00  0.00    +0.000 C 
ATOM      9  N   UNL     1       4.883   5.386  17.312  0.00  0.00    +0.000 N 
ATOM     10  C   UNL     1       3.904   5.822  18.180  0.00  0.00    +0.000 A 
ATOM     11  C   UNL     1       3.407   7.085  17.996  0.00  0.00    +0.000 A 
ATOM     12  C   UNL     1       2.368   7.466  18.802  0.00  0.00    +0.000 A 
ATOM     13  N   UNL     1       1.853   6.708  19.788  0.00  0.00    +0.000 NA
ATOM     14  C   UNL     1       2.397   5.485  19.920  0.00  0.00    +0.000 A 
ATOM     15  N   UNL     1       3.387   5.014  19.120  0.00  0.00    +0.000 NA
ATOM     16  C   UNL     1       6.104   6.178  17.125  0.00  0.00    +0.000 C 
ATOM     17  C   UNL     1       6.547   6.062  15.651  0.00  0.00    +0.000 C 
BRANCH  14  18
ATOM     18  C   UNL     1       1.894   4.620  21.051  0.00  0.00    +0.000 C 
ATOM     19  C   UNL     1       1.070   3.386  20.753  0.00  0.00    +0.000 C 
ATOM     20  C   UNL     1       2.461   3.242  21.295  0.00  0.00    +0.000 C 
ENDBRANCH  14  18
ENDBRANCH   1  12
BRANCH   3  21
ATOM     21  C   UNL     1       0.119  10.412  19.451  0.00  0.00    +0.000 A 
ATOM     22  C   UNL     1       0.580  11.561  20.093  0.00  0.00    +0.000 A 
ATOM     23  C   UNL     1      -0.176  12.726  20.084  0.00  0.00    +0.000 A 
ATOM     24  C   UNL     1      -1.414  12.738  19.449  0.00  0.00    +0.000 A 
ATOM     25  C   UNL     1      -1.930  11.599  18.798  0.00  0.00    +0.000 A 
ATOM     26  C   UNL     1      -1.106  10.453  18.773  0.00  0.00    +0.000 A 
BRANCH  25  27
ATOM     27  C   UNL     1      -3.406  11.605  18.180  0.00  0.00    +0.000 C 
ATOM     28  C   UNL     1      -3.596  11.458  16.643  0.00  0.00    +0.000 C 
ATOM     29  O   UNL     1      -4.629  10.450  16.846  0.00  0.00    +0.000 OA
ATOM     30  C   UNL     1      -4.111  10.214  18.178  0.00  0.00    +0.000 C 
BRANCH  27  31
ATOM     31  C   UNL     1      -4.283  12.705  18.804  0.00  0.00    +0.000 C 
BRANCH  31  32
ATOM     32  C   UNL     1      -5.459  12.165  19.547  0.00  0.00    +0.000 A 
ATOM     33  N   UNL     1      -5.451  11.723  20.794  0.00  0.00    +0.000 NA
ATOM     34  N   UNL     1      -6.723  11.323  21.116  0.00  0.00    +0.000 NA
ATOM     35  C   UNL     1      -7.486  11.529  20.068  0.00  0.00    +0.000 A 
ATOM     36  N   UNL     1      -6.733  12.050  19.057  0.00  0.00    +0.000 N 
ATOM     37  C   UNL     1      -7.220  12.405  17.753  0.00  0.00    +0.000 C 
ENDBRANCH  31  32
ENDBRANCH  27  31
ENDBRANCH  25  27
ENDBRANCH   3  21
TORSDOF 6
ENDMDL
