MODEL 1
REMARK VINA RESULT:      -8.2      0.000      0.000
REMARK  Name = 
REMARK  8 active torsions:
REMARK  status: ('A' for Active; 'I' for Inactive)
REMARK    1  A    between atoms: C_1  and  C_2
REMARK    2  A    between atoms: C_2  and  S_3
REMARK    3  A    between atoms: C_2  and  C_10
REMARK    4  A    between atoms: S_3  and  C_4
REMARK    5  A    between atoms: N_8  and  C_9
REMARK    6  A    between atoms: C_16  and  C_18
REMARK    7  A    between atoms: C_22  and  O_23
REMARK    8  A    between atoms: O_23  and  C_24
REMARK                            x       y       z     vdW  Elec       q    Type
REMARK                         _______ _______ _______ _____ _____    ______ ____
ROOT
ATOM      1  C   UNL     1      -0.057  10.631  19.878  0.00  0.00    +0.000 A 
ATOM      2  C   UNL     1      -0.521  10.350  21.167  0.00  0.00    +0.000 A 
ATOM      3  C   UNL     1      -0.111   9.186  21.790  0.00  0.00    +0.000 A 
ATOM      4  N   UNL     1       0.706   8.287  21.218  0.00  0.00    +0.000 NA
ATOM      5  C   UNL     1       1.159   8.527  19.977  0.00  0.00    +0.000 A 
ATOM      6  N   UNL     1       1.977   7.576  19.348  0.00  0.00    +0.000 N 
ATOM      7  C   UNL     1       2.394   6.394  19.938  0.00  0.00    +0.000 C 
ATOM      8  O   UNL     1       2.187   6.017  21.086  0.00  0.00    +0.000 OA
ATOM      9  C   UNL     1       0.813   9.689  19.285  0.00  0.00    +0.000 A 
ATOM     10  H   UNL     1       2.271   7.731  18.391  0.00  0.00    +0.000 HD
ENDROOT
BRANCH   7  11
ATOM     11  C   UNL     1       3.194   5.501  19.042  0.00  0.00    +0.000 A 
ATOM     12  C   UNL     1       2.567   4.902  17.955  0.00  0.00    +0.000 A 
ATOM     13  C   UNL     1       3.318   4.065  17.143  0.00  0.00    +0.000 A 
ATOM     14  C   UNL     1       4.661   3.857  17.442  0.00  0.00    +0.000 A 
ATOM     15  C   UNL     1       5.227   4.530  18.522  0.00  0.00    +0.000 A 
ATOM     16  N   UNL     1       4.512   5.329  19.346  0.00  0.00    +0.000 NA
BRANCH  15  17
ATOM     17  O   UNL     1       6.510   4.372  18.932  0.00  0.00    +0.000 OA
BRANCH  17  18
ATOM     18  C   UNL     1       7.508   5.088  18.230  0.00  0.00    +0.000 C 
ATOM     19  F   UNL     1       7.040   6.051  17.407  0.00  0.00    +0.000 F 
ATOM     20  F   UNL     1       8.339   5.673  19.120  0.00  0.00    +0.000 F 
ATOM     21  F   UNL     1       8.232   4.215  17.492  0.00  0.00    +0.000 F 
ENDBRANCH  17  18
ENDBRANCH  15  17
ENDBRANCH   7  11
BRANCH   1  23
ATOM     22  C   UNL     1       0.104  13.194  19.720  0.00  0.00    +0.000 C 
ATOM     23  C   UNL     1      -0.469  11.898  19.120  0.00  0.00    +0.000 C 
BRANCH  23  24
ATOM     24  S   UNL     1      -2.308  12.001  19.079  0.00  0.00    +0.000 S 
BRANCH  24  25
ATOM     25  C   UNL     1      -2.692  11.280  17.559  0.00  0.00    +0.000 A 
ATOM     26  N   UNL     1      -1.896  10.595  16.773  0.00  0.00    +0.000 NA
ATOM     27  N   UNL     1      -2.608  10.271  15.637  0.00  0.00    +0.000 NA
ATOM     28  C   UNL     1      -3.822  10.756  15.778  0.00  0.00    +0.000 A 
ATOM     29  N   UNL     1      -3.924  11.385  16.982  0.00  0.00    +0.000 N 
ATOM     30  C   UNL     1      -5.096  12.032  17.507  0.00  0.00    +0.000 C 
ENDBRANCH  24  25
ENDBRANCH  23  24
ENDBRANCH   1  23
TORSDOF 6
ENDMDL
MODEL 2
REMARK VINA RESULT:      -8.0      2.542      3.884
REMARK  Name = 
REMARK  8 active torsions:
REMARK  status: ('A' for Active; 'I' for Inactive)
REMARK    1  A    between atoms: C_1  and  C_2
REMARK    2  A    between atoms: C_2  and  S_3
REMARK    3  A    between atoms: C_2  and  C_10
REMARK    4  A    between atoms: S_3  and  C_4
REMARK    5  A    between atoms: N_8  and  C_9
REMARK    6  A    between atoms: C_16  and  C_18
REMARK    7  A    between atoms: C_22  and  O_23
REMARK    8  A    between atoms: O_23  and  C_24
REMARK                            x       y       z     vdW  Elec       q    Type
REMARK                         _______ _______ _______ _____ _____    ______ ____
ROOT
ATOM      1  C   UNL     1       0.308  10.731  20.165  0.00  0.00    +0.000 A 
ATOM      2  C   UNL     1      -0.386  10.343  21.316  0.00  0.00    +0.000 A 
ATOM      3  C   UNL     1      -0.202   9.065  21.811  0.00  0.00    +0.000 A 
ATOM      4  N   UNL     1       0.603   8.156  21.239  0.00  0.00    +0.000 NA
ATOM      5  C   UNL     1       1.274   8.500  20.127  0.00  0.00    +0.000 A 
ATOM      6  N   UNL     1       2.082   7.546  19.490  0.00  0.00    +0.000 N 
ATOM      7  C   UNL     1       2.277   6.255  19.952  0.00  0.00    +0.000 C 
ATOM      8  O   UNL     1       1.849   5.759  20.989  0.00  0.00    +0.000 OA
ATOM      9  C   UNL     1       1.163   9.776  19.572  0.00  0.00    +0.000 A 
ATOM     10  H   UNL     1       2.543   7.789  18.621  0.00  0.00    +0.000 HD
ENDROOT
BRANCH   7  11
ATOM     11  C   UNL     1       3.119   5.396  19.061  0.00  0.00    +0.000 A 
ATOM     12  C   UNL     1       2.526   4.784  17.962  0.00  0.00    +0.000 A 
ATOM     13  C   UNL     1       3.314   3.979  17.154  0.00  0.00    +0.000 A 
ATOM     14  C   UNL     1       4.660   3.814  17.469  0.00  0.00    +0.000 A 
ATOM     15  C   UNL     1       5.190   4.498  18.559  0.00  0.00    +0.000 A 
ATOM     16  N   UNL     1       4.437   5.266  19.380  0.00  0.00    +0.000 NA
BRANCH  15  17
ATOM     17  O   UNL     1       6.472   4.382  18.984  0.00  0.00    +0.000 OA
BRANCH  17  18
ATOM     18  C   UNL     1       7.453   5.141  18.305  0.00  0.00    +0.000 C 
ATOM     19  F   UNL     1       8.344   5.762  19.108  0.00  0.00    +0.000 F 
ATOM     20  F   UNL     1       8.141   4.329  17.474  0.00  0.00    +0.000 F 
ATOM     21  F   UNL     1       6.833   6.080  17.555  0.00  0.00    +0.000 F 
ENDBRANCH  17  18
ENDBRANCH  15  17
ENDBRANCH   7  11
BRANCH   1  23
ATOM     22  C   UNL     1      -0.817  12.177  18.359  0.00  0.00    +0.000 C 
ATOM     23  C   UNL     1       0.154  12.128  19.552  0.00  0.00    +0.000 C 
BRANCH  23  24
ATOM     24  S   UNL     1       1.810  12.736  19.020  0.00  0.00    +0.000 S 
BRANCH  24  25
ATOM     25  C   UNL     1       2.261  13.780  20.317  0.00  0.00    +0.000 A 
ATOM     26  N   UNL     1       2.837  13.450  21.449  0.00  0.00    +0.000 NA
ATOM     27  N   UNL     1       2.948  14.595  22.211  0.00  0.00    +0.000 NA
ATOM     28  C   UNL     1       2.451  15.589  21.508  0.00  0.00    +0.000 A 
ATOM     29  N   UNL     1       2.022  15.123  20.301  0.00  0.00    +0.000 N 
ATOM     30  C   UNL     1       1.428  15.905  19.251  0.00  0.00    +0.000 C 
ENDBRANCH  24  25
ENDBRANCH  23  24
ENDBRANCH   1  23
TORSDOF 6
ENDMDL
MODEL 3
REMARK VINA RESULT:      -7.8      4.112      5.205
REMARK  Name = 
REMARK  8 active torsions:
REMARK  status: ('A' for Active; 'I' for Inactive)
REMARK    1  A    between atoms: C_1  and  C_2
REMARK    2  A    between atoms: C_2  and  S_3
REMARK    3  A    between atoms: C_2  and  C_10
REMARK    4  A    between atoms: S_3  and  C_4
REMARK    5  A    between atoms: N_8  and  C_9
REMARK    6  A    between atoms: C_16  and  C_18
REMARK    7  A    between atoms: C_22  and  O_23
REMARK    8  A    between atoms: O_23  and  C_24
REMARK                            x       y       z     vdW  Elec       q    Type
REMARK                         _______ _______ _______ _____ _____    ______ ____
ROOT
ATOM      1  C   UNL     1       0.118  10.992  21.105  0.00  0.00    +0.000 A 
ATOM      2  C   UNL     1       0.181  11.971  20.108  0.00  0.00    +0.000 A 
ATOM      3  C   UNL     1       0.771  11.658  18.897  0.00  0.00    +0.000 A 
ATOM      4  N   UNL     1       1.307  10.459  18.621  0.00  0.00    +0.000 NA
ATOM      5  C   UNL     1       1.269   9.504  19.564  0.00  0.00    +0.000 A 
ATOM      6  N   UNL     1       1.867   8.261  19.308  0.00  0.00    +0.000 N 
ATOM      7  C   UNL     1       2.477   7.920  18.112  0.00  0.00    +0.000 C 
ATOM      8  O   UNL     1       2.543   8.592  17.088  0.00  0.00    +0.000 OA
ATOM      9  C   UNL     1       0.673   9.727  20.806  0.00  0.00    +0.000 A 
ATOM     10  H   UNL     1       1.887   7.561  20.040  0.00  0.00    +0.000 HD
ENDROOT
BRANCH   7  11
ATOM     11  C   UNL     1       3.115   6.566  18.102  0.00  0.00    +0.000 A 
ATOM     12  C   UNL     1       4.173   6.328  17.232  0.00  0.00    +0.000 A 
ATOM     13  C   UNL     1       4.745   5.064  17.224  0.00  0.00    +0.000 A 
ATOM     14  C   UNL     1       4.242   4.088  18.079  0.00  0.00    +0.000 A 
ATOM     15  C   UNL     1       3.210   4.419  18.953  0.00  0.00    +0.000 A 
ATOM     16  N   UNL     1       2.617   5.634  18.962  0.00  0.00    +0.000 NA
BRANCH  15  17
ATOM     17  O   UNL     1       2.615   3.541  19.799  0.00  0.00    +0.000 OA
BRANCH  17  18
ATOM     18  C   UNL     1       1.435   2.905  19.348  0.00  0.00    +0.000 C 
ATOM     19  F   UNL     1       1.041   3.259  18.106  0.00  0.00    +0.000 F 
ATOM     20  F   UNL     1       1.625   1.568  19.356  0.00  0.00    +0.000 F 
ATOM     21  F   UNL     1       0.431   3.191  20.207  0.00  0.00    +0.000 F 
ENDBRANCH  17  18
ENDBRANCH  15  17
ENDBRANCH   7  11
BRANCH   1  23
ATOM     22  C   UNL     1      -0.874   9.984  23.255  0.00  0.00    +0.000 C 
ATOM     23  C   UNL     1      -0.515  11.262  22.475  0.00  0.00    +0.000 C 
BRANCH  23  24
ATOM     24  S   UNL     1      -2.030  12.286  22.245  0.00  0.00    +0.000 S 
BRANCH  24  25
ATOM     25  C   UNL     1      -1.767  13.595  23.338  0.00  0.00    +0.000 A 
ATOM     26  N   UNL     1      -0.653  14.257  23.544  0.00  0.00    +0.000 NA
ATOM     27  N   UNL     1      -0.890  15.170  24.550  0.00  0.00    +0.000 NA
ATOM     28  C   UNL     1      -2.148  15.045  24.912  0.00  0.00    +0.000 A 
ATOM     29  N   UNL     1      -2.743  14.076  24.163  0.00  0.00    +0.000 N 
ATOM     30  C   UNL     1      -4.114  13.653  24.253  0.00  0.00    +0.000 C 
ENDBRANCH  24  25
ENDBRANCH  23  24
ENDBRANCH   1  23
TORSDOF 6
ENDMDL
MODEL 4
REMARK VINA RESULT:      -7.8      4.275      5.238
REMARK  Name = 
REMARK  8 active torsions:
REMARK  status: ('A' for Active; 'I' for Inactive)
REMARK    1  A    between atoms: C_1  and  C_2
REMARK    2  A    between atoms: C_2  and  S_3
REMARK    3  A    between atoms: C_2  and  C_10
REMARK    4  A    between atoms: S_3  and  C_4
REMARK    5  A    between atoms: N_8  and  C_9
REMARK    6  A    between atoms: C_16  and  C_18
REMARK    7  A    between atoms: C_22  and  O_23
REMARK    8  A    between atoms: O_23  and  C_24
REMARK                            x       y       z     vdW  Elec       q    Type
REMARK                         _______ _______ _______ _____ _____    ______ ____
ROOT
ATOM      1  C   UNL     1      -0.063  11.388  21.013  0.00  0.00    +0.000 A 
ATOM      2  C   UNL     1       0.146  12.294  19.968  0.00  0.00    +0.000 A 
ATOM      3  C   UNL     1       0.806  11.866  18.831  0.00  0.00    +0.000 A 
ATOM      4  N   UNL     1       1.278  10.620  18.672  0.00  0.00    +0.000 NA
ATOM      5  C   UNL     1       1.100   9.732  19.665  0.00  0.00    +0.000 A 
ATOM      6  N   UNL     1       1.629   8.440  19.533  0.00  0.00    +0.000 N 
ATOM      7  C   UNL     1       2.306   7.984  18.415  0.00  0.00    +0.000 C 
ATOM      8  O   UNL     1       2.498   8.582  17.361  0.00  0.00    +0.000 OA
ATOM      9  C   UNL     1       0.425  10.074  20.838  0.00  0.00    +0.000 A 
ATOM     10  H   UNL     1       1.543   7.789  20.305  0.00  0.00    +0.000 HD
ENDROOT
BRANCH   7  11
ATOM     11  C   UNL     1       2.847   6.594  18.538  0.00  0.00    +0.000 A 
ATOM     12  C   UNL     1       3.674   6.102  17.534  0.00  0.00    +0.000 A 
ATOM     13  C   UNL     1       4.156   4.808  17.655  0.00  0.00    +0.000 A 
ATOM     14  C   UNL     1       3.799   4.053  18.769  0.00  0.00    +0.000 A 
ATOM     15  C   UNL     1       3.004   4.633  19.754  0.00  0.00    +0.000 A 
ATOM     16  N   UNL     1       2.498   5.883  19.647  0.00  0.00    +0.000 NA
BRANCH  15  17
ATOM     17  O   UNL     1       2.560   3.982  20.858  0.00  0.00    +0.000 OA
BRANCH  17  18
ATOM     18  C   UNL     1       1.444   3.127  20.701  0.00  0.00    +0.000 C 
ATOM     19  F   UNL     1       1.684   2.010  19.983  0.00  0.00    +0.000 F 
ATOM     20  F   UNL     1       1.006   2.748  21.921  0.00  0.00    +0.000 F 
ATOM     21  F   UNL     1       0.451   3.816  20.095  0.00  0.00    +0.000 F 
ENDBRANCH  17  18
ENDBRANCH  15  17
ENDBRANCH   7  11
BRANCH   1  23
ATOM     22  C   UNL     1      -1.099  10.598  23.232  0.00  0.00    +0.000 C 
ATOM     23  C   UNL     1      -0.781  11.787  22.308  0.00  0.00    +0.000 C 
BRANCH  23  24
ATOM     24  S   UNL     1      -2.343  12.667  21.882  0.00  0.00    +0.000 S 
BRANCH  24  25
ATOM     25  C   UNL     1      -2.491  13.812  23.164  0.00  0.00    +0.000 A 
ATOM     26  N   UNL     1      -1.836  14.939  23.312  0.00  0.00    +0.000 NA
ATOM     27  N   UNL     1      -2.227  15.494  24.512  0.00  0.00    +0.000 NA
ATOM     28  C   UNL     1      -3.123  14.695  25.047  0.00  0.00    +0.000 A 
ATOM     29  N   UNL     1      -3.332  13.630  24.223  0.00  0.00    +0.000 N 
ATOM     30  C   UNL     1      -4.246  12.544  24.452  0.00  0.00    +0.000 C 
ENDBRANCH  24  25
ENDBRANCH  23  24
ENDBRANCH   1  23
TORSDOF 6
ENDMDL
MODEL 5
REMARK VINA RESULT:      -7.8      2.688      4.143
REMARK  Name = 
REMARK  8 active torsions:
REMARK  status: ('A' for Active; 'I' for Inactive)
REMARK    1  A    between atoms: C_1  and  C_2
REMARK    2  A    between atoms: C_2  and  S_3
REMARK    3  A    between atoms: C_2  and  C_10
REMARK    4  A    between atoms: S_3  and  C_4
REMARK    5  A    between atoms: N_8  and  C_9
REMARK    6  A    between atoms: C_16  and  C_18
REMARK    7  A    between atoms: C_22  and  O_23
REMARK    8  A    between atoms: O_23  and  C_24
REMARK                            x       y       z     vdW  Elec       q    Type
REMARK                         _______ _______ _______ _____ _____    ______ ____
ROOT
ATOM      1  C   UNL     1       0.487  10.693  20.190  0.00  0.00    +0.000 A 
ATOM      2  C   UNL     1       0.004  10.356  21.459  0.00  0.00    +0.000 A 
ATOM      3  C   UNL     1       0.254   9.091  21.957  0.00  0.00    +0.000 A 
ATOM      4  N   UNL     1       0.929   8.148  21.283  0.00  0.00    +0.000 NA
ATOM      5  C   UNL     1       1.395   8.441  20.058  0.00  0.00    +0.000 A 
ATOM      6  N   UNL     1       2.062   7.452  19.321  0.00  0.00    +0.000 N 
ATOM      7  C   UNL     1       2.317   6.172  19.785  0.00  0.00    +0.000 C 
ATOM      8  O   UNL     1       2.073   5.718  20.898  0.00  0.00    +0.000 OA
ATOM      9  C   UNL     1       1.208   9.702  19.488  0.00  0.00    +0.000 A 
ATOM     10  H   UNL     1       2.364   7.657  18.376  0.00  0.00    +0.000 HD
ENDROOT
BRANCH   7  11
ATOM     11  C   UNL     1       2.972   5.267  18.789  0.00  0.00    +0.000 A 
ATOM     12  C   UNL     1       2.189   4.350  18.097  0.00  0.00    +0.000 A 
ATOM     13  C   UNL     1       2.812   3.508  17.188  0.00  0.00    +0.000 A 
ATOM     14  C   UNL     1       4.188   3.611  17.001  0.00  0.00    +0.000 A 
ATOM     15  C   UNL     1       4.894   4.587  17.698  0.00  0.00    +0.000 A 
ATOM     16  N   UNL     1       4.316   5.401  18.611  0.00  0.00    +0.000 NA
BRANCH  15  17
ATOM     17  O   UNL     1       6.239   4.752  17.629  0.00  0.00    +0.000 OA
BRANCH  17  18
ATOM     18  C   UNL     1       6.746   5.503  16.543  0.00  0.00    +0.000 C 
ATOM     19  F   UNL     1       5.810   6.158  15.823  0.00  0.00    +0.000 F 
ATOM     20  F   UNL     1       7.622   6.417  17.011  0.00  0.00    +0.000 F 
ATOM     21  F   UNL     1       7.412   4.670  15.712  0.00  0.00    +0.000 F 
ENDBRANCH  17  18
ENDBRANCH  15  17
ENDBRANCH   7  11
BRANCH   1  23
ATOM     22  C   UNL     1      -0.840  12.080  18.476  0.00  0.00    +0.000 C 
ATOM     23  C   UNL     1       0.247  12.073  19.566  0.00  0.00    +0.000 C 
BRANCH  23  24
ATOM     24  S   UNL     1       1.830  12.694  18.857  0.00  0.00    +0.000 S 
BRANCH  24  25
ATOM     25  C   UNL     1       2.508  13.581  20.172  0.00  0.00    +0.000 A 
ATOM     26  N   UNL     1       2.145  13.550  21.432  0.00  0.00    +0.000 NA
ATOM     27  N   UNL     1       2.918  14.468  22.113  0.00  0.00    +0.000 NA
ATOM     28  C   UNL     1       3.741  15.015  21.245  0.00  0.00    +0.000 A 
ATOM     29  N   UNL     1       3.529  14.474  20.013  0.00  0.00    +0.000 N 
ATOM     30  C   UNL     1       4.237  14.804  18.806  0.00  0.00    +0.000 C 
ENDBRANCH  24  25
ENDBRANCH  23  24
ENDBRANCH   1  23
TORSDOF 6
ENDMDL
MODEL 6
REMARK VINA RESULT:      -7.7      0.927      1.105
REMARK  Name = 
REMARK  8 active torsions:
REMARK  status: ('A' for Active; 'I' for Inactive)
REMARK    1  A    between atoms: C_1  and  C_2
REMARK    2  A    between atoms: C_2  and  S_3
REMARK    3  A    between atoms: C_2  and  C_10
REMARK    4  A    between atoms: S_3  and  C_4
REMARK    5  A    between atoms: N_8  and  C_9
REMARK    6  A    between atoms: C_16  and  C_18
REMARK    7  A    between atoms: C_22  and  O_23
REMARK    8  A    between atoms: O_23  and  C_24
REMARK                            x       y       z     vdW  Elec       q    Type
REMARK                         _______ _______ _______ _____ _____    ______ ____
ROOT
ATOM      1  C   UNL     1       0.262  10.750  19.768  0.00  0.00    +0.000 A 
ATOM      2  C   UNL     1      -0.225  10.394  21.030  0.00  0.00    +0.000 A 
ATOM      3  C   UNL     1       0.118   9.164  21.559  0.00  0.00    +0.000 A 
ATOM      4  N   UNL     1       0.890   8.271  20.921  0.00  0.00    +0.000 NA
ATOM      5  C   UNL     1       1.364   8.583  19.704  0.00  0.00    +0.000 A 
ATOM      6  N   UNL     1       2.133   7.642  19.004  0.00  0.00    +0.000 N 
ATOM      7  C   UNL     1       2.483   6.397  19.499  0.00  0.00    +0.000 C 
ATOM      8  O   UNL     1       2.248   5.942  20.614  0.00  0.00    +0.000 OA
ATOM      9  C   UNL     1       1.084   9.812  19.104  0.00  0.00    +0.000 A 
ATOM     10  H   UNL     1       2.442   7.856  18.063  0.00  0.00    +0.000 HD
ENDROOT
BRANCH   7  11
ATOM     11  C   UNL     1       3.241   5.535  18.538  0.00  0.00    +0.000 A 
ATOM     12  C   UNL     1       2.629   4.393  18.032  0.00  0.00    +0.000 A 
ATOM     13  C   UNL     1       3.348   3.596  17.154  0.00  0.00    +0.000 A 
ATOM     14  C   UNL     1       4.646   3.965  16.813  0.00  0.00    +0.000 A 
ATOM     15  C   UNL     1       5.172   5.148  17.326  0.00  0.00    +0.000 A 
ATOM     16  N   UNL     1       4.503   5.928  18.206  0.00  0.00    +0.000 NA
BRANCH  15  17
ATOM     17  O   UNL     1       6.436   5.584  17.099  0.00  0.00    +0.000 OA
BRANCH  17  18
ATOM     18  C   UNL     1       7.398   5.340  18.107  0.00  0.00    +0.000 C 
ATOM     19  F   UNL     1       6.883   5.024  19.314  0.00  0.00    +0.000 F 
ATOM     20  F   UNL     1       8.195   4.322  17.717  0.00  0.00    +0.000 F 
ATOM     21  F   UNL     1       8.166   6.443  18.249  0.00  0.00    +0.000 F 
ENDBRANCH  17  18
ENDBRANCH  15  17
ENDBRANCH   7  11
BRANCH   1  23
ATOM     22  C   UNL     1       0.845  13.246  19.544  0.00  0.00    +0.000 C 
ATOM     23  C   UNL     1      -0.077  12.093  19.111  0.00  0.00    +0.000 C 
BRANCH  23  24
ATOM     24  S   UNL     1      -1.825  12.527  19.499  0.00  0.00    +0.000 S 
BRANCH  24  25
ATOM     25  C   UNL     1      -2.689  11.820  18.183  0.00  0.00    +0.000 A 
ATOM     26  N   UNL     1      -2.198  11.357  17.058  0.00  0.00    +0.000 NA
ATOM     27  N   UNL     1      -3.259  10.949  16.276  0.00  0.00    +0.000 NA
ATOM     28  C   UNL     1      -4.361  11.161  16.961  0.00  0.00    +0.000 A 
ATOM     29  N   UNL     1      -4.048  11.693  18.175  0.00  0.00    +0.000 N 
ATOM     30  C   UNL     1      -4.978  12.052  19.211  0.00  0.00    +0.000 C 
ENDBRANCH  24  25
ENDBRANCH  23  24
ENDBRANCH   1  23
TORSDOF 6
ENDMDL
MODEL 7
REMARK VINA RESULT:      -7.7      2.982      3.252
REMARK  Name = 
REMARK  8 active torsions:
REMARK  status: ('A' for Active; 'I' for Inactive)
REMARK    1  A    between atoms: C_1  and  C_2
REMARK    2  A    between atoms: C_2  and  S_3
REMARK    3  A    between atoms: C_2  and  C_10
REMARK    4  A    between atoms: S_3  and  C_4
REMARK    5  A    between atoms: N_8  and  C_9
REMARK    6  A    between atoms: C_16  and  C_18
REMARK    7  A    between atoms: C_22  and  O_23
REMARK    8  A    between atoms: O_23  and  C_24
REMARK                            x       y       z     vdW  Elec       q    Type
REMARK                         _______ _______ _______ _____ _____    ______ ____
ROOT
ATOM      1  C   UNL     1       0.603  10.655  21.052  0.00  0.00    +0.000 A 
ATOM      2  C   UNL     1      -0.338  10.125  21.941  0.00  0.00    +0.000 A 
ATOM      3  C   UNL     1      -0.378   8.757  22.139  0.00  0.00    +0.000 A 
ATOM      4  N   UNL     1       0.433   7.892  21.510  0.00  0.00    +0.000 NA
ATOM      5  C   UNL     1       1.339   8.373  20.643  0.00  0.00    +0.000 A 
ATOM      6  N   UNL     1       2.162   7.479  19.943  0.00  0.00    +0.000 N 
ATOM      7  C   UNL     1       2.138   6.104  20.107  0.00  0.00    +0.000 C 
ATOM      8  O   UNL     1       1.468   5.458  20.906  0.00  0.00    +0.000 OA
ATOM      9  C   UNL     1       1.463   9.742  20.401  0.00  0.00    +0.000 A 
ATOM     10  H   UNL     1       2.805   7.839  19.248  0.00  0.00    +0.000 HD
ENDROOT
BRANCH   7  11
ATOM     11  C   UNL     1       3.052   5.352  19.191  0.00  0.00    +0.000 A 
ATOM     12  C   UNL     1       2.526   4.777  18.039  0.00  0.00    +0.000 A 
ATOM     13  C   UNL     1       3.381   4.071  17.208  0.00  0.00    +0.000 A 
ATOM     14  C   UNL     1       4.726   3.963  17.553  0.00  0.00    +0.000 A 
ATOM     15  C   UNL     1       5.184   4.605  18.700  0.00  0.00    +0.000 A 
ATOM     16  N   UNL     1       4.366   5.277  19.542  0.00  0.00    +0.000 NA
BRANCH  15  17
ATOM     17  O   UNL     1       6.460   4.535  19.156  0.00  0.00    +0.000 OA
BRANCH  17  18
ATOM     18  C   UNL     1       7.436   5.297  18.474  0.00  0.00    +0.000 C 
ATOM     19  F   UNL     1       6.956   6.377  17.822  0.00  0.00    +0.000 F 
ATOM     20  F   UNL     1       8.360   5.725  19.361  0.00  0.00    +0.000 F 
ATOM     21  F   UNL     1       8.057   4.501  17.574  0.00  0.00    +0.000 F 
ENDBRANCH  17  18
ENDBRANCH  15  17
ENDBRANCH   7  11
BRANCH   1  23
ATOM     22  C   UNL     1      -0.297  13.008  21.576  0.00  0.00    +0.000 C 
ATOM     23  C   UNL     1       0.707  12.159  20.775  0.00  0.00    +0.000 C 
BRANCH  23  24
ATOM     24  S   UNL     1       0.462  12.456  18.973  0.00  0.00    +0.000 S 
BRANCH  24  25
ATOM     25  C   UNL     1       1.701  13.601  18.610  0.00  0.00    +0.000 A 
ATOM     26  N   UNL     1       2.948  13.356  18.283  0.00  0.00    +0.000 NA
ATOM     27  N   UNL     1       3.590  14.570  18.148  0.00  0.00    +0.000 NA
ATOM     28  C   UNL     1       2.705  15.515  18.379  0.00  0.00    +0.000 A 
ATOM     29  N   UNL     1       1.497  14.949  18.658  0.00  0.00    +0.000 N 
ATOM     30  C   UNL     1       0.278  15.652  18.953  0.00  0.00    +0.000 C 
ENDBRANCH  24  25
ENDBRANCH  23  24
ENDBRANCH   1  23
TORSDOF 6
ENDMDL
MODEL 8
REMARK VINA RESULT:      -7.6      1.411      1.571
REMARK  Name = 
REMARK  8 active torsions:
REMARK  status: ('A' for Active; 'I' for Inactive)
REMARK    1  A    between atoms: C_1  and  C_2
REMARK    2  A    between atoms: C_2  and  S_3
REMARK    3  A    between atoms: C_2  and  C_10
REMARK    4  A    between atoms: S_3  and  C_4
REMARK    5  A    between atoms: N_8  and  C_9
REMARK    6  A    between atoms: C_16  and  C_18
REMARK    7  A    between atoms: C_22  and  O_23
REMARK    8  A    between atoms: O_23  and  C_24
REMARK                            x       y       z     vdW  Elec       q    Type
REMARK                         _______ _______ _______ _____ _____    ______ ____
ROOT
ATOM      1  C   UNL     1       0.733  10.389  19.819  0.00  0.00    +0.000 A 
ATOM      2  C   UNL     1       0.436  10.227  21.175  0.00  0.00    +0.000 A 
ATOM      3  C   UNL     1       0.748   9.030  21.792  0.00  0.00    +0.000 A 
ATOM      4  N   UNL     1       1.315   7.993  21.156  0.00  0.00    +0.000 NA
ATOM      5  C   UNL     1       1.602   8.118  19.850  0.00  0.00    +0.000 A 
ATOM      6  N   UNL     1       2.151   7.028  19.159  0.00  0.00    +0.000 N 
ATOM      7  C   UNL     1       2.463   5.811  19.744  0.00  0.00    +0.000 C 
ATOM      8  O   UNL     1       2.379   5.508  20.929  0.00  0.00    +0.000 OA
ATOM      9  C   UNL     1       1.340   9.300  19.155  0.00  0.00    +0.000 A 
ATOM     10  H   UNL     1       2.314   7.104  18.162  0.00  0.00    +0.000 HD
ENDROOT
BRANCH   7  11
ATOM     11  C   UNL     1       2.963   4.772  18.789  0.00  0.00    +0.000 A 
ATOM     12  C   UNL     1       2.133   3.708  18.458  0.00  0.00    +0.000 A 
ATOM     13  C   UNL     1       2.615   2.745  17.584  0.00  0.00    +0.000 A 
ATOM     14  C   UNL     1       3.903   2.878  17.074  0.00  0.00    +0.000 A 
ATOM     15  C   UNL     1       4.656   3.998  17.417  0.00  0.00    +0.000 A 
ATOM     16  N   UNL     1       4.220   4.936  18.289  0.00  0.00    +0.000 NA
BRANCH  15  17
ATOM     17  O   UNL     1       5.934   4.212  17.016  0.00  0.00    +0.000 OA
BRANCH  17  18
ATOM     18  C   UNL     1       6.135   4.599  15.671  0.00  0.00    +0.000 C 
ATOM     19  F   UNL     1       5.147   5.357  15.147  0.00  0.00    +0.000 F 
ATOM     20  F   UNL     1       7.285   5.301  15.582  0.00  0.00    +0.000 F 
ATOM     21  F   UNL     1       6.263   3.487  14.912  0.00  0.00    +0.000 F 
ENDBRANCH  17  18
ENDBRANCH  15  17
ENDBRANCH   7  11
BRANCH   1  23
ATOM     22  C   UNL     1       1.336  12.860  19.428  0.00  0.00    +0.000 C 
ATOM     23  C   UNL     1       0.413  11.684  19.062  0.00  0.00    +0.000 C 
BRANCH  23  24
ATOM     24  S   UNL     1      -1.338  12.154  19.389  0.00  0.00    +0.000 S 
BRANCH  24  25
ATOM     25  C   UNL     1      -2.196  11.262  18.186  0.00  0.00    +0.000 A 
ATOM     26  N   UNL     1      -1.697  10.483  17.257  0.00  0.00    +0.000 NA
ATOM     27  N   UNL     1      -2.745  10.033  16.481  0.00  0.00    +0.000 NA
ATOM     28  C   UNL     1      -3.852  10.540  16.977  0.00  0.00    +0.000 A 
ATOM     29  N   UNL     1      -3.555  11.308  18.063  0.00  0.00    +0.000 N 
ATOM     30  C   UNL     1      -4.496  12.021  18.883  0.00  0.00    +0.000 C 
ENDBRANCH  24  25
ENDBRANCH  23  24
ENDBRANCH   1  23
TORSDOF 6
ENDMDL
MODEL 9
REMARK VINA RESULT:      -7.6      3.380      4.387
REMARK  Name = 
REMARK  8 active torsions:
REMARK  status: ('A' for Active; 'I' for Inactive)
REMARK    1  A    between atoms: C_1  and  C_2
REMARK    2  A    between atoms: C_2  and  S_3
REMARK    3  A    between atoms: C_2  and  C_10
REMARK    4  A    between atoms: S_3  and  C_4
REMARK    5  A    between atoms: N_8  and  C_9
REMARK    6  A    between atoms: C_16  and  C_18
REMARK    7  A    between atoms: C_22  and  O_23
REMARK    8  A    between atoms: O_23  and  C_24
REMARK                            x       y       z     vdW  Elec       q    Type
REMARK                         _______ _______ _______ _____ _____    ______ ____
ROOT
ATOM      1  C   UNL     1       0.002  10.991  21.158  0.00  0.00    +0.000 A 
ATOM      2  C   UNL     1      -0.054  11.985  20.176  0.00  0.00    +0.000 A 
ATOM      3  C   UNL     1       0.500  11.734  18.935  0.00  0.00    +0.000 A 
ATOM      4  N   UNL     1       1.109  10.582  18.613  0.00  0.00    +0.000 NA
ATOM      5  C   UNL     1       1.186   9.614  19.541  0.00  0.00    +0.000 A 
ATOM      6  N   UNL     1       1.860   8.422  19.236  0.00  0.00    +0.000 N 
ATOM      7  C   UNL     1       2.437   8.145  18.008  0.00  0.00    +0.000 C 
ATOM      8  O   UNL     1       2.405   8.834  16.994  0.00  0.00    +0.000 OA
ATOM      9  C   UNL     1       0.633   9.775  20.813  0.00  0.00    +0.000 A 
ATOM     10  H   UNL     1       1.966   7.716  19.954  0.00  0.00    +0.000 HD
ENDROOT
BRANCH   7  11
ATOM     11  C   UNL     1       3.171   6.842  17.946  0.00  0.00    +0.000 A 
ATOM     12  C   UNL     1       2.476   5.665  18.200  0.00  0.00    +0.000 A 
ATOM     13  C   UNL     1       3.172   4.467  18.153  0.00  0.00    +0.000 A 
ATOM     14  C   UNL     1       4.532   4.485  17.855  0.00  0.00    +0.000 A 
ATOM     15  C   UNL     1       5.146   5.700  17.567  0.00  0.00    +0.000 A 
ATOM     16  N   UNL     1       4.497   6.885  17.633  0.00  0.00    +0.000 NA
BRANCH  15  17
ATOM     17  O   UNL     1       6.470   5.844  17.306  0.00  0.00    +0.000 OA
BRANCH  17  18
ATOM     18  C   UNL     1       7.358   5.779  18.405  0.00  0.00    +0.000 C 
ATOM     19  F   UNL     1       8.175   6.846  18.535  0.00  0.00    +0.000 F 
ATOM     20  F   UNL     1       6.642   5.665  19.544  0.00  0.00    +0.000 F 
ATOM     21  F   UNL     1       8.124   4.672  18.279  0.00  0.00    +0.000 F 
ENDBRANCH  17  18
ENDBRANCH  15  17
ENDBRANCH   7  11
BRANCH   1  23
ATOM     22  C   UNL     1      -0.848   9.881  23.319  0.00  0.00    +0.000 C 
ATOM     23  C   UNL     1      -0.585  11.194  22.560  0.00  0.00    +0.000 C 
BRANCH  23  24
ATOM     24  S   UNL     1      -2.155  12.148  22.422  0.00  0.00    +0.000 S 
BRANCH  24  25
ATOM     25  C   UNL     1      -1.849  13.523  23.418  0.00  0.00    +0.000 A 
ATOM     26  N   UNL     1      -0.684  14.016  23.769  0.00  0.00    +0.000 NA
ATOM     27  N   UNL     1      -0.919  15.073  24.623  0.00  0.00    +0.000 NA
ATOM     28  C   UNL     1      -2.221  15.201  24.749  0.00  0.00    +0.000 A 
ATOM     29  N   UNL     1      -2.846  14.254  23.994  0.00  0.00    +0.000 N 
ATOM     30  C   UNL     1      -4.267  14.075  23.861  0.00  0.00    +0.000 C 
ENDBRANCH  24  25
ENDBRANCH  23  24
ENDBRANCH   1  23
TORSDOF 6
ENDMDL
