MODEL 1
REMARK VINA RESULT:      -8.7      0.000      0.000
REMARK  Name = 
REMARK  7 active torsions:
REMARK  status: ('A' for Active; 'I' for Inactive)
REMARK    1  A    between atoms: C_1  and  C_2
REMARK    2  A    between atoms: C_2  and  S_3
REMARK    3  A    between atoms: C_2  and  C_10
REMARK    4  A    between atoms: S_3  and  C_4
REMARK    5  A    between atoms: N_8  and  C_9
REMARK    6  A    between atoms: C_14  and  N_15
REMARK    7  A    between atoms: C_21  and  C_22
REMARK                            x       y       z     vdW  Elec       q    Type
REMARK                         _______ _______ _______ _____ _____    ______ ____
ROOT
ATOM      1  C   UNL     1      -0.226  10.694  19.708  0.00  0.00    +0.000 A 
ATOM      2  C   UNL     1      -0.697  10.581  21.027  0.00  0.00    +0.000 A 
ATOM      3  C   UNL     1      -0.165   9.627  21.895  0.00  0.00    +0.000 A 
ATOM      4  C   UNL     1       0.823   8.749  21.451  0.00  0.00    +0.000 A 
ATOM      5  C   UNL     1       1.271   8.788  20.133  0.00  0.00    +0.000 A 
ATOM      6  C   UNL     1       0.734   9.755  19.268  0.00  0.00    +0.000 A 
ENDROOT
BRANCH   5   7
ATOM      7  N   UNL     1       2.274   7.917  19.636  0.00  0.00    +0.000 N 
ATOM      8  C   UNL     1       2.655   7.799  18.317  0.00  0.00    +0.000 C 
ATOM      9  O   UNL     1       2.198   8.450  17.379  0.00  0.00    +0.000 OA
ATOM     10  N   UNL     1       3.719   6.951  18.118  0.00  0.00    +0.000 N 
ATOM     11  C   UNL     1       4.434   6.817  16.847  0.00  0.00    +0.000 C 
ATOM     12  C   UNL     1       4.340   5.311  17.013  0.00  0.00    +0.000 C 
ATOM     13  C   UNL     1       3.882   5.535  18.473  0.00  0.00    +0.000 C 
ATOM     14  H   UNL     1       2.887   7.481  20.300  0.00  0.00    +0.000 HD
BRANCH  13  15
ATOM     15  C   UNL     1       2.670   4.630  18.956  0.00  0.00    +0.000 A 
ATOM     16  C   UNL     1       2.399   4.471  20.330  0.00  0.00    +0.000 A 
ATOM     17  C   UNL     1       1.448   3.563  20.805  0.00  0.00    +0.000 A 
ATOM     18  C   UNL     1       0.725   2.786  19.909  0.00  0.00    +0.000 A 
ATOM     19  C   UNL     1       0.933   2.940  18.542  0.00  0.00    +0.000 A 
ATOM     20  C   UNL     1       1.885   3.855  18.077  0.00  0.00    +0.000 A 
ENDBRANCH  13  15
ENDBRANCH   5   7
BRANCH   1  22
ATOM     21  C   UNL     1      -0.265  13.239  19.366  0.00  0.00    +0.000 C 
ATOM     22  C   UNL     1      -0.706  11.867  18.840  0.00  0.00    +0.000 C 
BRANCH  22  23
ATOM     23  S   UNL     1      -2.556  11.803  18.775  0.00  0.00    +0.000 S 
BRANCH  23  24
ATOM     24  C   UNL     1      -2.870  11.075  17.248  0.00  0.00    +0.000 A 
ATOM     25  N   UNL     1      -2.069  10.317  16.537  0.00  0.00    +0.000 NA
ATOM     26  N   UNL     1      -2.716  10.023  15.355  0.00  0.00    +0.000 NA
ATOM     27  C   UNL     1      -3.896  10.603  15.392  0.00  0.00    +0.000 A 
ATOM     28  N   UNL     1      -4.044  11.258  16.576  0.00  0.00    +0.000 N 
ATOM     29  C   UNL     1      -5.203  11.992  17.006  0.00  0.00    +0.000 C 
ENDBRANCH  23  24
ENDBRANCH  22  23
ENDBRANCH   1  22
TORSDOF 5
ENDMDL
MODEL 2
REMARK VINA RESULT:      -8.6      1.920      3.440
REMARK  Name = 
REMARK  7 active torsions:
REMARK  status: ('A' for Active; 'I' for Inactive)
REMARK    1  A    between atoms: C_1  and  C_2
REMARK    2  A    between atoms: C_2  and  S_3
REMARK    3  A    between atoms: C_2  and  C_10
REMARK    4  A    between atoms: S_3  and  C_4
REMARK    5  A    between atoms: N_8  and  C_9
REMARK    6  A    between atoms: C_14  and  N_15
REMARK    7  A    between atoms: C_21  and  C_22
REMARK                            x       y       z     vdW  Elec       q    Type
REMARK                         _______ _______ _______ _____ _____    ______ ____
ROOT
ATOM      1  C   UNL     1       0.888   9.940  19.493  0.00  0.00    +0.000 A 
ATOM      2  C   UNL     1       0.820   9.698  20.876  0.00  0.00    +0.000 A 
ATOM      3  C   UNL     1       1.361   8.535  21.424  0.00  0.00    +0.000 A 
ATOM      4  C   UNL     1       1.950   7.578  20.598  0.00  0.00    +0.000 A 
ATOM      5  C   UNL     1       1.982   7.752  19.216  0.00  0.00    +0.000 A 
ATOM      6  C   UNL     1       1.440   8.928  18.674  0.00  0.00    +0.000 A 
ENDROOT
BRANCH   5   7
ATOM      7  N   UNL     1       2.571   6.809  18.337  0.00  0.00    +0.000 N 
ATOM      8  C   UNL     1       2.545   5.440  18.492  0.00  0.00    +0.000 C 
ATOM      9  O   UNL     1       1.986   4.833  19.404  0.00  0.00    +0.000 OA
ATOM     10  N   UNL     1       3.108   4.749  17.445  0.00  0.00    +0.000 N 
ATOM     11  C   UNL     1       3.021   3.296  17.279  0.00  0.00    +0.000 C 
ATOM     12  C   UNL     1       4.511   3.292  16.992  0.00  0.00    +0.000 C 
ATOM     13  C   UNL     1       4.458   4.833  16.871  0.00  0.00    +0.000 C 
ATOM     14  H   UNL     1       2.874   7.132  17.437  0.00  0.00    +0.000 HD
BRANCH  13  15
ATOM     15  C   UNL     1       5.642   5.616  17.582  0.00  0.00    +0.000 A 
ATOM     16  C   UNL     1       6.176   6.785  17.003  0.00  0.00    +0.000 A 
ATOM     17  C   UNL     1       7.318   7.414  17.507  0.00  0.00    +0.000 A 
ATOM     18  C   UNL     1       7.961   6.894  18.624  0.00  0.00    +0.000 A 
ATOM     19  C   UNL     1       7.442   5.764  19.249  0.00  0.00    +0.000 A 
ATOM     20  C   UNL     1       6.297   5.143  18.739  0.00  0.00    +0.000 A 
ENDBRANCH  13  15
ENDBRANCH   5   7
BRANCH   1  22
ATOM     21  C   UNL     1       1.281  12.477  19.480  0.00  0.00    +0.000 C 
ATOM     22  C   UNL     1       0.445  11.305  18.949  0.00  0.00    +0.000 C 
BRANCH  22  23
ATOM     23  S   UNL     1      -1.328  11.554  19.424  0.00  0.00    +0.000 S 
BRANCH  23  24
ATOM     24  C   UNL     1      -2.188  10.950  18.061  0.00  0.00    +0.000 A 
ATOM     25  N   UNL     1      -1.720  10.232  17.068  0.00  0.00    +0.000 NA
ATOM     26  N   UNL     1      -2.751  10.040  16.173  0.00  0.00    +0.000 NA
ATOM     27  C   UNL     1      -3.817  10.637  16.659  0.00  0.00    +0.000 A 
ATOM     28  N   UNL     1      -3.513  11.204  17.859  0.00  0.00    +0.000 N 
ATOM     29  C   UNL     1      -4.416  11.925  18.715  0.00  0.00    +0.000 C 
ENDBRANCH  23  24
ENDBRANCH  22  23
ENDBRANCH   1  22
TORSDOF 5
ENDMDL
MODEL 3
REMARK VINA RESULT:      -8.4      0.806      1.236
REMARK  Name = 
REMARK  7 active torsions:
REMARK  status: ('A' for Active; 'I' for Inactive)
REMARK    1  A    between atoms: C_1  and  C_2
REMARK    2  A    between atoms: C_2  and  S_3
REMARK    3  A    between atoms: C_2  and  C_10
REMARK    4  A    between atoms: S_3  and  C_4
REMARK    5  A    between atoms: N_8  and  C_9
REMARK    6  A    between atoms: C_14  and  N_15
REMARK    7  A    between atoms: C_21  and  C_22
REMARK                            x       y       z     vdW  Elec       q    Type
REMARK                         _______ _______ _______ _____ _____    ______ ____
ROOT
ATOM      1  C   UNL     1       0.200  10.279  19.649  0.00  0.00    +0.000 A 
ATOM      2  C   UNL     1      -0.416  10.086  20.897  0.00  0.00    +0.000 A 
ATOM      3  C   UNL     1      -0.019   9.044  21.736  0.00  0.00    +0.000 A 
ATOM      4  C   UNL     1       0.978   8.159  21.329  0.00  0.00    +0.000 A 
ATOM      5  C   UNL     1       1.570   8.279  20.074  0.00  0.00    +0.000 A 
ATOM      6  C   UNL     1       1.168   9.334  19.240  0.00  0.00    +0.000 A 
ENDROOT
BRANCH   5   7
ATOM      7  N   UNL     1       2.588   7.404  19.618  0.00  0.00    +0.000 N 
ATOM      8  C   UNL     1       2.976   7.236  18.307  0.00  0.00    +0.000 C 
ATOM      9  O   UNL     1       2.512   7.839  17.340  0.00  0.00    +0.000 OA
ATOM     10  N   UNL     1       4.054   6.398  18.147  0.00  0.00    +0.000 N 
ATOM     11  C   UNL     1       4.775   6.222  16.884  0.00  0.00    +0.000 C 
ATOM     12  C   UNL     1       4.705   4.723  17.114  0.00  0.00    +0.000 C 
ATOM     13  C   UNL     1       4.239   5.001  18.562  0.00  0.00    +0.000 C 
ATOM     14  H   UNL     1       3.206   7.007  20.301  0.00  0.00    +0.000 HD
BRANCH  13  15
ATOM     15  C   UNL     1       3.040   4.099  19.079  0.00  0.00    +0.000 A 
ATOM     16  C   UNL     1       2.140   3.512  18.166  0.00  0.00    +0.000 A 
ATOM     17  C   UNL     1       0.983   2.846  18.579  0.00  0.00    +0.000 A 
ATOM     18  C   UNL     1       0.693   2.735  19.933  0.00  0.00    +0.000 A 
ATOM     19  C   UNL     1       1.575   3.265  20.869  0.00  0.00    +0.000 A 
ATOM     20  C   UNL     1       2.733   3.927  20.446  0.00  0.00    +0.000 A 
ENDBRANCH  13  15
ENDBRANCH   5   7
BRANCH   1  22
ATOM     21  C   UNL     1       0.818  12.709  19.094  0.00  0.00    +0.000 C 
ATOM     22  C   UNL     1      -0.136  11.536  18.834  0.00  0.00    +0.000 C 
BRANCH  22  23
ATOM     23  S   UNL     1      -1.863  12.046  19.269  0.00  0.00    +0.000 S 
BRANCH  23  24
ATOM     24  C   UNL     1      -2.768  11.590  17.878  0.00  0.00    +0.000 A 
ATOM     25  N   UNL     1      -2.311  11.174  16.721  0.00  0.00    +0.000 NA
ATOM     26  N   UNL     1      -3.396  10.994  15.887  0.00  0.00    +0.000 NA
ATOM     27  C   UNL     1      -4.478  11.294  16.571  0.00  0.00    +0.000 A 
ATOM     28  N   UNL     1      -4.131  11.653  17.838  0.00  0.00    +0.000 N 
ATOM     29  C   UNL     1      -5.031  12.026  18.895  0.00  0.00    +0.000 C 
ENDBRANCH  23  24
ENDBRANCH  22  23
ENDBRANCH   1  22
TORSDOF 5
ENDMDL
MODEL 4
REMARK VINA RESULT:      -8.3      2.789      4.201
REMARK  Name = 
REMARK  7 active torsions:
REMARK  status: ('A' for Active; 'I' for Inactive)
REMARK    1  A    between atoms: C_1  and  C_2
REMARK    2  A    between atoms: C_2  and  S_3
REMARK    3  A    between atoms: C_2  and  C_10
REMARK    4  A    between atoms: S_3  and  C_4
REMARK    5  A    between atoms: N_8  and  C_9
REMARK    6  A    between atoms: C_14  and  N_15
REMARK    7  A    between atoms: C_21  and  C_22
REMARK                            x       y       z     vdW  Elec       q    Type
REMARK                         _______ _______ _______ _____ _____    ______ ____
ROOT
ATOM      1  C   UNL     1       0.123  10.734  20.205  0.00  0.00    +0.000 A 
ATOM      2  C   UNL     1      -0.625  10.373  21.338  0.00  0.00    +0.000 A 
ATOM      3  C   UNL     1      -0.387   9.166  21.995  0.00  0.00    +0.000 A 
ATOM      4  C   UNL     1       0.579   8.284  21.513  0.00  0.00    +0.000 A 
ATOM      5  C   UNL     1       1.298   8.577  20.357  0.00  0.00    +0.000 A 
ATOM      6  C   UNL     1       1.056   9.797  19.705  0.00  0.00    +0.000 A 
ENDROOT
BRANCH   5   7
ATOM      7  N   UNL     1       2.290   7.712  19.830  0.00  0.00    +0.000 N 
ATOM      8  C   UNL     1       2.640   7.605  18.501  0.00  0.00    +0.000 C 
ATOM      9  O   UNL     1       2.159   8.262  17.579  0.00  0.00    +0.000 OA
ATOM     10  N   UNL     1       3.701   6.762  18.270  0.00  0.00    +0.000 N 
ATOM     11  C   UNL     1       4.385   6.639  16.981  0.00  0.00    +0.000 C 
ATOM     12  C   UNL     1       4.299   5.132  17.138  0.00  0.00    +0.000 C 
ATOM     13  C   UNL     1       3.876   5.344  18.610  0.00  0.00    +0.000 C 
ATOM     14  H   UNL     1       2.920   7.273  20.475  0.00  0.00    +0.000 HD
BRANCH  13  15
ATOM     15  C   UNL     1       2.679   4.432  19.115  0.00  0.00    +0.000 A 
ATOM     16  C   UNL     1       2.454   4.245  20.494  0.00  0.00    +0.000 A 
ATOM     17  C   UNL     1       1.517   3.329  20.982  0.00  0.00    +0.000 A 
ATOM     18  C   UNL     1       0.760   2.573  20.096  0.00  0.00    +0.000 A 
ATOM     19  C   UNL     1       0.923   2.756  18.726  0.00  0.00    +0.000 A 
ATOM     20  C   UNL     1       1.861   3.677  18.247  0.00  0.00    +0.000 A 
ENDBRANCH  13  15
ENDBRANCH   5   7
BRANCH   1  22
ATOM     21  C   UNL     1      -1.103  12.224  18.510  0.00  0.00    +0.000 C 
ATOM     22  C   UNL     1      -0.041  12.143  19.616  0.00  0.00    +0.000 C 
BRANCH  22  23
ATOM     23  S   UNL     1       1.598  12.663  18.928  0.00  0.00    +0.000 S 
BRANCH  23  24
ATOM     24  C   UNL     1       2.288  13.579  20.211  0.00  0.00    +0.000 A 
ATOM     25  N   UNL     1       1.911  13.616  21.467  0.00  0.00    +0.000 NA
ATOM     26  N   UNL     1       2.708  14.540  22.112  0.00  0.00    +0.000 NA
ATOM     27  C   UNL     1       3.552  15.024  21.228  0.00  0.00    +0.000 A 
ATOM     28  N   UNL     1       3.338  14.430  20.022  0.00  0.00    +0.000 N 
ATOM     29  C   UNL     1       4.074  14.671  18.810  0.00  0.00    +0.000 C 
ENDBRANCH  23  24
ENDBRANCH  22  23
ENDBRANCH   1  22
TORSDOF 5
ENDMDL
MODEL 5
REMARK VINA RESULT:      -8.2      3.282      4.869
REMARK  Name = 
REMARK  7 active torsions:
REMARK  status: ('A' for Active; 'I' for Inactive)
REMARK    1  A    between atoms: C_1  and  C_2
REMARK    2  A    between atoms: C_2  and  S_3
REMARK    3  A    between atoms: C_2  and  C_10
REMARK    4  A    between atoms: S_3  and  C_4
REMARK    5  A    between atoms: N_8  and  C_9
REMARK    6  A    between atoms: C_14  and  N_15
REMARK    7  A    between atoms: C_21  and  C_22
REMARK                            x       y       z     vdW  Elec       q    Type
REMARK                         _______ _______ _______ _____ _____    ______ ____
ROOT
ATOM      1  C   UNL     1       1.083  10.131  19.228  0.00  0.00    +0.000 A 
ATOM      2  C   UNL     1       0.864   9.903  20.597  0.00  0.00    +0.000 A 
ATOM      3  C   UNL     1       1.250   8.701  21.191  0.00  0.00    +0.000 A 
ATOM      4  C   UNL     1       1.833   7.695  20.422  0.00  0.00    +0.000 A 
ATOM      5  C   UNL     1       2.010   7.858  19.050  0.00  0.00    +0.000 A 
ATOM      6  C   UNL     1       1.623   9.072  18.462  0.00  0.00    +0.000 A 
ENDROOT
BRANCH   5   7
ATOM      7  N   UNL     1       2.599   6.864  18.228  0.00  0.00    +0.000 N 
ATOM      8  C   UNL     1       2.547   5.504  18.449  0.00  0.00    +0.000 C 
ATOM      9  O   UNL     1       1.960   4.952  19.377  0.00  0.00    +0.000 OA
ATOM     10  N   UNL     1       3.116   4.755  17.446  0.00  0.00    +0.000 N 
ATOM     11  C   UNL     1       3.007   3.298  17.349  0.00  0.00    +0.000 C 
ATOM     12  C   UNL     1       4.502   3.255  17.090  0.00  0.00    +0.000 C 
ATOM     13  C   UNL     1       4.477   4.789  16.895  0.00  0.00    +0.000 C 
ATOM     14  H   UNL     1       2.924   7.138  17.320  0.00  0.00    +0.000 HD
BRANCH  13  15
ATOM     15  C   UNL     1       5.661   5.585  17.590  0.00  0.00    +0.000 A 
ATOM     16  C   UNL     1       6.197   6.742  16.988  0.00  0.00    +0.000 A 
ATOM     17  C   UNL     1       7.339   7.381  17.479  0.00  0.00    +0.000 A 
ATOM     18  C   UNL     1       7.981   6.884  18.606  0.00  0.00    +0.000 A 
ATOM     19  C   UNL     1       7.462   5.767  19.255  0.00  0.00    +0.000 A 
ATOM     20  C   UNL     1       6.316   5.137  18.757  0.00  0.00    +0.000 A 
ENDBRANCH  13  15
ENDBRANCH   5   7
BRANCH   1  22
ATOM     21  C   UNL     1       2.063  12.407  18.555  0.00  0.00    +0.000 C 
ATOM     22  C   UNL     1       0.810  11.526  18.648  0.00  0.00    +0.000 C 
BRANCH  22  23
ATOM     23  S   UNL     1      -0.441  12.355  19.734  0.00  0.00    +0.000 S 
BRANCH  23  24
ATOM     24  C   UNL     1       0.494  13.521  20.587  0.00  0.00    +0.000 A 
ATOM     25  N   UNL     1       1.237  13.335  21.652  0.00  0.00    +0.000 NA
ATOM     26  N   UNL     1       1.740  14.564  22.027  0.00  0.00    +0.000 NA
ATOM     27  C   UNL     1       1.295  15.455  21.168  0.00  0.00    +0.000 A 
ATOM     28  N   UNL     1       0.524  14.838  20.231  0.00  0.00    +0.000 N 
ATOM     29  C   UNL     1      -0.121  15.467  19.110  0.00  0.00    +0.000 C 
ENDBRANCH  23  24
ENDBRANCH  22  23
ENDBRANCH   1  22
TORSDOF 5
ENDMDL
MODEL 6
REMARK VINA RESULT:      -8.1      3.364      4.355
REMARK  Name = 
REMARK  7 active torsions:
REMARK  status: ('A' for Active; 'I' for Inactive)
REMARK    1  A    between atoms: C_1  and  C_2
REMARK    2  A    between atoms: C_2  and  S_3
REMARK    3  A    between atoms: C_2  and  C_10
REMARK    4  A    between atoms: S_3  and  C_4
REMARK    5  A    between atoms: N_8  and  C_9
REMARK    6  A    between atoms: C_14  and  N_15
REMARK    7  A    between atoms: C_21  and  C_22
REMARK                            x       y       z     vdW  Elec       q    Type
REMARK                         _______ _______ _______ _____ _____    ______ ____
ROOT
ATOM      1  C   UNL     1      -0.171  10.748  20.727  0.00  0.00    +0.000 A 
ATOM      2  C   UNL     1      -1.025  11.028  19.647  0.00  0.00    +0.000 A 
ATOM      3  C   UNL     1      -0.851  10.394  18.417  0.00  0.00    +0.000 A 
ATOM      4  C   UNL     1       0.197   9.493  18.235  0.00  0.00    +0.000 A 
ATOM      5  C   UNL     1       1.102   9.235  19.262  0.00  0.00    +0.000 A 
ATOM      6  C   UNL     1       0.916   9.874  20.498  0.00  0.00    +0.000 A 
ENDROOT
BRANCH   5   7
ATOM      7  N   UNL     1       2.182   8.327  19.125  0.00  0.00    +0.000 N 
ATOM      8  C   UNL     1       2.836   8.028  17.949  0.00  0.00    +0.000 C 
ATOM      9  O   UNL     1       2.596   8.524  16.850  0.00  0.00    +0.000 OA
ATOM     10  N   UNL     1       3.912   7.187  18.108  0.00  0.00    +0.000 N 
ATOM     11  C   UNL     1       4.882   6.888  17.052  0.00  0.00    +0.000 C 
ATOM     12  C   UNL     1       4.744   5.420  17.414  0.00  0.00    +0.000 C 
ATOM     13  C   UNL     1       3.986   5.842  18.694  0.00  0.00    +0.000 C 
ATOM     14  H   UNL     1       2.635   8.007  19.960  0.00  0.00    +0.000 HD
BRANCH  13  15
ATOM     15  C   UNL     1       2.692   4.987  19.035  0.00  0.00    +0.000 A 
ATOM     16  C   UNL     1       2.225   4.893  20.362  0.00  0.00    +0.000 A 
ATOM     17  C   UNL     1       1.191   4.028  20.731  0.00  0.00    +0.000 A 
ATOM     18  C   UNL     1       0.579   3.230  19.773  0.00  0.00    +0.000 A 
ATOM     19  C   UNL     1       0.983   3.321  18.445  0.00  0.00    +0.000 A 
ATOM     20  C   UNL     1       2.017   4.192  18.084  0.00  0.00    +0.000 A 
ENDBRANCH  13  15
ENDBRANCH   5   7
BRANCH   1  22
ATOM     21  C   UNL     1      -0.838  10.257  23.158  0.00  0.00    +0.000 C 
ATOM     22  C   UNL     1      -0.500  11.327  22.111  0.00  0.00    +0.000 C 
BRANCH  22  23
ATOM     23  S   UNL     1      -1.945  12.470  21.917  0.00  0.00    +0.000 S 
BRANCH  23  24
ATOM     24  C   UNL     1      -1.660  13.668  23.120  0.00  0.00    +0.000 A 
ATOM     25  N   UNL     1      -0.563  14.356  23.327  0.00  0.00    +0.000 NA
ATOM     26  N   UNL     1      -0.771  15.144  24.439  0.00  0.00    +0.000 NA
ATOM     27  C   UNL     1      -1.995  14.918  24.864  0.00  0.00    +0.000 A 
ATOM     28  N   UNL     1      -2.600  14.012  24.048  0.00  0.00    +0.000 N 
ATOM     29  C   UNL     1      -3.947  13.524  24.165  0.00  0.00    +0.000 C 
ENDBRANCH  23  24
ENDBRANCH  22  23
ENDBRANCH   1  22
TORSDOF 5
ENDMDL
MODEL 7
REMARK VINA RESULT:      -8.1      2.724      3.956
REMARK  Name = 
REMARK  7 active torsions:
REMARK  status: ('A' for Active; 'I' for Inactive)
REMARK    1  A    between atoms: C_1  and  C_2
REMARK    2  A    between atoms: C_2  and  S_3
REMARK    3  A    between atoms: C_2  and  C_10
REMARK    4  A    between atoms: S_3  and  C_4
REMARK    5  A    between atoms: N_8  and  C_9
REMARK    6  A    between atoms: C_14  and  N_15
REMARK    7  A    between atoms: C_21  and  C_22
REMARK                            x       y       z     vdW  Elec       q    Type
REMARK                         _______ _______ _______ _____ _____    ______ ____
ROOT
ATOM      1  C   UNL     1       0.031  10.552  20.246  0.00  0.00    +0.000 A 
ATOM      2  C   UNL     1      -0.626  10.177  21.430  0.00  0.00    +0.000 A 
ATOM      3  C   UNL     1      -0.271   9.008  22.103  0.00  0.00    +0.000 A 
ATOM      4  C   UNL     1       0.722   8.176  21.588  0.00  0.00    +0.000 A 
ATOM      5  C   UNL     1       1.353   8.481  20.384  0.00  0.00    +0.000 A 
ATOM      6  C   UNL     1       0.994   9.662  19.717  0.00  0.00    +0.000 A 
ENDROOT
BRANCH   5   7
ATOM      7  N   UNL     1       2.369   7.667  19.822  0.00  0.00    +0.000 N 
ATOM      8  C   UNL     1       2.671   7.570  18.480  0.00  0.00    +0.000 C 
ATOM      9  O   UNL     1       2.120   8.194  17.575  0.00  0.00    +0.000 OA
ATOM     10  N   UNL     1       3.766   6.784  18.211  0.00  0.00    +0.000 N 
ATOM     11  C   UNL     1       4.404   6.689  16.896  0.00  0.00    +0.000 C 
ATOM     12  C   UNL     1       4.406   5.180  17.063  0.00  0.00    +0.000 C 
ATOM     13  C   UNL     1       4.031   5.379  18.550  0.00  0.00    +0.000 C 
ATOM     14  H   UNL     1       3.046   7.267  20.443  0.00  0.00    +0.000 HD
BRANCH  13  15
ATOM     15  C   UNL     1       2.904   4.408  19.106  0.00  0.00    +0.000 A 
ATOM     16  C   UNL     1       2.055   3.715  18.219  0.00  0.00    +0.000 A 
ATOM     17  C   UNL     1       0.952   2.978  18.661  0.00  0.00    +0.000 A 
ATOM     18  C   UNL     1       0.669   2.902  20.019  0.00  0.00    +0.000 A 
ATOM     19  C   UNL     1       1.505   3.538  20.931  0.00  0.00    +0.000 A 
ATOM     20  C   UNL     1       2.608   4.271  20.479  0.00  0.00    +0.000 A 
ENDBRANCH  13  15
ENDBRANCH   5   7
BRANCH   1  22
ATOM     21  C   UNL     1      -1.259  11.881  18.467  0.00  0.00    +0.000 C 
ATOM     22  C   UNL     1      -0.260  11.929  19.632  0.00  0.00    +0.000 C 
BRANCH  22  23
ATOM     23  S   UNL     1       1.345  12.631  19.032  0.00  0.00    +0.000 S 
BRANCH  23  24
ATOM     24  C   UNL     1       1.823  13.670  20.318  0.00  0.00    +0.000 A 
ATOM     25  N   UNL     1       2.645  13.404  21.305  0.00  0.00    +0.000 NA
ATOM     26  N   UNL     1       2.672  14.507  22.132  0.00  0.00    +0.000 NA
ATOM     27  C   UNL     1       1.873  15.413  21.612  0.00  0.00    +0.000 A 
ATOM     28  N   UNL     1       1.335  14.937  20.456  0.00  0.00    +0.000 N 
ATOM     29  C   UNL     1       0.433  15.638  19.583  0.00  0.00    +0.000 C 
ENDBRANCH  23  24
ENDBRANCH  22  23
ENDBRANCH   1  22
TORSDOF 5
ENDMDL
MODEL 8
REMARK VINA RESULT:      -8.1      2.683      4.184
REMARK  Name = 
REMARK  7 active torsions:
REMARK  status: ('A' for Active; 'I' for Inactive)
REMARK    1  A    between atoms: C_1  and  C_2
REMARK    2  A    between atoms: C_2  and  S_3
REMARK    3  A    between atoms: C_2  and  C_10
REMARK    4  A    between atoms: S_3  and  C_4
REMARK    5  A    between atoms: N_8  and  C_9
REMARK    6  A    between atoms: C_14  and  N_15
REMARK    7  A    between atoms: C_21  and  C_22
REMARK                            x       y       z     vdW  Elec       q    Type
REMARK                         _______ _______ _______ _____ _____    ______ ____
ROOT
ATOM      1  C   UNL     1       1.095  10.128  19.564  0.00  0.00    +0.000 A 
ATOM      2  C   UNL     1       0.884   9.834  20.922  0.00  0.00    +0.000 A 
ATOM      3  C   UNL     1       1.250   8.595  21.448  0.00  0.00    +0.000 A 
ATOM      4  C   UNL     1       1.803   7.618  20.623  0.00  0.00    +0.000 A 
ATOM      5  C   UNL     1       1.971   7.848  19.259  0.00  0.00    +0.000 A 
ATOM      6  C   UNL     1       1.605   9.099  18.739  0.00  0.00    +0.000 A 
ENDROOT
BRANCH   5   7
ATOM      7  N   UNL     1       2.530   6.886  18.381  0.00  0.00    +0.000 N 
ATOM      8  C   UNL     1       2.477   5.519  18.547  0.00  0.00    +0.000 C 
ATOM      9  O   UNL     1       1.915   4.931  19.469  0.00  0.00    +0.000 OA
ATOM     10  N   UNL     1       3.014   4.809  17.499  0.00  0.00    +0.000 N 
ATOM     11  C   UNL     1       2.894   3.357  17.346  0.00  0.00    +0.000 C 
ATOM     12  C   UNL     1       4.381   3.319  17.042  0.00  0.00    +0.000 C 
ATOM     13  C   UNL     1       4.359   4.860  16.910  0.00  0.00    +0.000 C 
ATOM     14  H   UNL     1       2.830   7.196  17.475  0.00  0.00    +0.000 HD
BRANCH  13  15
ATOM     15  C   UNL     1       5.567   5.622  17.603  0.00  0.00    +0.000 A 
ATOM     16  C   UNL     1       6.129   6.767  17.002  0.00  0.00    +0.000 A 
ATOM     17  C   UNL     1       7.290   7.374  17.490  0.00  0.00    +0.000 A 
ATOM     18  C   UNL     1       7.924   6.855  18.612  0.00  0.00    +0.000 A 
ATOM     19  C   UNL     1       7.379   5.750  19.259  0.00  0.00    +0.000 A 
ATOM     20  C   UNL     1       6.215   5.151  18.764  0.00  0.00    +0.000 A 
ENDBRANCH  13  15
ENDBRANCH   5   7
BRANCH   1  22
ATOM     21  C   UNL     1       2.072  12.192  18.390  0.00  0.00    +0.000 C 
ATOM     22  C   UNL     1       0.846  11.557  19.059  0.00  0.00    +0.000 C 
BRANCH  22  23
ATOM     23  S   UNL     1       0.339  12.589  20.512  0.00  0.00    +0.000 S 
BRANCH  23  24
ATOM     24  C   UNL     1      -1.372  12.674  20.354  0.00  0.00    +0.000 A 
ATOM     25  N   UNL     1      -2.154  11.903  19.636  0.00  0.00    +0.000 NA
ATOM     26  N   UNL     1      -3.440  12.386  19.759  0.00  0.00    +0.000 NA
ATOM     27  C   UNL     1      -3.399  13.429  20.558  0.00  0.00    +0.000 A 
ATOM     28  N   UNL     1      -2.119  13.632  20.976  0.00  0.00    +0.000 N 
ATOM     29  C   UNL     1      -1.668  14.658  21.877  0.00  0.00    +0.000 C 
ENDBRANCH  23  24
ENDBRANCH  22  23
ENDBRANCH   1  22
TORSDOF 5
ENDMDL
MODEL 9
REMARK VINA RESULT:      -8.1      2.546      3.544
REMARK  Name = 
REMARK  7 active torsions:
REMARK  status: ('A' for Active; 'I' for Inactive)
REMARK    1  A    between atoms: C_1  and  C_2
REMARK    2  A    between atoms: C_2  and  S_3
REMARK    3  A    between atoms: C_2  and  C_10
REMARK    4  A    between atoms: S_3  and  C_4
REMARK    5  A    between atoms: N_8  and  C_9
REMARK    6  A    between atoms: C_14  and  N_15
REMARK    7  A    between atoms: C_21  and  C_22
REMARK                            x       y       z     vdW  Elec       q    Type
REMARK                         _______ _______ _______ _____ _____    ______ ____
ROOT
ATOM      1  C   UNL     1      -0.305  10.479  20.292  0.00  0.00    +0.000 A 
ATOM      2  C   UNL     1      -0.633  10.362  21.653  0.00  0.00    +0.000 A 
ATOM      3  C   UNL     1       0.016   9.433  22.466  0.00  0.00    +0.000 A 
ATOM      4  C   UNL     1       0.982   8.583  21.927  0.00  0.00    +0.000 A 
ATOM      5  C   UNL     1       1.291   8.626  20.569  0.00  0.00    +0.000 A 
ATOM      6  C   UNL     1       0.637   9.568  19.760  0.00  0.00    +0.000 A 
ENDROOT
BRANCH   5   7
ATOM      7  N   UNL     1       2.266   7.784  19.977  0.00  0.00    +0.000 N 
ATOM      8  C   UNL     1       2.538   7.694  18.629  0.00  0.00    +0.000 C 
ATOM      9  O   UNL     1       1.993   8.350  17.743  0.00  0.00    +0.000 OA
ATOM     10  N   UNL     1       3.599   6.873  18.328  0.00  0.00    +0.000 N 
ATOM     11  C   UNL     1       4.208   6.773  17.000  0.00  0.00    +0.000 C 
ATOM     12  C   UNL     1       4.157   5.264  17.147  0.00  0.00    +0.000 C 
ATOM     13  C   UNL     1       3.819   5.455  18.644  0.00  0.00    +0.000 C 
ATOM     14  H   UNL     1       2.940   7.351  20.580  0.00  0.00    +0.000 HD
BRANCH  13  15
ATOM     15  C   UNL     1       2.669   4.518  19.210  0.00  0.00    +0.000 A 
ATOM     16  C   UNL     1       2.563   4.270  20.593  0.00  0.00    +0.000 A 
ATOM     17  C   UNL     1       1.672   3.330  21.119  0.00  0.00    +0.000 A 
ATOM     18  C   UNL     1       0.843   2.610  20.269  0.00  0.00    +0.000 A 
ATOM     19  C   UNL     1       0.887   2.852  18.900  0.00  0.00    +0.000 A 
ATOM     20  C   UNL     1       1.780   3.797  18.383  0.00  0.00    +0.000 A 
ENDBRANCH  13  15
ENDBRANCH   5   7
BRANCH   1  22
ATOM     21  C   UNL     1      -1.782  11.153  18.302  0.00  0.00    +0.000 C 
ATOM     22  C   UNL     1      -0.909  11.628  19.472  0.00  0.00    +0.000 C 
BRANCH  22  23
ATOM     23  S   UNL     1       0.490  12.650  18.814  0.00  0.00    +0.000 S 
BRANCH  23  24
ATOM     24  C   UNL     1       0.988  13.561  20.187  0.00  0.00    +0.000 A 
ATOM     25  N   UNL     1       1.960  13.288  21.025  0.00  0.00    +0.000 NA
ATOM     26  N   UNL     1       1.946  14.257  22.006  0.00  0.00    +0.000 NA
ATOM     27  C   UNL     1       0.973  15.095  21.724  0.00  0.00    +0.000 A 
ATOM     28  N   UNL     1       0.357  14.707  20.574  0.00  0.00    +0.000 N 
ATOM     29  C   UNL     1      -0.736  15.378  19.924  0.00  0.00    +0.000 C 
ENDBRANCH  23  24
ENDBRANCH  22  23
ENDBRANCH   1  22
TORSDOF 5
ENDMDL
