MODEL 1
REMARK VINA RESULT:      -7.7      0.000      0.000
REMARK  Name = 
REMARK  9 active torsions:
REMARK  status: ('A' for Active; 'I' for Inactive)
REMARK    1  A    between atoms: C_1  and  C_2
REMARK    2  A    between atoms: N_4  and  C_5
REMARK    3  A    between atoms: C_9  and  C_10
REMARK    4  A    between atoms: N_12  and  C_13
REMARK    5  A    between atoms: C_17  and  C_18
REMARK    6  A    between atoms: C_18  and  C_19
REMARK    7  A    between atoms: C_18  and  S_20
REMARK    8  A    between atoms: S_20  and  C_21
REMARK    9  A    between atoms: N_25  and  C_26
REMARK                            x       y       z     vdW  Elec       q    Type
REMARK                         _______ _______ _______ _____ _____    ______ ____
ROOT
ATOM      1  C   UNL     1       1.826   5.837  20.466  0.00  0.00    +0.000 C 
ATOM      2  O   UNL     1       0.649   5.518  20.607  0.00  0.00    +0.000 OA
ATOM      3  N   UNL     1       2.309   7.131  20.436  0.00  0.00    +0.000 N 
ATOM      4  H   UNL     1       3.227   7.254  20.023  0.00  0.00    +0.000 HD
ENDROOT
BRANCH   1   9
ATOM      5  C   UNL     1       4.782   4.031  19.076  0.00  0.00    +0.000 A 
ATOM      6  C   UNL     1       4.527   2.752  19.568  0.00  0.00    +0.000 A 
ATOM      7  C   UNL     1       3.450   2.568  20.423  0.00  0.00    +0.000 A 
ATOM      8  N   UNL     1       2.602   3.552  20.794  0.00  0.00    +0.000 NA
ATOM      9  C   UNL     1       2.862   4.781  20.276  0.00  0.00    +0.000 A 
ATOM     10  C   UNL     1       3.957   5.075  19.476  0.00  0.00    +0.000 A 
BRANCH   5  14
ATOM     11  C   UNL     1       6.953   4.768  16.094  0.00  0.00    +0.000 C 
ATOM     12  C   UNL     1       5.683   4.341  16.776  0.00  0.00    +0.000 C 
ATOM     13  O   UNL     1       4.677   4.059  16.136  0.00  0.00    +0.000 OA
ATOM     14  N   UNL     1       5.804   4.335  18.157  0.00  0.00    +0.000 N 
ATOM     15  H   UNL     1       6.651   4.744  18.536  0.00  0.00    +0.000 HD
ENDBRANCH   5  14
ENDBRANCH   1   9
BRANCH   3  16
ATOM     16  C   UNL     1       1.516   8.256  20.702  0.00  0.00    +0.000 A 
ATOM     17  C   UNL     1       1.139   8.597  22.001  0.00  0.00    +0.000 A 
ATOM     18  C   UNL     1       0.350   9.721  22.226  0.00  0.00    +0.000 A 
ATOM     19  C   UNL     1      -0.083  10.493  21.148  0.00  0.00    +0.000 A 
ATOM     20  C   UNL     1       0.288  10.168  19.830  0.00  0.00    +0.000 A 
ATOM     21  C   UNL     1       1.109   9.046  19.627  0.00  0.00    +0.000 A 
BRANCH  20  22
ATOM     22  C   UNL     1      -0.283  10.986  18.681  0.00  0.00    +0.000 C 
ATOM     23  C   UNL     1       0.445  12.335  18.610  0.00  0.00    +0.000 C 
BRANCH  22  24
ATOM     24  S   UNL     1      -2.076  11.338  18.777  0.00  0.00    +0.000 S 
BRANCH  24  25
ATOM     25  C   UNL     1      -2.630  10.798  17.235  0.00  0.00    +0.000 A 
ATOM     26  N   UNL     1      -1.986  10.039  16.379  0.00  0.00    +0.000 NA
ATOM     27  N   UNL     1      -2.805   9.859  15.285  0.00  0.00    +0.000 NA
ATOM     28  C   UNL     1      -3.920  10.516  15.510  0.00  0.00    +0.000 A 
ATOM     29  N   UNL     1      -3.852  11.129  16.724  0.00  0.00    +0.000 N 
ATOM     30  C   UNL     1      -4.887  11.931  17.320  0.00  0.00    +0.000 C 
ENDBRANCH  24  25
ENDBRANCH  22  24
ENDBRANCH  20  22
ENDBRANCH   3  16
TORSDOF 6
ENDMDL
MODEL 2
REMARK VINA RESULT:      -7.4      6.773      8.843
REMARK  Name = 
REMARK  9 active torsions:
REMARK  status: ('A' for Active; 'I' for Inactive)
REMARK    1  A    between atoms: C_1  and  C_2
REMARK    2  A    between atoms: N_4  and  C_5
REMARK    3  A    between atoms: C_9  and  C_10
REMARK    4  A    between atoms: N_12  and  C_13
REMARK    5  A    between atoms: C_17  and  C_18
REMARK    6  A    between atoms: C_18  and  C_19
REMARK    7  A    between atoms: C_18  and  S_20
REMARK    8  A    between atoms: S_20  and  C_21
REMARK    9  A    between atoms: N_25  and  C_26
REMARK                            x       y       z     vdW  Elec       q    Type
REMARK                         _______ _______ _______ _____ _____    ______ ____
ROOT
ATOM      1  C   UNL     1       7.803   7.595  17.977  0.00  0.00    +0.000 C 
ATOM      2  O   UNL     1       8.470   7.078  18.869  0.00  0.00    +0.000 OA
ATOM      3  N   UNL     1       7.754   8.945  17.689  0.00  0.00    +0.000 N 
ATOM      4  H   UNL     1       6.956   9.256  17.145  0.00  0.00    +0.000 HD
ENDROOT
BRANCH   1   9
ATOM      5  C   UNL     1       4.864   5.571  16.882  0.00  0.00    +0.000 A 
ATOM      6  C   UNL     1       5.443   4.867  15.828  0.00  0.00    +0.000 A 
ATOM      7  C   UNL     1       6.746   5.171  15.460  0.00  0.00    +0.000 A 
ATOM      8  N   UNL     1       7.512   6.095  16.080  0.00  0.00    +0.000 NA
ATOM      9  C   UNL     1       6.927   6.744  17.121  0.00  0.00    +0.000 A 
ATOM     10  C   UNL     1       5.608   6.561  17.511  0.00  0.00    +0.000 A 
BRANCH   5  14
ATOM     11  C   UNL     1       1.758   4.279  18.567  0.00  0.00    +0.000 C 
ATOM     12  C   UNL     1       3.196   4.210  18.135  0.00  0.00    +0.000 C 
ATOM     13  O   UNL     1       3.916   3.270  18.451  0.00  0.00    +0.000 OA
ATOM     14  N   UNL     1       3.575   5.316  17.389  0.00  0.00    +0.000 N 
ATOM     15  H   UNL     1       2.909   6.080  17.347  0.00  0.00    +0.000 HD
ENDBRANCH   5  14
ENDBRANCH   1   9
BRANCH   3  16
ATOM     16  C   UNL     1       8.581   9.895  18.306  0.00  0.00    +0.000 A 
ATOM     17  C   UNL     1       9.023   9.739  19.620  0.00  0.00    +0.000 A 
ATOM     18  C   UNL     1       9.842  10.703  20.200  0.00  0.00    +0.000 A 
ATOM     19  C   UNL     1      10.202  11.837  19.472  0.00  0.00    +0.000 A 
ATOM     20  C   UNL     1       9.769  12.012  18.144  0.00  0.00    +0.000 A 
ATOM     21  C   UNL     1       8.967  11.013  17.568  0.00  0.00    +0.000 A 
BRANCH  20  22
ATOM     22  C   UNL     1      10.112  13.308  17.422  0.00  0.00    +0.000 C 
ATOM     23  C   UNL     1      11.515  13.192  16.814  0.00  0.00    +0.000 C 
BRANCH  22  24
ATOM     24  S   UNL     1      10.088  14.817  18.456  0.00  0.00    +0.000 S 
BRANCH  24  25
ATOM     25  C   UNL     1       8.414  15.235  18.441  0.00  0.00    +0.000 A 
ATOM     26  N   UNL     1       7.395  14.430  18.257  0.00  0.00    +0.000 NA
ATOM     27  N   UNL     1       6.246  15.189  18.327  0.00  0.00    +0.000 NA
ATOM     28  C   UNL     1       6.605  16.433  18.549  0.00  0.00    +0.000 A 
ATOM     29  N   UNL     1       7.962  16.510  18.621  0.00  0.00    +0.000 N 
ATOM     30  C   UNL     1       8.724  17.706  18.865  0.00  0.00    +0.000 C 
ENDBRANCH  24  25
ENDBRANCH  22  24
ENDBRANCH  20  22
ENDBRANCH   3  16
TORSDOF 6
ENDMDL
MODEL 3
REMARK VINA RESULT:      -7.4      1.095      1.107
REMARK  Name = 
REMARK  9 active torsions:
REMARK  status: ('A' for Active; 'I' for Inactive)
REMARK    1  A    between atoms: C_1  and  C_2
REMARK    2  A    between atoms: N_4  and  C_5
REMARK    3  A    between atoms: C_9  and  C_10
REMARK    4  A    between atoms: N_12  and  C_13
REMARK    5  A    between atoms: C_17  and  C_18
REMARK    6  A    between atoms: C_18  and  C_19
REMARK    7  A    between atoms: C_18  and  S_20
REMARK    8  A    between atoms: S_20  and  C_21
REMARK    9  A    between atoms: N_25  and  C_26
REMARK                            x       y       z     vdW  Elec       q    Type
REMARK                         _______ _______ _______ _____ _____    ______ ____
ROOT
ATOM      1  C   UNL     1       2.144   7.040  19.924  0.00  0.00    +0.000 C 
ATOM      2  O   UNL     1       2.192   7.712  18.897  0.00  0.00    +0.000 OA
ATOM      3  N   UNL     1       1.601   7.450  21.127  0.00  0.00    +0.000 N 
ATOM      4  H   UNL     1       1.892   6.928  21.946  0.00  0.00    +0.000 HD
ENDROOT
BRANCH   1   9
ATOM      5  C   UNL     1       4.519   4.234  19.280  0.00  0.00    +0.000 A 
ATOM      6  C   UNL     1       3.684   3.153  19.553  0.00  0.00    +0.000 A 
ATOM      7  C   UNL     1       2.408   3.401  20.039  0.00  0.00    +0.000 A 
ATOM      8  N   UNL     1       1.903   4.637  20.242  0.00  0.00    +0.000 NA
ATOM      9  C   UNL     1       2.733   5.671  19.941  0.00  0.00    +0.000 A 
ATOM     10  C   UNL     1       4.047   5.518  19.523  0.00  0.00    +0.000 A 
BRANCH   5  14
ATOM     11  C   UNL     1       7.700   4.418  17.281  0.00  0.00    +0.000 C 
ATOM     12  C   UNL     1       6.247   4.697  17.548  0.00  0.00    +0.000 C 
ATOM     13  O   UNL     1       5.576   5.383  16.787  0.00  0.00    +0.000 OA
ATOM     14  N   UNL     1       5.809   4.117  18.729  0.00  0.00    +0.000 N 
ATOM     15  H   UNL     1       6.525   3.713  19.324  0.00  0.00    +0.000 HD
ENDBRANCH   5  14
ENDBRANCH   1   9
BRANCH   3  16
ATOM     16  C   UNL     1       0.905   8.657  21.287  0.00  0.00    +0.000 A 
ATOM     17  C   UNL     1       0.489   9.101  22.542  0.00  0.00    +0.000 A 
ATOM     18  C   UNL     1      -0.201  10.304  22.663  0.00  0.00    +0.000 A 
ATOM     19  C   UNL     1      -0.496  11.052  21.523  0.00  0.00    +0.000 A 
ATOM     20  C   UNL     1      -0.082  10.623  20.249  0.00  0.00    +0.000 A 
ATOM     21  C   UNL     1       0.639   9.421  20.152  0.00  0.00    +0.000 A 
BRANCH  20  22
ATOM     22  C   UNL     1      -0.505  11.427  19.027  0.00  0.00    +0.000 C 
ATOM     23  C   UNL     1       0.391  12.667  18.902  0.00  0.00    +0.000 C 
BRANCH  22  24
ATOM     24  S   UNL     1      -2.241  12.005  19.026  0.00  0.00    +0.000 S 
BRANCH  24  25
ATOM     25  C   UNL     1      -2.804  11.445  17.494  0.00  0.00    +0.000 A 
ATOM     26  N   UNL     1      -2.084  10.948  16.516  0.00  0.00    +0.000 NA
ATOM     27  N   UNL     1      -2.945  10.630  15.487  0.00  0.00    +0.000 NA
ATOM     28  C   UNL     1      -4.159  10.948  15.871  0.00  0.00    +0.000 A 
ATOM     29  N   UNL     1      -4.118  11.470  17.128  0.00  0.00    +0.000 N 
ATOM     30  C   UNL     1      -5.253  11.922  17.888  0.00  0.00    +0.000 C 
ENDBRANCH  24  25
ENDBRANCH  22  24
ENDBRANCH  20  22
ENDBRANCH   3  16
TORSDOF 6
ENDMDL
MODEL 4
REMARK VINA RESULT:      -7.4      2.548      3.663
REMARK  Name = 
REMARK  9 active torsions:
REMARK  status: ('A' for Active; 'I' for Inactive)
REMARK    1  A    between atoms: C_1  and  C_2
REMARK    2  A    between atoms: N_4  and  C_5
REMARK    3  A    between atoms: C_9  and  C_10
REMARK    4  A    between atoms: N_12  and  C_13
REMARK    5  A    between atoms: C_17  and  C_18
REMARK    6  A    between atoms: C_18  and  C_19
REMARK    7  A    between atoms: C_18  and  S_20
REMARK    8  A    between atoms: S_20  and  C_21
REMARK    9  A    between atoms: N_25  and  C_26
REMARK                            x       y       z     vdW  Elec       q    Type
REMARK                         _______ _______ _______ _____ _____    ______ ____
ROOT
ATOM      1  C   UNL     1       1.822   8.745  18.239  0.00  0.00    +0.000 C 
ATOM      2  O   UNL     1       2.131   9.349  17.216  0.00  0.00    +0.000 OA
ATOM      3  N   UNL     1       0.794   9.089  19.096  0.00  0.00    +0.000 N 
ATOM      4  H   UNL     1       0.843   8.696  20.030  0.00  0.00    +0.000 HD
ENDROOT
BRANCH   1   9
ATOM      5  C   UNL     1       4.164   5.844  18.057  0.00  0.00    +0.000 A 
ATOM      6  C   UNL     1       3.753   5.140  19.188  0.00  0.00    +0.000 A 
ATOM      7  C   UNL     1       2.796   5.708  20.016  0.00  0.00    +0.000 A 
ATOM      8  N   UNL     1       2.205   6.900  19.783  0.00  0.00    +0.000 NA
ATOM      9  C   UNL     1       2.608   7.549  18.659  0.00  0.00    +0.000 A 
ATOM     10  C   UNL     1       3.611   7.095  17.814  0.00  0.00    +0.000 A 
BRANCH   5  14
ATOM     11  C   UNL     1       7.031   4.335  16.146  0.00  0.00    +0.000 C 
ATOM     12  C   UNL     1       6.334   4.824  17.384  0.00  0.00    +0.000 C 
ATOM     13  O   UNL     1       6.850   4.726  18.491  0.00  0.00    +0.000 OA
ATOM     14  N   UNL     1       5.081   5.351  17.109  0.00  0.00    +0.000 N 
ATOM     15  H   UNL     1       4.734   5.217  16.166  0.00  0.00    +0.000 HD
ENDBRANCH   5  14
ENDBRANCH   1   9
BRANCH   3  16
ATOM     16  C   UNL     1      -0.125  10.113  18.825  0.00  0.00    +0.000 A 
ATOM     17  C   UNL     1       0.071  11.414  19.287  0.00  0.00    +0.000 A 
ATOM     18  C   UNL     1      -0.864  12.404  18.999  0.00  0.00    +0.000 A 
ATOM     19  C   UNL     1      -2.009  12.087  18.267  0.00  0.00    +0.000 A 
ATOM     20  C   UNL     1      -2.223  10.780  17.790  0.00  0.00    +0.000 A 
ATOM     21  C   UNL     1      -1.253   9.803  18.066  0.00  0.00    +0.000 A 
BRANCH  20  22
ATOM     22  C   UNL     1      -3.529  10.462  17.075  0.00  0.00    +0.000 C 
ATOM     23  C   UNL     1      -3.237  10.161  15.599  0.00  0.00    +0.000 C 
BRANCH  22  24
ATOM     24  S   UNL     1      -4.797  11.781  17.124  0.00  0.00    +0.000 S 
BRANCH  24  25
ATOM     25  C   UNL     1      -5.767  11.294  18.464  0.00  0.00    +0.000 A 
ATOM     26  N   UNL     1      -6.417  10.163  18.607  0.00  0.00    +0.000 NA
ATOM     27  N   UNL     1      -7.055  10.201  19.828  0.00  0.00    +0.000 NA
ATOM     28  C   UNL     1      -6.776  11.356  20.388  0.00  0.00    +0.000 A 
ATOM     29  N   UNL     1      -5.972  12.080  19.561  0.00  0.00    +0.000 N 
ATOM     30  C   UNL     1      -5.447  13.391  19.836  0.00  0.00    +0.000 C 
ENDBRANCH  24  25
ENDBRANCH  22  24
ENDBRANCH  20  22
ENDBRANCH   3  16
TORSDOF 6
ENDMDL
MODEL 5
REMARK VINA RESULT:      -7.4      1.634      1.823
REMARK  Name = 
REMARK  9 active torsions:
REMARK  status: ('A' for Active; 'I' for Inactive)
REMARK    1  A    between atoms: C_1  and  C_2
REMARK    2  A    between atoms: N_4  and  C_5
REMARK    3  A    between atoms: C_9  and  C_10
REMARK    4  A    between atoms: N_12  and  C_13
REMARK    5  A    between atoms: C_17  and  C_18
REMARK    6  A    between atoms: C_18  and  C_19
REMARK    7  A    between atoms: C_18  and  S_20
REMARK    8  A    between atoms: S_20  and  C_21
REMARK    9  A    between atoms: N_25  and  C_26
REMARK                            x       y       z     vdW  Elec       q    Type
REMARK                         _______ _______ _______ _____ _____    ______ ____
ROOT
ATOM      1  C   UNL     1       2.844   7.267  18.795  0.00  0.00    +0.000 C 
ATOM      2  O   UNL     1       2.890   8.197  17.996  0.00  0.00    +0.000 OA
ATOM      3  N   UNL     1       2.241   7.305  20.038  0.00  0.00    +0.000 N 
ATOM      4  H   UNL     1       2.532   6.590  20.696  0.00  0.00    +0.000 HD
ENDROOT
BRANCH   1   9
ATOM      5  C   UNL     1       4.653   4.648  16.845  0.00  0.00    +0.000 A 
ATOM      6  C   UNL     1       4.354   3.530  17.622  0.00  0.00    +0.000 A 
ATOM      7  C   UNL     1       3.660   3.709  18.810  0.00  0.00    +0.000 A 
ATOM      8  N   UNL     1       3.223   4.906  19.258  0.00  0.00    +0.000 NA
ATOM      9  C   UNL     1       3.506   5.972  18.464  0.00  0.00    +0.000 A 
ATOM     10  C   UNL     1       4.258   5.900  17.301  0.00  0.00    +0.000 A 
BRANCH   5  14
ATOM     11  C   UNL     1       6.972   4.799  13.888  0.00  0.00    +0.000 C 
ATOM     12  C   UNL     1       6.566   5.073  15.309  0.00  0.00    +0.000 C 
ATOM     13  O   UNL     1       7.317   5.642  16.092  0.00  0.00    +0.000 OA
ATOM     14  N   UNL     1       5.297   4.593  15.595  0.00  0.00    +0.000 N 
ATOM     15  H   UNL     1       4.867   4.007  14.886  0.00  0.00    +0.000 HD
ENDBRANCH   5  14
ENDBRANCH   1   9
BRANCH   3  16
ATOM     16  C   UNL     1       1.476   8.390  20.491  0.00  0.00    +0.000 A 
ATOM     17  C   UNL     1       1.153   8.547  21.838  0.00  0.00    +0.000 A 
ATOM     18  C   UNL     1       0.391   9.637  22.250  0.00  0.00    +0.000 A 
ATOM     19  C   UNL     1      -0.070  10.558  21.309  0.00  0.00    +0.000 A 
ATOM     20  C   UNL     1       0.248  10.418  19.945  0.00  0.00    +0.000 A 
ATOM     21  C   UNL     1       1.043   9.328  19.555  0.00  0.00    +0.000 A 
BRANCH  20  22
ATOM     22  C   UNL     1      -0.353  11.397  18.946  0.00  0.00    +0.000 C 
ATOM     23  C   UNL     1       0.583  12.603  18.794  0.00  0.00    +0.000 C 
BRANCH  22  24
ATOM     24  S   UNL     1      -2.011  12.042  19.372  0.00  0.00    +0.000 S 
BRANCH  24  25
ATOM     25  C   UNL     1      -2.925  11.638  17.965  0.00  0.00    +0.000 A 
ATOM     26  N   UNL     1      -2.461  11.267  16.794  0.00  0.00    +0.000 NA
ATOM     27  N   UNL     1      -3.543  11.043  15.970  0.00  0.00    +0.000 NA
ATOM     28  C   UNL     1      -4.630  11.287  16.665  0.00  0.00    +0.000 A 
ATOM     29  N   UNL     1      -4.289  11.671  17.926  0.00  0.00    +0.000 N 
ATOM     30  C   UNL     1      -5.208  12.010  18.980  0.00  0.00    +0.000 C 
ENDBRANCH  24  25
ENDBRANCH  22  24
ENDBRANCH  20  22
ENDBRANCH   3  16
TORSDOF 6
ENDMDL
MODEL 6
REMARK VINA RESULT:      -7.3      3.325      8.900
REMARK  Name = 
REMARK  9 active torsions:
REMARK  status: ('A' for Active; 'I' for Inactive)
REMARK    1  A    between atoms: C_1  and  C_2
REMARK    2  A    between atoms: N_4  and  C_5
REMARK    3  A    between atoms: C_9  and  C_10
REMARK    4  A    between atoms: N_12  and  C_13
REMARK    5  A    between atoms: C_17  and  C_18
REMARK    6  A    between atoms: C_18  and  C_19
REMARK    7  A    between atoms: C_18  and  S_20
REMARK    8  A    between atoms: S_20  and  C_21
REMARK    9  A    between atoms: N_25  and  C_26
REMARK                            x       y       z     vdW  Elec       q    Type
REMARK                         _______ _______ _______ _____ _____    ______ ____
ROOT
ATOM      1  C   UNL     1       1.115   8.906  20.380  0.00  0.00    +0.000 C 
ATOM      2  O   UNL     1       1.684   8.775  21.460  0.00  0.00    +0.000 OA
ATOM      3  N   UNL     1       1.359   8.154  19.247  0.00  0.00    +0.000 N 
ATOM      4  H   UNL     1       1.045   8.556  18.370  0.00  0.00    +0.000 HD
ENDROOT
BRANCH   1   9
ATOM      5  C   UNL     1      -1.303  11.217  18.724  0.00  0.00    +0.000 A 
ATOM      6  C   UNL     1      -1.462  12.158  19.740  0.00  0.00    +0.000 A 
ATOM      7  C   UNL     1      -0.847  11.930  20.962  0.00  0.00    +0.000 A 
ATOM      8  N   UNL     1      -0.071  10.857  21.230  0.00  0.00    +0.000 NA
ATOM      9  C   UNL     1       0.086   9.972  20.210  0.00  0.00    +0.000 A 
ATOM     10  C   UNL     1      -0.550  10.079  18.982  0.00  0.00    +0.000 A 
BRANCH   5  14
ATOM     11  C   UNL     1      -3.178  11.040  15.467  0.00  0.00    +0.000 C 
ATOM     12  C   UNL     1      -2.812  10.576  16.850  0.00  0.00    +0.000 C 
ATOM     13  O   UNL     1      -3.369   9.618  17.372  0.00  0.00    +0.000 OA
ATOM     14  N   UNL     1      -1.825  11.362  17.424  0.00  0.00    +0.000 N 
ATOM     15  H   UNL     1      -1.579  12.211  16.926  0.00  0.00    +0.000 HD
ENDBRANCH   5  14
ENDBRANCH   1   9
BRANCH   3  16
ATOM     16  C   UNL     1       2.208   7.038  19.231  0.00  0.00    +0.000 A 
ATOM     17  C   UNL     1       2.079   6.006  20.160  0.00  0.00    +0.000 A 
ATOM     18  C   UNL     1       2.941   4.914  20.113  0.00  0.00    +0.000 A 
ATOM     19  C   UNL     1       3.950   4.866  19.150  0.00  0.00    +0.000 A 
ATOM     20  C   UNL     1       4.094   5.897  18.203  0.00  0.00    +0.000 A 
ATOM     21  C   UNL     1       3.195   6.975  18.249  0.00  0.00    +0.000 A 
BRANCH  20  22
ATOM     22  C   UNL     1       5.265   5.844  17.231  0.00  0.00    +0.000 C 
ATOM     23  C   UNL     1       5.081   6.927  16.159  0.00  0.00    +0.000 C 
BRANCH  22  24
ATOM     24  S   UNL     1       5.499   4.250  16.363  0.00  0.00    +0.000 S 
BRANCH  24  25
ATOM     25  C   UNL     1       6.546   4.699  15.067  0.00  0.00    +0.000 A 
ATOM     26  N   UNL     1       7.638   5.422  15.140  0.00  0.00    +0.000 NA
ATOM     27  N   UNL     1       8.155   5.527  13.867  0.00  0.00    +0.000 NA
ATOM     28  C   UNL     1       7.357   4.867  13.058  0.00  0.00    +0.000 A 
ATOM     29  N   UNL     1       6.326   4.334  13.770  0.00  0.00    +0.000 N 
ATOM     30  C   UNL     1       5.258   3.535  13.232  0.00  0.00    +0.000 C 
ENDBRANCH  24  25
ENDBRANCH  22  24
ENDBRANCH  20  22
ENDBRANCH   3  16
TORSDOF 6
ENDMDL
MODEL 7
REMARK VINA RESULT:      -7.3      8.202      9.919
REMARK  Name = 
REMARK  9 active torsions:
REMARK  status: ('A' for Active; 'I' for Inactive)
REMARK    1  A    between atoms: C_1  and  C_2
REMARK    2  A    between atoms: N_4  and  C_5
REMARK    3  A    between atoms: C_9  and  C_10
REMARK    4  A    between atoms: N_12  and  C_13
REMARK    5  A    between atoms: C_17  and  C_18
REMARK    6  A    between atoms: C_18  and  C_19
REMARK    7  A    between atoms: C_18  and  S_20
REMARK    8  A    between atoms: S_20  and  C_21
REMARK    9  A    between atoms: N_25  and  C_26
REMARK                            x       y       z     vdW  Elec       q    Type
REMARK                         _______ _______ _______ _____ _____    ______ ____
ROOT
ATOM      1  C   UNL     1       8.246   8.929  18.270  0.00  0.00    +0.000 C 
ATOM      2  O   UNL     1       7.616   9.693  17.544  0.00  0.00    +0.000 OA
ATOM      3  N   UNL     1       9.202   9.305  19.194  0.00  0.00    +0.000 N 
ATOM      4  H   UNL     1       9.839   8.576  19.497  0.00  0.00    +0.000 HD
ENDROOT
BRANCH   1   9
ATOM      5  C   UNL     1       6.930   5.655  17.051  0.00  0.00    +0.000 A 
ATOM      6  C   UNL     1       7.231   4.857  18.153  0.00  0.00    +0.000 A 
ATOM      7  C   UNL     1       7.950   5.412  19.203  0.00  0.00    +0.000 A 
ATOM      8  N   UNL     1       8.358   6.699  19.243  0.00  0.00    +0.000 NA
ATOM      9  C   UNL     1       8.025   7.458  18.165  0.00  0.00    +0.000 A 
ATOM     10  C   UNL     1       7.377   6.971  17.039  0.00  0.00    +0.000 A 
BRANCH   5  14
ATOM     11  C   UNL     1       5.548   4.494  13.751  0.00  0.00    +0.000 C 
ATOM     12  C   UNL     1       6.627   5.000  14.668  0.00  0.00    +0.000 C 
ATOM     13  O   UNL     1       7.778   5.156  14.279  0.00  0.00    +0.000 OA
ATOM     14  N   UNL     1       6.159   5.229  15.953  0.00  0.00    +0.000 N 
ATOM     15  H   UNL     1       5.220   4.903  16.155  0.00  0.00    +0.000 HD
ENDBRANCH   5  14
ENDBRANCH   1   9
BRANCH   3  16
ATOM     16  C   UNL     1       9.477  10.641  19.518  0.00  0.00    +0.000 A 
ATOM     17  C   UNL     1       9.298  11.134  20.811  0.00  0.00    +0.000 A 
ATOM     18  C   UNL     1       9.581  12.467  21.094  0.00  0.00    +0.000 A 
ATOM     19  C   UNL     1      10.022  13.314  20.078  0.00  0.00    +0.000 A 
ATOM     20  C   UNL     1      10.212  12.836  18.768  0.00  0.00    +0.000 A 
ATOM     21  C   UNL     1       9.949  11.480  18.510  0.00  0.00    +0.000 A 
BRANCH  20  22
ATOM     22  C   UNL     1      10.607  13.819  17.675  0.00  0.00    +0.000 C 
ATOM     23  C   UNL     1      11.487  13.101  16.643  0.00  0.00    +0.000 C 
BRANCH  22  24
ATOM     24  S   UNL     1      11.523  15.299  18.238  0.00  0.00    +0.000 S 
BRANCH  24  25
ATOM     25  C   UNL     1      10.297  16.512  18.206  0.00  0.00    +0.000 A 
ATOM     26  N   UNL     1       9.022  16.362  18.479  0.00  0.00    +0.000 NA
ATOM     27  N   UNL     1       8.417  17.592  18.328  0.00  0.00    +0.000 NA
ATOM     28  C   UNL     1       9.343  18.450  17.967  0.00  0.00    +0.000 A 
ATOM     29  N   UNL     1      10.542  17.812  17.871  0.00  0.00    +0.000 N 
ATOM     30  C   UNL     1      11.793  18.425  17.511  0.00  0.00    +0.000 C 
ENDBRANCH  24  25
ENDBRANCH  22  24
ENDBRANCH  20  22
ENDBRANCH   3  16
TORSDOF 6
ENDMDL
MODEL 8
REMARK VINA RESULT:      -7.3      3.260      4.480
REMARK  Name = 
REMARK  9 active torsions:
REMARK  status: ('A' for Active; 'I' for Inactive)
REMARK    1  A    between atoms: C_1  and  C_2
REMARK    2  A    between atoms: N_4  and  C_5
REMARK    3  A    between atoms: C_9  and  C_10
REMARK    4  A    between atoms: N_12  and  C_13
REMARK    5  A    between atoms: C_17  and  C_18
REMARK    6  A    between atoms: C_18  and  C_19
REMARK    7  A    between atoms: C_18  and  S_20
REMARK    8  A    between atoms: S_20  and  C_21
REMARK    9  A    between atoms: N_25  and  C_26
REMARK                            x       y       z     vdW  Elec       q    Type
REMARK                         _______ _______ _______ _____ _____    ______ ____
ROOT
ATOM      1  C   UNL     1       2.742   6.628  18.690  0.00  0.00    +0.000 C 
ATOM      2  O   UNL     1       1.820   5.956  19.145  0.00  0.00    +0.000 OA
ATOM      3  N   UNL     1       2.688   7.980  18.409  0.00  0.00    +0.000 N 
ATOM      4  H   UNL     1       3.397   8.331  17.775  0.00  0.00    +0.000 HD
ENDROOT
BRANCH   1   9
ATOM      5  C   UNL     1       5.325   4.696  16.812  0.00  0.00    +0.000 A 
ATOM      6  C   UNL     1       6.207   4.411  17.853  0.00  0.00    +0.000 A 
ATOM      7  C   UNL     1       5.962   4.959  19.104  0.00  0.00    +0.000 A 
ATOM      8  N   UNL     1       4.898   5.738  19.393  0.00  0.00    +0.000 NA
ATOM      9  C   UNL     1       4.042   5.976  18.363  0.00  0.00    +0.000 A 
ATOM     10  C   UNL     1       4.245   5.534  17.064  0.00  0.00    +0.000 A 
BRANCH   5  14
ATOM     11  C   UNL     1       6.188   3.749  13.275  0.00  0.00    +0.000 C 
ATOM     12  C   UNL     1       6.292   4.585  14.520  0.00  0.00    +0.000 C 
ATOM     13  O   UNL     1       7.081   5.519  14.600  0.00  0.00    +0.000 OA
ATOM     14  N   UNL     1       5.430   4.155  15.516  0.00  0.00    +0.000 N 
ATOM     15  H   UNL     1       4.955   3.274  15.351  0.00  0.00    +0.000 HD
ENDBRANCH   5  14
ENDBRANCH   1   9
BRANCH   3  16
ATOM     16  C   UNL     1       1.596   8.793  18.743  0.00  0.00    +0.000 A 
ATOM     17  C   UNL     1       0.729   9.292  17.770  0.00  0.00    +0.000 A 
ATOM     18  C   UNL     1      -0.345  10.097  18.138  0.00  0.00    +0.000 A 
ATOM     19  C   UNL     1      -0.538  10.425  19.481  0.00  0.00    +0.000 A 
ATOM     20  C   UNL     1       0.323   9.930  20.477  0.00  0.00    +0.000 A 
ATOM     21  C   UNL     1       1.383   9.095  20.087  0.00  0.00    +0.000 A 
BRANCH  20  22
ATOM     22  C   UNL     1       0.125  10.388  21.915  0.00  0.00    +0.000 C 
ATOM     23  C   UNL     1      -0.124   9.164  22.807  0.00  0.00    +0.000 C 
BRANCH  22  24
ATOM     24  S   UNL     1      -1.258  11.554  22.189  0.00  0.00    +0.000 S 
BRANCH  24  25
ATOM     25  C   UNL     1      -0.435  13.067  22.297  0.00  0.00    +0.000 A 
ATOM     26  N   UNL     1       0.719  13.385  21.760  0.00  0.00    +0.000 NA
ATOM     27  N   UNL     1       0.991  14.692  22.101  0.00  0.00    +0.000 NA
ATOM     28  C   UNL     1      -0.006  15.127  22.837  0.00  0.00    +0.000 A 
ATOM     29  N   UNL     1      -0.925  14.134  22.992  0.00  0.00    +0.000 N 
ATOM     30  C   UNL     1      -2.158  14.238  23.726  0.00  0.00    +0.000 C 
ENDBRANCH  24  25
ENDBRANCH  22  24
ENDBRANCH  20  22
ENDBRANCH   3  16
TORSDOF 6
ENDMDL
MODEL 9
REMARK VINA RESULT:      -7.2      3.235      4.286
REMARK  Name = 
REMARK  9 active torsions:
REMARK  status: ('A' for Active; 'I' for Inactive)
REMARK    1  A    between atoms: C_1  and  C_2
REMARK    2  A    between atoms: N_4  and  C_5
REMARK    3  A    between atoms: C_9  and  C_10
REMARK    4  A    between atoms: N_12  and  C_13
REMARK    5  A    between atoms: C_17  and  C_18
REMARK    6  A    between atoms: C_18  and  C_19
REMARK    7  A    between atoms: C_18  and  S_20
REMARK    8  A    between atoms: S_20  and  C_21
REMARK    9  A    between atoms: N_25  and  C_26
REMARK                            x       y       z     vdW  Elec       q    Type
REMARK                         _______ _______ _______ _____ _____    ______ ____
ROOT
ATOM      1  C   UNL     1       2.023   8.733  18.203  0.00  0.00    +0.000 C 
ATOM      2  O   UNL     1       2.176   9.329  17.141  0.00  0.00    +0.000 OA
ATOM      3  N   UNL     1       1.195   9.132  19.235  0.00  0.00    +0.000 N 
ATOM      4  H   UNL     1       1.389   8.725  20.144  0.00  0.00    +0.000 HD
ENDROOT
BRANCH   1   9
ATOM      5  C   UNL     1       4.186   5.750  17.609  0.00  0.00    +0.000 A 
ATOM      6  C   UNL     1       3.872   5.004  18.744  0.00  0.00    +0.000 A 
ATOM      7  C   UNL     1       3.043   5.566  19.704  0.00  0.00    +0.000 A 
ATOM      8  N   UNL     1       2.489   6.793  19.600  0.00  0.00    +0.000 NA
ATOM      9  C   UNL     1       2.792   7.484  18.470  0.00  0.00    +0.000 A 
ATOM     10  C   UNL     1       3.670   7.035  17.494  0.00  0.00    +0.000 A 
BRANCH   5  14
ATOM     11  C   UNL     1       6.804   4.948  15.030  0.00  0.00    +0.000 C 
ATOM     12  C   UNL     1       6.231   5.715  16.189  0.00  0.00    +0.000 C 
ATOM     13  O   UNL     1       6.862   6.609  16.740  0.00  0.00    +0.000 OA
ATOM     14  N   UNL     1       4.965   5.271  16.539  0.00  0.00    +0.000 N 
ATOM     15  H   UNL     1       4.646   4.420  16.088  0.00  0.00    +0.000 HD
ENDBRANCH   5  14
ENDBRANCH   1   9
BRANCH   3  16
ATOM     16  C   UNL     1       0.310  10.216  19.139  0.00  0.00    +0.000 A 
ATOM     17  C   UNL     1      -0.935  10.093  18.523  0.00  0.00    +0.000 A 
ATOM     18  C   UNL     1      -1.786  11.191  18.445  0.00  0.00    +0.000 A 
ATOM     19  C   UNL     1      -1.381  12.422  18.963  0.00  0.00    +0.000 A 
ATOM     20  C   UNL     1      -0.130  12.566  19.591  0.00  0.00    +0.000 A 
ATOM     21  C   UNL     1       0.702  11.438  19.685  0.00  0.00    +0.000 A 
BRANCH  20  22
ATOM     22  C   UNL     1       0.304  13.947  20.060  0.00  0.00    +0.000 C 
ATOM     23  C   UNL     1       1.685  14.269  19.473  0.00  0.00    +0.000 C 
BRANCH  22  24
ATOM     24  S   UNL     1       0.415  14.168  21.872  0.00  0.00    +0.000 S 
BRANCH  24  25
ATOM     25  C   UNL     1      -0.818  13.103  22.439  0.00  0.00    +0.000 A 
ATOM     26  N   UNL     1      -0.660  11.910  22.963  0.00  0.00    +0.000 NA
ATOM     27  N   UNL     1      -1.912  11.423  23.274  0.00  0.00    +0.000 NA
ATOM     28  C   UNL     1      -2.791  12.334  22.926  0.00  0.00    +0.000 A 
ATOM     29  N   UNL     1      -2.147  13.408  22.390  0.00  0.00    +0.000 N 
ATOM     30  C   UNL     1      -2.775  14.608  21.905  0.00  0.00    +0.000 C 
ENDBRANCH  24  25
ENDBRANCH  22  24
ENDBRANCH  20  22
ENDBRANCH   3  16
TORSDOF 6
ENDMDL
