MODEL 1
REMARK VINA RESULT:      -8.8      0.000      0.000
REMARK  Name = 
REMARK  10 active torsions:
REMARK  status: ('A' for Active; 'I' for Inactive)
REMARK    1  A    between atoms: C_1  and  C_2
REMARK    2  A    between atoms: C_2  and  C_3
REMARK    3  A    between atoms: C_2  and  C_10
REMARK    4  A    between atoms: C_3  and  C_4
REMARK    5  A    between atoms: N_8  and  C_9
REMARK    6  A    between atoms: C_12  and  O_13
REMARK    7  A    between atoms: O_13  and  C_14
REMARK    8  A    between atoms: C_14  and  C_15
REMARK    9  A    between atoms: C_15  and  O_16
REMARK   10  A    between atoms: C_26  and  C_27
REMARK                            x       y       z     vdW  Elec       q    Type
REMARK                         _______ _______ _______ _____ _____    ______ ____
ROOT
ATOM      1  C   UNL     1       4.704   5.107  16.833  0.00  0.00    +0.000 A 
ATOM      2  C   UNL     1       4.638   3.830  17.402  0.00  0.00    +0.000 A 
ATOM      3  C   UNL     1       3.805   3.631  18.489  0.00  0.00    +0.000 A 
ATOM      4  N   UNL     1       3.110   4.615  19.082  0.00  0.00    +0.000 NA
ATOM      5  C   UNL     1       3.191   5.856  18.579  0.00  0.00    +0.000 A 
ATOM      6  N   UNL     1       2.456   6.879  19.201  0.00  0.00    +0.000 N 
ATOM      7  C   UNL     1       2.408   8.234  18.690  0.00  0.00    +0.000 C 
ATOM      8  C   UNL     1       1.505   8.935  19.651  0.00  0.00    +0.000 A 
ATOM      9  C   UNL     1       1.092   8.033  20.629  0.00  0.00    +0.000 A 
ATOM     10  C   UNL     1       0.258   8.395  21.672  0.00  0.00    +0.000 A 
ATOM     11  C   UNL     1      -0.170   9.721  21.718  0.00  0.00    +0.000 A 
ATOM     12  C   UNL     1       0.231  10.639  20.730  0.00  0.00    +0.000 A 
ATOM     13  C   UNL     1       1.078  10.258  19.670  0.00  0.00    +0.000 A 
ATOM     14  C   UNL     1       1.682   6.720  20.348  0.00  0.00    +0.000 C 
ATOM     15  O   UNL     1       1.463   5.752  21.054  0.00  0.00    +0.000 OA
ATOM     16  C   UNL     1       3.968   6.125  17.453  0.00  0.00    +0.000 A 
ENDROOT
BRANCH  13  17
ATOM     17  C   UNL     1       1.475  11.262  18.619  0.00  0.00    +0.000 C 
ATOM     18  F   UNL     1       2.060  10.703  17.523  0.00  0.00    +0.000 F 
ATOM     19  F   UNL     1       0.413  11.973  18.153  0.00  0.00    +0.000 F 
ATOM     20  F   UNL     1       2.366  12.178  19.086  0.00  0.00    +0.000 F 
ENDBRANCH  13  17
BRANCH   1  22
ATOM     21  C   UNL     1       5.079   4.487  14.344  0.00  0.00    +0.000 C 
ATOM     22  C   UNL     1       5.499   5.347  15.552  0.00  0.00    +0.000 C 
BRANCH  22  23
ATOM     23  C   UNL     1       7.026   5.249  15.791  0.00  0.00    +0.000 C 
BRANCH  23  24
ATOM     24  C   UNL     1       7.417   5.425  17.224  0.00  0.00    +0.000 A 
ATOM     25  N   UNL     1       7.674   4.460  18.086  0.00  0.00    +0.000 NA
ATOM     26  N   UNL     1       7.939   5.031  19.307  0.00  0.00    +0.000 NA
ATOM     27  C   UNL     1       7.865   6.332  19.161  0.00  0.00    +0.000 A 
ATOM     28  N   UNL     1       7.559   6.628  17.869  0.00  0.00    +0.000 N 
ATOM     29  C   UNL     1       7.440   7.948  17.313  0.00  0.00    +0.000 C 
ENDBRANCH  23  24
ENDBRANCH  22  23
ENDBRANCH   1  22
BRANCH   3  30
ATOM     30  O   UNL     1       3.664   2.340  18.961  0.00  0.00    +0.000 OA
BRANCH  30  31
ATOM     31  C   UNL     1       2.518   2.218  19.816  0.00  0.00    +0.000 C 
BRANCH  31  32
ATOM     32  C   UNL     1       2.940   2.428  21.266  0.00  0.00    +0.000 C 
BRANCH  32  33
ATOM     33  O   UNL     1       1.834   2.807  22.080  0.00  0.00    +0.000 OA
ATOM     34  H   UNL     1       2.139   3.514  22.676  0.00  0.00    +0.000 HD
ENDBRANCH  32  33
ENDBRANCH  31  32
ENDBRANCH  30  31
ENDBRANCH   3  30
TORSDOF 8
ENDMDL
MODEL 2
REMARK VINA RESULT:      -8.7      0.748      1.231
REMARK  Name = 
REMARK  10 active torsions:
REMARK  status: ('A' for Active; 'I' for Inactive)
REMARK    1  A    between atoms: C_1  and  C_2
REMARK    2  A    between atoms: C_2  and  C_3
REMARK    3  A    between atoms: C_2  and  C_10
REMARK    4  A    between atoms: C_3  and  C_4
REMARK    5  A    between atoms: N_8  and  C_9
REMARK    6  A    between atoms: C_12  and  O_13
REMARK    7  A    between atoms: O_13  and  C_14
REMARK    8  A    between atoms: C_14  and  C_15
REMARK    9  A    between atoms: C_15  and  O_16
REMARK   10  A    between atoms: C_26  and  C_27
REMARK                            x       y       z     vdW  Elec       q    Type
REMARK                         _______ _______ _______ _____ _____    ______ ____
ROOT
ATOM      1  C   UNL     1       4.635   5.350  17.218  0.00  0.00    +0.000 A 
ATOM      2  C   UNL     1       4.507   4.077  17.788  0.00  0.00    +0.000 A 
ATOM      3  C   UNL     1       3.605   3.902  18.823  0.00  0.00    +0.000 A 
ATOM      4  N   UNL     1       2.898   4.904  19.368  0.00  0.00    +0.000 NA
ATOM      5  C   UNL     1       3.037   6.140  18.866  0.00  0.00    +0.000 A 
ATOM      6  N   UNL     1       2.288   7.183  19.438  0.00  0.00    +0.000 N 
ATOM      7  C   UNL     1       2.301   8.535  18.920  0.00  0.00    +0.000 C 
ATOM      8  C   UNL     1       1.357   9.261  19.821  0.00  0.00    +0.000 A 
ATOM      9  C   UNL     1       0.866   8.374  20.777  0.00  0.00    +0.000 A 
ATOM     10  C   UNL     1      -0.022   8.760  21.766  0.00  0.00    +0.000 A 
ATOM     11  C   UNL     1      -0.423  10.094  21.780  0.00  0.00    +0.000 A 
ATOM     12  C   UNL     1       0.057  10.999  20.814  0.00  0.00    +0.000 A 
ATOM     13  C   UNL     1       0.958  10.593  19.809  0.00  0.00    +0.000 A 
ATOM     14  C   UNL     1       1.442   7.046  20.537  0.00  0.00    +0.000 C 
ATOM     15  O   UNL     1       1.160   6.087  21.233  0.00  0.00    +0.000 OA
ATOM     16  C   UNL     1       3.886   6.386  17.788  0.00  0.00    +0.000 A 
ENDROOT
BRANCH  13  17
ATOM     17  C   UNL     1       1.441  11.583  18.780  0.00  0.00    +0.000 C 
ATOM     18  F   UNL     1       2.093  11.007  17.732  0.00  0.00    +0.000 F 
ATOM     19  F   UNL     1       0.422  12.302  18.236  0.00  0.00    +0.000 F 
ATOM     20  F   UNL     1       2.309  12.492  19.301  0.00  0.00    +0.000 F 
ENDBRANCH  13  17
BRANCH   1  22
ATOM     21  C   UNL     1       5.194   4.656  14.784  0.00  0.00    +0.000 C 
ATOM     22  C   UNL     1       5.511   5.565  15.987  0.00  0.00    +0.000 C 
BRANCH  22  23
ATOM     23  C   UNL     1       7.020   5.510  16.333  0.00  0.00    +0.000 C 
BRANCH  23  24
ATOM     24  C   UNL     1       7.477   6.650  17.187  0.00  0.00    +0.000 A 
ATOM     25  N   UNL     1       7.548   7.916  16.823  0.00  0.00    +0.000 NA
ATOM     26  N   UNL     1       8.067   8.638  17.870  0.00  0.00    +0.000 NA
ATOM     27  C   UNL     1       8.278   7.805  18.860  0.00  0.00    +0.000 A 
ATOM     28  N   UNL     1       7.906   6.550  18.485  0.00  0.00    +0.000 N 
ATOM     29  C   UNL     1       7.943   5.378  19.317  0.00  0.00    +0.000 C 
ENDBRANCH  23  24
ENDBRANCH  22  23
ENDBRANCH   1  22
BRANCH   3  30
ATOM     30  O   UNL     1       3.407   2.617  19.291  0.00  0.00    +0.000 OA
BRANCH  30  31
ATOM     31  C   UNL     1       2.142   2.492  19.957  0.00  0.00    +0.000 C 
BRANCH  31  32
ATOM     32  C   UNL     1       2.370   2.317  21.454  0.00  0.00    +0.000 C 
BRANCH  32  33
ATOM     33  O   UNL     1       2.215   3.550  22.151  0.00  0.00    +0.000 OA
ATOM     34  H   UNL     1       2.715   3.479  22.984  0.00  0.00    +0.000 HD
ENDBRANCH  32  33
ENDBRANCH  31  32
ENDBRANCH  30  31
ENDBRANCH   3  30
TORSDOF 8
ENDMDL
MODEL 3
REMARK VINA RESULT:      -8.6      4.736      9.394
REMARK  Name = 
REMARK  10 active torsions:
REMARK  status: ('A' for Active; 'I' for Inactive)
REMARK    1  A    between atoms: C_1  and  C_2
REMARK    2  A    between atoms: C_2  and  C_3
REMARK    3  A    between atoms: C_2  and  C_10
REMARK    4  A    between atoms: C_3  and  C_4
REMARK    5  A    between atoms: N_8  and  C_9
REMARK    6  A    between atoms: C_12  and  O_13
REMARK    7  A    between atoms: O_13  and  C_14
REMARK    8  A    between atoms: C_14  and  C_15
REMARK    9  A    between atoms: C_15  and  O_16
REMARK   10  A    between atoms: C_26  and  C_27
REMARK                            x       y       z     vdW  Elec       q    Type
REMARK                         _______ _______ _______ _____ _____    ______ ____
ROOT
ATOM      1  C   UNL     1       0.496  10.339  21.340  0.00  0.00    +0.000 A 
ATOM      2  C   UNL     1       0.659  11.353  20.388  0.00  0.00    +0.000 A 
ATOM      3  C   UNL     1       1.213  11.028  19.162  0.00  0.00    +0.000 A 
ATOM      4  N   UNL     1       1.678   9.807  18.858  0.00  0.00    +0.000 NA
ATOM      5  C   UNL     1       1.572   8.829  19.771  0.00  0.00    +0.000 A 
ATOM      6  N   UNL     1       2.055   7.551  19.443  0.00  0.00    +0.000 N 
ATOM      7  C   UNL     1       1.915   6.409  20.322  0.00  0.00    +0.000 C 
ATOM      8  C   UNL     1       2.547   5.297  19.550  0.00  0.00    +0.000 A 
ATOM      9  C   UNL     1       3.012   5.794  18.335  0.00  0.00    +0.000 A 
ATOM     10  C   UNL     1       3.663   5.001  17.406  0.00  0.00    +0.000 A 
ATOM     11  C   UNL     1       3.844   3.657  17.727  0.00  0.00    +0.000 A 
ATOM     12  C   UNL     1       3.369   3.140  18.947  0.00  0.00    +0.000 A 
ATOM     13  C   UNL     1       2.704   3.957  19.884  0.00  0.00    +0.000 A 
ATOM     14  C   UNL     1       2.696   7.224  18.250  0.00  0.00    +0.000 C 
ATOM     15  O   UNL     1       2.989   7.891  17.274  0.00  0.00    +0.000 OA
ATOM     16  C   UNL     1       0.977   9.065  21.009  0.00  0.00    +0.000 A 
ENDROOT
BRANCH  13  17
ATOM     17  C   UNL     1       2.194   3.368  21.174  0.00  0.00    +0.000 C 
ATOM     18  F   UNL     1       2.446   4.143  22.265  0.00  0.00    +0.000 F 
ATOM     19  F   UNL     1       0.847   3.174  21.158  0.00  0.00    +0.000 F 
ATOM     20  F   UNL     1       2.747   2.155  21.446  0.00  0.00    +0.000 F 
ENDBRANCH  13  17
BRANCH   1  22
ATOM     21  C   UNL     1      -0.513   9.374  23.524  0.00  0.00    +0.000 C 
ATOM     22  C   UNL     1      -0.233  10.615  22.652  0.00  0.00    +0.000 C 
BRANCH  22  23
ATOM     23  C   UNL     1      -1.528  11.436  22.434  0.00  0.00    +0.000 C 
BRANCH  23  24
ATOM     24  C   UNL     1      -1.505  12.772  23.107  0.00  0.00    +0.000 A 
ATOM     25  N   UNL     1      -0.451  13.548  23.263  0.00  0.00    +0.000 NA
ATOM     26  N   UNL     1      -0.832  14.658  23.977  0.00  0.00    +0.000 NA
ATOM     27  C   UNL     1      -2.116  14.550  24.219  0.00  0.00    +0.000 A 
ATOM     28  N   UNL     1      -2.586  13.394  23.678  0.00  0.00    +0.000 N 
ATOM     29  C   UNL     1      -3.954  12.952  23.694  0.00  0.00    +0.000 C 
ENDBRANCH  23  24
ENDBRANCH  22  23
ENDBRANCH   1  22
BRANCH   3  30
ATOM     30  O   UNL     1       1.255  12.015  18.196  0.00  0.00    +0.000 OA
BRANCH  30  31
ATOM     31  C   UNL     1       1.056  13.316  18.768  0.00  0.00    +0.000 C 
BRANCH  31  32
ATOM     32  C   UNL     1      -0.336  13.824  18.408  0.00  0.00    +0.000 C 
BRANCH  32  33
ATOM     33  O   UNL     1      -0.960  12.987  17.438  0.00  0.00    +0.000 OA
ATOM     34  H   UNL     1      -1.875  12.832  17.733  0.00  0.00    +0.000 HD
ENDBRANCH  32  33
ENDBRANCH  31  32
ENDBRANCH  30  31
ENDBRANCH   3  30
TORSDOF 8
ENDMDL
MODEL 4
REMARK VINA RESULT:      -8.6      4.776      9.427
REMARK  Name = 
REMARK  10 active torsions:
REMARK  status: ('A' for Active; 'I' for Inactive)
REMARK    1  A    between atoms: C_1  and  C_2
REMARK    2  A    between atoms: C_2  and  C_3
REMARK    3  A    between atoms: C_2  and  C_10
REMARK    4  A    between atoms: C_3  and  C_4
REMARK    5  A    between atoms: N_8  and  C_9
REMARK    6  A    between atoms: C_12  and  O_13
REMARK    7  A    between atoms: O_13  and  C_14
REMARK    8  A    between atoms: C_14  and  C_15
REMARK    9  A    between atoms: C_15  and  O_16
REMARK   10  A    between atoms: C_26  and  C_27
REMARK                            x       y       z     vdW  Elec       q    Type
REMARK                         _______ _______ _______ _____ _____    ______ ____
ROOT
ATOM      1  C   UNL     1       0.447  10.563  21.262  0.00  0.00    +0.000 A 
ATOM      2  C   UNL     1       0.652  11.610  20.355  0.00  0.00    +0.000 A 
ATOM      3  C   UNL     1       1.244  11.325  19.137  0.00  0.00    +0.000 A 
ATOM      4  N   UNL     1       1.708  10.110  18.803  0.00  0.00    +0.000 NA
ATOM      5  C   UNL     1       1.561   9.101  19.675  0.00  0.00    +0.000 A 
ATOM      6  N   UNL     1       2.043   7.831  19.317  0.00  0.00    +0.000 N 
ATOM      7  C   UNL     1       1.861   6.659  20.147  0.00  0.00    +0.000 C 
ATOM      8  C   UNL     1       2.509   5.569  19.356  0.00  0.00    +0.000 A 
ATOM      9  C   UNL     1       3.020   6.105  18.176  0.00  0.00    +0.000 A 
ATOM     10  C   UNL     1       3.695   5.341  17.241  0.00  0.00    +0.000 A 
ATOM     11  C   UNL     1       3.851   3.984  17.518  0.00  0.00    +0.000 A 
ATOM     12  C   UNL     1       3.330   3.427  18.701  0.00  0.00    +0.000 A 
ATOM     13  C   UNL     1       2.641   4.216  19.645  0.00  0.00    +0.000 A 
ATOM     14  C   UNL     1       2.721   7.541  18.135  0.00  0.00    +0.000 C 
ATOM     15  O   UNL     1       3.053   8.241  17.194  0.00  0.00    +0.000 OA
ATOM     16  C   UNL     1       0.926   9.298  20.901  0.00  0.00    +0.000 A 
ENDROOT
BRANCH  13  17
ATOM     17  C   UNL     1       2.082   3.585  20.893  0.00  0.00    +0.000 C 
ATOM     18  F   UNL     1       2.446   4.228  22.039  0.00  0.00    +0.000 F 
ATOM     19  F   UNL     1       0.722   3.560  20.896  0.00  0.00    +0.000 F 
ATOM     20  F   UNL     1       2.484   2.295  21.050  0.00  0.00    +0.000 F 
ENDBRANCH  13  17
BRANCH   1  22
ATOM     21  C   UNL     1      -0.701   9.525  23.341  0.00  0.00    +0.000 C 
ATOM     22  C   UNL     1      -0.324  10.798  22.558  0.00  0.00    +0.000 C 
BRANCH  22  23
ATOM     23  C   UNL     1      -1.567  11.696  22.339  0.00  0.00    +0.000 C 
BRANCH  23  24
ATOM     24  C   UNL     1      -1.531  12.966  23.128  0.00  0.00    +0.000 A 
ATOM     25  N   UNL     1      -0.468  13.715  23.352  0.00  0.00    +0.000 NA
ATOM     26  N   UNL     1      -0.838  14.760  24.163  0.00  0.00    +0.000 NA
ATOM     27  C   UNL     1      -2.123  14.644  24.396  0.00  0.00    +0.000 A 
ATOM     28  N   UNL     1      -2.605  13.546  23.754  0.00  0.00    +0.000 N 
ATOM     29  C   UNL     1      -3.977  13.118  23.732  0.00  0.00    +0.000 C 
ENDBRANCH  23  24
ENDBRANCH  22  23
ENDBRANCH   1  22
BRANCH   3  30
ATOM     30  O   UNL     1       1.328  12.347  18.210  0.00  0.00    +0.000 OA
BRANCH  30  31
ATOM     31  C   UNL     1       1.437  13.626  18.851  0.00  0.00    +0.000 C 
BRANCH  31  32
ATOM     32  C   UNL     1       2.878  14.118  18.766  0.00  0.00    +0.000 C 
BRANCH  32  33
ATOM     33  O   UNL     1       3.589  13.465  17.718  0.00  0.00    +0.000 OA
ATOM     34  H   UNL     1       4.484  13.846  17.692  0.00  0.00    +0.000 HD
ENDBRANCH  32  33
ENDBRANCH  31  32
ENDBRANCH  30  31
ENDBRANCH   3  30
TORSDOF 8
ENDMDL
MODEL 5
REMARK VINA RESULT:      -8.4      1.784      2.698
REMARK  Name = 
REMARK  10 active torsions:
REMARK  status: ('A' for Active; 'I' for Inactive)
REMARK    1  A    between atoms: C_1  and  C_2
REMARK    2  A    between atoms: C_2  and  C_3
REMARK    3  A    between atoms: C_2  and  C_10
REMARK    4  A    between atoms: C_3  and  C_4
REMARK    5  A    between atoms: N_8  and  C_9
REMARK    6  A    between atoms: C_12  and  O_13
REMARK    7  A    between atoms: O_13  and  C_14
REMARK    8  A    between atoms: C_14  and  C_15
REMARK    9  A    between atoms: C_15  and  O_16
REMARK   10  A    between atoms: C_26  and  C_27
REMARK                            x       y       z     vdW  Elec       q    Type
REMARK                         _______ _______ _______ _____ _____    ______ ____
ROOT
ATOM      1  C   UNL     1       4.611   5.495  17.197  0.00  0.00    +0.000 A 
ATOM      2  C   UNL     1       4.531   4.199  17.720  0.00  0.00    +0.000 A 
ATOM      3  C   UNL     1       3.647   3.955  18.757  0.00  0.00    +0.000 A 
ATOM      4  N   UNL     1       2.915   4.912  19.348  0.00  0.00    +0.000 NA
ATOM      5  C   UNL     1       3.008   6.170  18.891  0.00  0.00    +0.000 A 
ATOM      6  N   UNL     1       2.233   7.166  19.510  0.00  0.00    +0.000 N 
ATOM      7  C   UNL     1       2.196   8.536  19.043  0.00  0.00    +0.000 C 
ATOM      8  C   UNL     1       1.240   9.197  19.982  0.00  0.00    +0.000 A 
ATOM      9  C   UNL     1       0.789   8.259  20.908  0.00  0.00    +0.000 A 
ATOM     10  C   UNL     1      -0.099   8.578  21.920  0.00  0.00    +0.000 A 
ATOM     11  C   UNL     1      -0.542   9.897  21.989  0.00  0.00    +0.000 A 
ATOM     12  C   UNL     1      -0.103  10.853  21.054  0.00  0.00    +0.000 A 
ATOM     13  C   UNL     1       0.799  10.515  20.024  0.00  0.00    +0.000 A 
ATOM     14  C   UNL     1       1.405   6.961  20.612  0.00  0.00    +0.000 C 
ATOM     15  O   UNL     1       1.162   5.967  21.274  0.00  0.00    +0.000 OA
ATOM     16  C   UNL     1       3.835   6.484  17.815  0.00  0.00    +0.000 A 
ENDROOT
BRANCH  13  17
ATOM     17  C   UNL     1       1.237  11.558  19.029  0.00  0.00    +0.000 C 
ATOM     18  F   UNL     1       2.092  12.482  19.549  0.00  0.00    +0.000 F 
ATOM     19  F   UNL     1       1.878  11.016  17.959  0.00  0.00    +0.000 F 
ATOM     20  F   UNL     1       0.190  12.266  18.524  0.00  0.00    +0.000 F 
ENDBRANCH  13  17
BRANCH   1  22
ATOM     21  C   UNL     1       4.925   6.887  15.034  0.00  0.00    +0.000 C 
ATOM     22  C   UNL     1       5.465   5.785  15.967  0.00  0.00    +0.000 C 
BRANCH  22  23
ATOM     23  C   UNL     1       5.786   4.498  15.167  0.00  0.00    +0.000 C 
BRANCH  23  24
ATOM     24  C   UNL     1       6.699   4.731  14.005  0.00  0.00    +0.000 A 
ATOM     25  N   UNL     1       7.772   5.498  13.999  0.00  0.00    +0.000 NA
ATOM     26  N   UNL     1       8.301   5.491  12.731  0.00  0.00    +0.000 NA
ATOM     27  C   UNL     1       7.558   4.699  11.996  0.00  0.00    +0.000 A 
ATOM     28  N   UNL     1       6.552   4.185  12.755  0.00  0.00    +0.000 N 
ATOM     29  C   UNL     1       5.563   3.240  12.314  0.00  0.00    +0.000 C 
ENDBRANCH  23  24
ENDBRANCH  22  23
ENDBRANCH   1  22
BRANCH   3  30
ATOM     30  O   UNL     1       3.496   2.647  19.178  0.00  0.00    +0.000 OA
BRANCH  30  31
ATOM     31  C   UNL     1       2.325   2.492  19.991  0.00  0.00    +0.000 C 
BRANCH  31  32
ATOM     32  C   UNL     1       2.732   2.395  21.458  0.00  0.00    +0.000 C 
BRANCH  32  33
ATOM     33  O   UNL     1       2.168   3.454  22.225  0.00  0.00    +0.000 OA
ATOM     34  H   UNL     1       1.207   3.305  22.265  0.00  0.00    +0.000 HD
ENDBRANCH  32  33
ENDBRANCH  31  32
ENDBRANCH  30  31
ENDBRANCH   3  30
TORSDOF 8
ENDMDL
MODEL 6
REMARK VINA RESULT:      -8.3      1.765      2.906
REMARK  Name = 
REMARK  10 active torsions:
REMARK  status: ('A' for Active; 'I' for Inactive)
REMARK    1  A    between atoms: C_1  and  C_2
REMARK    2  A    between atoms: C_2  and  C_3
REMARK    3  A    between atoms: C_2  and  C_10
REMARK    4  A    between atoms: C_3  and  C_4
REMARK    5  A    between atoms: N_8  and  C_9
REMARK    6  A    between atoms: C_12  and  O_13
REMARK    7  A    between atoms: O_13  and  C_14
REMARK    8  A    between atoms: C_14  and  C_15
REMARK    9  A    between atoms: C_15  and  O_16
REMARK   10  A    between atoms: C_26  and  C_27
REMARK                            x       y       z     vdW  Elec       q    Type
REMARK                         _______ _______ _______ _____ _____    ______ ____
ROOT
ATOM      1  C   UNL     1       2.979   6.540  18.589  0.00  0.00    +0.000 A 
ATOM      2  C   UNL     1       2.957   5.525  19.553  0.00  0.00    +0.000 A 
ATOM      3  C   UNL     1       2.216   5.722  20.706  0.00  0.00    +0.000 A 
ATOM      4  N   UNL     1       1.576   6.866  20.990  0.00  0.00    +0.000 NA
ATOM      5  C   UNL     1       1.619   7.869  20.100  0.00  0.00    +0.000 A 
ATOM      6  N   UNL     1       0.942   9.062  20.401  0.00  0.00    +0.000 N 
ATOM      7  C   UNL     1       0.856  10.173  19.475  0.00  0.00    +0.000 C 
ATOM      8  C   UNL     1       0.038  11.179  20.216  0.00  0.00    +0.000 A 
ATOM      9  C   UNL     1      -0.296  10.664  21.467  0.00  0.00    +0.000 A 
ATOM     10  C   UNL     1      -1.040  11.376  22.391  0.00  0.00    +0.000 A 
ATOM     11  C   UNL     1      -1.458  12.654  22.028  0.00  0.00    +0.000 A 
ATOM     12  C   UNL     1      -1.137  13.183  20.763  0.00  0.00    +0.000 A 
ATOM     13  C   UNL     1      -0.382  12.447  19.828  0.00  0.00    +0.000 A 
ATOM     14  C   UNL     1       0.264   9.314  21.592  0.00  0.00    +0.000 C 
ATOM     15  O   UNL     1       0.102   8.641  22.594  0.00  0.00    +0.000 OA
ATOM     16  C   UNL     1       2.301   7.727  18.892  0.00  0.00    +0.000 A 
ENDROOT
BRANCH  13  17
ATOM     17  C   UNL     1      -0.070  13.035  18.476  0.00  0.00    +0.000 C 
ATOM     18  F   UNL     1      -0.303  14.375  18.398  0.00  0.00    +0.000 F 
ATOM     19  F   UNL     1       1.233  12.862  18.124  0.00  0.00    +0.000 F 
ATOM     20  F   UNL     1      -0.808  12.473  17.481  0.00  0.00    +0.000 F 
ENDBRANCH  13  17
BRANCH   1  22
ATOM     21  C   UNL     1       3.754   4.851  16.782  0.00  0.00    +0.000 C 
ATOM     22  C   UNL     1       3.667   6.319  17.245  0.00  0.00    +0.000 C 
BRANCH  22  23
ATOM     23  C   UNL     1       5.059   6.996  17.187  0.00  0.00    +0.000 C 
BRANCH  23  24
ATOM     24  C   UNL     1       6.185   6.028  17.011  0.00  0.00    +0.000 A 
ATOM     25  N   UNL     1       6.749   5.687  15.868  0.00  0.00    +0.000 NA
ATOM     26  N   UNL     1       7.704   4.734  16.124  0.00  0.00    +0.000 NA
ATOM     27  C   UNL     1       7.723   4.531  17.419  0.00  0.00    +0.000 A 
ATOM     28  N   UNL     1       6.802   5.332  18.020  0.00  0.00    +0.000 N 
ATOM     29  C   UNL     1       6.564   5.428  19.434  0.00  0.00    +0.000 C 
ENDBRANCH  23  24
ENDBRANCH  22  23
ENDBRANCH   1  22
BRANCH   3  30
ATOM     30  O   UNL     1       2.110   4.663  21.589  0.00  0.00    +0.000 OA
BRANCH  30  31
ATOM     31  C   UNL     1       2.575   3.441  20.998  0.00  0.00    +0.000 C 
BRANCH  31  32
ATOM     32  C   UNL     1       1.413   2.460  20.876  0.00  0.00    +0.000 C 
BRANCH  32  33
ATOM     33  O   UNL     1       0.308   3.046  20.194  0.00  0.00    +0.000 OA
ATOM     34  H   UNL     1       0.465   2.941  19.239  0.00  0.00    +0.000 HD
ENDBRANCH  32  33
ENDBRANCH  31  32
ENDBRANCH  30  31
ENDBRANCH   3  30
TORSDOF 8
ENDMDL
MODEL 7
REMARK VINA RESULT:      -8.3      4.790      9.461
REMARK  Name = 
REMARK  10 active torsions:
REMARK  status: ('A' for Active; 'I' for Inactive)
REMARK    1  A    between atoms: C_1  and  C_2
REMARK    2  A    between atoms: C_2  and  C_3
REMARK    3  A    between atoms: C_2  and  C_10
REMARK    4  A    between atoms: C_3  and  C_4
REMARK    5  A    between atoms: N_8  and  C_9
REMARK    6  A    between atoms: C_12  and  O_13
REMARK    7  A    between atoms: O_13  and  C_14
REMARK    8  A    between atoms: C_14  and  C_15
REMARK    9  A    between atoms: C_15  and  O_16
REMARK   10  A    between atoms: C_26  and  C_27
REMARK                            x       y       z     vdW  Elec       q    Type
REMARK                         _______ _______ _______ _____ _____    ______ ____
ROOT
ATOM      1  C   UNL     1       0.375  10.687  20.967  0.00  0.00    +0.000 A 
ATOM      2  C   UNL     1       0.661  11.718  20.064  0.00  0.00    +0.000 A 
ATOM      3  C   UNL     1       1.340  11.409  18.898  0.00  0.00    +0.000 A 
ATOM      4  N   UNL     1       1.811  10.185  18.616  0.00  0.00    +0.000 NA
ATOM      5  C   UNL     1       1.586   9.190  19.487  0.00  0.00    +0.000 A 
ATOM      6  N   UNL     1       2.077   7.909  19.182  0.00  0.00    +0.000 N 
ATOM      7  C   UNL     1       1.819   6.751  20.012  0.00  0.00    +0.000 C 
ATOM      8  C   UNL     1       2.509   5.643  19.285  0.00  0.00    +0.000 A 
ATOM      9  C   UNL     1       3.115   6.156  18.141  0.00  0.00    +0.000 A 
ATOM     10  C   UNL     1       3.848   5.371  17.269  0.00  0.00    +0.000 A 
ATOM     11  C   UNL     1       3.966   4.016  17.574  0.00  0.00    +0.000 A 
ATOM     12  C   UNL     1       3.350   3.482  18.721  0.00  0.00    +0.000 A 
ATOM     13  C   UNL     1       2.602   4.292  19.600  0.00  0.00    +0.000 A 
ATOM     14  C   UNL     1       2.838   7.595  18.058  0.00  0.00    +0.000 C 
ATOM     15  O   UNL     1       3.250   8.277  17.137  0.00  0.00    +0.000 OA
ATOM     16  C   UNL     1       0.864   9.411  20.658  0.00  0.00    +0.000 A 
ENDROOT
BRANCH  13  17
ATOM     17  C   UNL     1       1.942   3.685  20.811  0.00  0.00    +0.000 C 
ATOM     18  F   UNL     1       2.122   2.339  20.913  0.00  0.00    +0.000 F 
ATOM     19  F   UNL     1       2.409   4.213  21.975  0.00  0.00    +0.000 F 
ATOM     20  F   UNL     1       0.596   3.880  20.822  0.00  0.00    +0.000 F 
ENDBRANCH  13  17
BRANCH   1  22
ATOM     21  C   UNL     1      -0.667   9.746  23.145  0.00  0.00    +0.000 C 
ATOM     22  C   UNL     1      -0.488  10.949  22.198  0.00  0.00    +0.000 C 
BRANCH  22  23
ATOM     23  C   UNL     1      -1.860  11.562  21.824  0.00  0.00    +0.000 C 
BRANCH  23  24
ATOM     24  C   UNL     1      -2.470  12.371  22.924  0.00  0.00    +0.000 A 
ATOM     25  N   UNL     1      -3.495  12.017  23.676  0.00  0.00    +0.000 NA
ATOM     26  N   UNL     1      -3.784  13.054  24.528  0.00  0.00    +0.000 NA
ATOM     27  C   UNL     1      -2.916  14.010  24.299  0.00  0.00    +0.000 A 
ATOM     28  N   UNL     1      -2.061  13.620  23.314  0.00  0.00    +0.000 N 
ATOM     29  C   UNL     1      -0.943  14.379  22.822  0.00  0.00    +0.000 C 
ENDBRANCH  23  24
ENDBRANCH  22  23
ENDBRANCH   1  22
BRANCH   3  30
ATOM     30  O   UNL     1       1.507  12.417  17.967  0.00  0.00    +0.000 OA
BRANCH  30  31
ATOM     31  C   UNL     1       1.246  13.707  18.540  0.00  0.00    +0.000 C 
BRANCH  31  32
ATOM     32  C   UNL     1       2.538  14.516  18.580  0.00  0.00    +0.000 C 
BRANCH  32  33
ATOM     33  O   UNL     1       3.484  14.034  17.630  0.00  0.00    +0.000 OA
ATOM     34  H   UNL     1       3.949  14.807  17.264  0.00  0.00    +0.000 HD
ENDBRANCH  32  33
ENDBRANCH  31  32
ENDBRANCH  30  31
ENDBRANCH   3  30
TORSDOF 8
ENDMDL
MODEL 8
REMARK VINA RESULT:      -8.3      3.773      7.960
REMARK  Name = 
REMARK  10 active torsions:
REMARK  status: ('A' for Active; 'I' for Inactive)
REMARK    1  A    between atoms: C_1  and  C_2
REMARK    2  A    between atoms: C_2  and  C_3
REMARK    3  A    between atoms: C_2  and  C_10
REMARK    4  A    between atoms: C_3  and  C_4
REMARK    5  A    between atoms: N_8  and  C_9
REMARK    6  A    between atoms: C_12  and  O_13
REMARK    7  A    between atoms: O_13  and  C_14
REMARK    8  A    between atoms: C_14  and  C_15
REMARK    9  A    between atoms: C_15  and  O_16
REMARK   10  A    between atoms: C_26  and  C_27
REMARK                            x       y       z     vdW  Elec       q    Type
REMARK                         _______ _______ _______ _____ _____    ______ ____
ROOT
ATOM      1  C   UNL     1       0.878  10.801  19.235  0.00  0.00    +0.000 A 
ATOM      2  C   UNL     1       0.010  10.620  20.318  0.00  0.00    +0.000 A 
ATOM      3  C   UNL     1       0.010   9.400  20.970  0.00  0.00    +0.000 A 
ATOM      4  N   UNL     1       0.741   8.346  20.575  0.00  0.00    +0.000 NA
ATOM      5  C   UNL     1       1.548   8.484  19.512  0.00  0.00    +0.000 A 
ATOM      6  N   UNL     1       2.316   7.378  19.107  0.00  0.00    +0.000 N 
ATOM      7  C   UNL     1       3.279   7.444  18.027  0.00  0.00    +0.000 C 
ATOM      8  C   UNL     1       3.847   6.063  17.985  0.00  0.00    +0.000 A 
ATOM      9  C   UNL     1       3.233   5.287  18.966  0.00  0.00    +0.000 A 
ATOM     10  C   UNL     1       3.540   3.952  19.161  0.00  0.00    +0.000 A 
ATOM     11  C   UNL     1       4.506   3.390  18.329  0.00  0.00    +0.000 A 
ATOM     12  C   UNL     1       5.141   4.165  17.340  0.00  0.00    +0.000 A 
ATOM     13  C   UNL     1       4.823   5.526  17.154  0.00  0.00    +0.000 A 
ATOM     14  C   UNL     1       2.265   6.116  19.694  0.00  0.00    +0.000 C 
ATOM     15  O   UNL     1       1.603   5.672  20.615  0.00  0.00    +0.000 OA
ATOM     16  C   UNL     1       1.644   9.698  18.835  0.00  0.00    +0.000 A 
ENDROOT
BRANCH  13  17
ATOM     17  C   UNL     1       5.534   6.331  16.097  0.00  0.00    +0.000 C 
ATOM     18  F   UNL     1       4.690   6.975  15.243  0.00  0.00    +0.000 F 
ATOM     19  F   UNL     1       6.333   7.295  16.630  0.00  0.00    +0.000 F 
ATOM     20  F   UNL     1       6.339   5.564  15.313  0.00  0.00    +0.000 F 
ENDBRANCH  13  17
BRANCH   1  22
ATOM     21  C   UNL     1       2.461  12.608  18.263  0.00  0.00    +0.000 C 
ATOM     22  C   UNL     1       1.016  12.168  18.570  0.00  0.00    +0.000 C 
BRANCH  22  23
ATOM     23  C   UNL     1       0.260  13.272  19.350  0.00  0.00    +0.000 C 
BRANCH  23  24
ATOM     24  C   UNL     1       1.123  14.010  20.323  0.00  0.00    +0.000 A 
ATOM     25  N   UNL     1       1.536  13.563  21.493  0.00  0.00    +0.000 NA
ATOM     26  N   UNL     1       2.257  14.558  22.107  0.00  0.00    +0.000 NA
ATOM     27  C   UNL     1       2.292  15.583  21.289  0.00  0.00    +0.000 A 
ATOM     28  N   UNL     1       1.611  15.280  20.150  0.00  0.00    +0.000 N 
ATOM     29  C   UNL     1       1.471  16.132  19.001  0.00  0.00    +0.000 C 
ENDBRANCH  23  24
ENDBRANCH  22  23
ENDBRANCH   1  22
BRANCH   3  30
ATOM     30  O   UNL     1      -0.766   9.281  22.109  0.00  0.00    +0.000 OA
BRANCH  30  31
ATOM     31  C   UNL     1      -0.401  10.259  23.094  0.00  0.00    +0.000 C 
BRANCH  31  32
ATOM     32  C   UNL     1      -1.497  11.314  23.194  0.00  0.00    +0.000 C 
BRANCH  32  33
ATOM     33  O   UNL     1      -0.953  12.631  23.201  0.00  0.00    +0.000 OA
ATOM     34  H   UNL     1      -1.505  13.177  22.613  0.00  0.00    +0.000 HD
ENDBRANCH  32  33
ENDBRANCH  31  32
ENDBRANCH  30  31
ENDBRANCH   3  30
TORSDOF 8
ENDMDL
MODEL 9
REMARK VINA RESULT:      -8.1      1.909      2.727
REMARK  Name = 
REMARK  10 active torsions:
REMARK  status: ('A' for Active; 'I' for Inactive)
REMARK    1  A    between atoms: C_1  and  C_2
REMARK    2  A    between atoms: C_2  and  C_3
REMARK    3  A    between atoms: C_2  and  C_10
REMARK    4  A    between atoms: C_3  and  C_4
REMARK    5  A    between atoms: N_8  and  C_9
REMARK    6  A    between atoms: C_12  and  O_13
REMARK    7  A    between atoms: O_13  and  C_14
REMARK    8  A    between atoms: C_14  and  C_15
REMARK    9  A    between atoms: C_15  and  O_16
REMARK   10  A    between atoms: C_26  and  C_27
REMARK                            x       y       z     vdW  Elec       q    Type
REMARK                         _______ _______ _______ _____ _____    ______ ____
ROOT
ATOM      1  C   UNL     1       4.694   5.603  17.363  0.00  0.00    +0.000 A 
ATOM      2  C   UNL     1       4.738   4.340  17.965  0.00  0.00    +0.000 A 
ATOM      3  C   UNL     1       3.910   4.092  19.046  0.00  0.00    +0.000 A 
ATOM      4  N   UNL     1       3.119   5.021  19.604  0.00  0.00    +0.000 NA
ATOM      5  C   UNL     1       3.093   6.251  19.070  0.00  0.00    +0.000 A 
ATOM      6  N   UNL     1       2.257   7.218  19.655  0.00  0.00    +0.000 N 
ATOM      7  C   UNL     1       2.092   8.549  19.108  0.00  0.00    +0.000 C 
ATOM      8  C   UNL     1       1.114   9.187  20.039  0.00  0.00    +0.000 A 
ATOM      9  C   UNL     1       0.771   8.276  21.035  0.00  0.00    +0.000 A 
ATOM     10  C   UNL     1      -0.109   8.585  22.057  0.00  0.00    +0.000 A 
ATOM     11  C   UNL     1      -0.658   9.865  22.063  0.00  0.00    +0.000 A 
ATOM     12  C   UNL     1      -0.328  10.793  21.057  0.00  0.00    +0.000 A 
ATOM     13  C   UNL     1       0.566  10.465  20.018  0.00  0.00    +0.000 A 
ATOM     14  C   UNL     1       1.483   7.016  20.796  0.00  0.00    +0.000 C 
ATOM     15  O   UNL     1       1.344   6.049  21.524  0.00  0.00    +0.000 OA
ATOM     16  C   UNL     1       3.858   6.563  17.947  0.00  0.00    +0.000 A 
ENDROOT
BRANCH  13  17
ATOM     17  C   UNL     1       0.885  11.476  18.947  0.00  0.00    +0.000 C 
ATOM     18  F   UNL     1       0.546  11.067  17.692  0.00  0.00    +0.000 F 
ATOM     19  F   UNL     1       0.241  12.658  19.141  0.00  0.00    +0.000 F 
ATOM     20  F   UNL     1       2.212  11.773  18.891  0.00  0.00    +0.000 F 
ENDBRANCH  13  17
BRANCH   1  22
ATOM     21  C   UNL     1       4.867   6.940  15.150  0.00  0.00    +0.000 C 
ATOM     22  C   UNL     1       5.483   5.884  16.087  0.00  0.00    +0.000 C 
BRANCH  22  23
ATOM     23  C   UNL     1       5.810   4.584  15.310  0.00  0.00    +0.000 C 
BRANCH  23  24
ATOM     24  C   UNL     1       6.778   4.789  14.188  0.00  0.00    +0.000 A 
ATOM     25  N   UNL     1       7.876   5.520  14.230  0.00  0.00    +0.000 NA
ATOM     26  N   UNL     1       8.457   5.498  12.986  0.00  0.00    +0.000 NA
ATOM     27  C   UNL     1       7.719   4.734  12.217  0.00  0.00    +0.000 A 
ATOM     28  N   UNL     1       6.665   4.252  12.932  0.00  0.00    +0.000 N 
ATOM     29  C   UNL     1       5.665   3.341  12.446  0.00  0.00    +0.000 C 
ENDBRANCH  23  24
ENDBRANCH  22  23
ENDBRANCH   1  22
BRANCH   3  30
ATOM     30  O   UNL     1       3.881   2.804  19.549  0.00  0.00    +0.000 OA
BRANCH  30  31
ATOM     31  C   UNL     1       3.640   1.843  18.512  0.00  0.00    +0.000 C 
BRANCH  31  32
ATOM     32  C   UNL     1       2.271   2.096  17.890  0.00  0.00    +0.000 C 
BRANCH  32  33
ATOM     33  O   UNL     1       1.222   1.652  18.744  0.00  0.00    +0.000 OA
ATOM     34  H   UNL     1       0.593   1.149  18.196  0.00  0.00    +0.000 HD
ENDBRANCH  32  33
ENDBRANCH  31  32
ENDBRANCH  30  31
ENDBRANCH   3  30
TORSDOF 8
ENDMDL
