MODEL 1
REMARK VINA RESULT:      -9.3      0.000      0.000
REMARK  Name = 
REMARK  6 active torsions:
REMARK  status: ('A' for Active; 'I' for Inactive)
REMARK    1  A    between atoms: C_1  and  C_2
REMARK    2  A    between atoms: C_2  and  C_3
REMARK    3  A    between atoms: C_2  and  C_9
REMARK    4  A    between atoms: C_3  and  C_4
REMARK    5  A    between atoms: C_13  and  N_14
REMARK    6  A    between atoms: C_21  and  C_22
REMARK                            x       y       z     vdW  Elec       q    Type
REMARK                         _______ _______ _______ _____ _____    ______ ____
ROOT
ATOM      1  C   UNL     1       4.346   5.439  17.795  0.00  0.00    +0.000 A 
ATOM      2  C   UNL     1       4.099   4.337  18.613  0.00  0.00    +0.000 A 
ATOM      3  C   UNL     1       3.129   4.411  19.624  0.00  0.00    +0.000 A 
ATOM      4  C   UNL     1       2.405   5.591  19.855  0.00  0.00    +0.000 A 
ATOM      5  C   UNL     1       2.671   6.723  19.092  0.00  0.00    +0.000 A 
ATOM      6  C   UNL     1       3.642   6.617  18.071  0.00  0.00    +0.000 A 
ENDROOT
BRANCH   5   7
ATOM      7  N   UNL     1       2.033   7.974  19.298  0.00  0.00    +0.000 N 
ATOM      8  C   UNL     1       1.445   8.241  20.593  0.00  0.00    +0.000 C 
ATOM      9  C   UNL     1       0.757   9.541  20.424  0.00  0.00    +0.000 A 
ATOM     10  C   UNL     1       1.021  10.044  19.152  0.00  0.00    +0.000 A 
ATOM     11  C   UNL     1       0.544  11.286  18.770  0.00  0.00    +0.000 A 
ATOM     12  C   UNL     1      -0.220  12.001  19.704  0.00  0.00    +0.000 A 
ATOM     13  C   UNL     1      -0.514  11.466  20.976  0.00  0.00    +0.000 A 
ATOM     14  C   UNL     1      -0.033  10.210  21.356  0.00  0.00    +0.000 A 
ATOM     15  C   UNL     1       1.824   9.031  18.410  0.00  0.00    +0.000 C 
ATOM     16  O   UNL     1       2.173   9.178  17.254  0.00  0.00    +0.000 OA
BRANCH  14  17
ATOM     17  C   UNL     1      -0.371   9.603  22.695  0.00  0.00    +0.000 C 
ATOM     18  F   UNL     1      -0.948   8.368  22.613  0.00  0.00    +0.000 F 
ATOM     19  F   UNL     1       0.720   9.440  23.489  0.00  0.00    +0.000 F 
ATOM     20  F   UNL     1      -1.249  10.365  23.402  0.00  0.00    +0.000 F 
ENDBRANCH  14  17
ENDBRANCH   5   7
BRANCH   1  22
ATOM     21  C   UNL     1       4.866   4.403  15.556  0.00  0.00    +0.000 C 
ATOM     22  C   UNL     1       5.301   5.434  16.602  0.00  0.00    +0.000 C 
BRANCH  22  23
ATOM     23  C   UNL     1       6.765   5.283  17.053  0.00  0.00    +0.000 C 
BRANCH  23  24
ATOM     24  C   UNL     1       7.365   6.508  17.656  0.00  0.00    +0.000 A 
ATOM     25  N   UNL     1       7.320   7.731  17.023  0.00  0.00    +0.000 NA
ATOM     26  C   UNL     1       8.029   8.503  17.806  0.00  0.00    +0.000 A 
ATOM     27  N   UNL     1       8.476   7.782  18.868  0.00  0.00    +0.000 N 
ATOM     28  N   UNL     1       8.054   6.506  18.804  0.00  0.00    +0.000 NA
ATOM     29  H   UNL     1       9.068   8.077  19.639  0.00  0.00    +0.000 HD
ENDBRANCH  23  24
ENDBRANCH  22  23
ENDBRANCH   1  22
TORSDOF 5
ENDMDL
MODEL 2
REMARK VINA RESULT:      -9.0      1.591      2.286
REMARK  Name = 
REMARK  6 active torsions:
REMARK  status: ('A' for Active; 'I' for Inactive)
REMARK    1  A    between atoms: C_1  and  C_2
REMARK    2  A    between atoms: C_2  and  C_3
REMARK    3  A    between atoms: C_2  and  C_9
REMARK    4  A    between atoms: C_3  and  C_4
REMARK    5  A    between atoms: C_13  and  N_14
REMARK    6  A    between atoms: C_21  and  C_22
REMARK                            x       y       z     vdW  Elec       q    Type
REMARK                         _______ _______ _______ _____ _____    ______ ____
ROOT
ATOM      1  C   UNL     1       4.878   5.137  18.819  0.00  0.00    +0.000 A 
ATOM      2  C   UNL     1       4.237   3.957  19.196  0.00  0.00    +0.000 A 
ATOM      3  C   UNL     1       2.891   3.979  19.591  0.00  0.00    +0.000 A 
ATOM      4  C   UNL     1       2.166   5.181  19.641  0.00  0.00    +0.000 A 
ATOM      5  C   UNL     1       2.796   6.379  19.325  0.00  0.00    +0.000 A 
ATOM      6  C   UNL     1       4.148   6.326  18.917  0.00  0.00    +0.000 A 
ENDROOT
BRANCH   5   7
ATOM      7  N   UNL     1       2.160   7.645  19.410  0.00  0.00    +0.000 N 
ATOM      8  C   UNL     1       1.531   8.016  20.660  0.00  0.00    +0.000 C 
ATOM      9  C   UNL     1       0.857   9.301  20.366  0.00  0.00    +0.000 A 
ATOM     10  C   UNL     1       1.165   9.699  19.067  0.00  0.00    +0.000 A 
ATOM     11  C   UNL     1       0.707  10.908  18.571  0.00  0.00    +0.000 A 
ATOM     12  C   UNL     1      -0.083  11.699  19.420  0.00  0.00    +0.000 A 
ATOM     13  C   UNL     1      -0.420  11.268  20.721  0.00  0.00    +0.000 A 
ATOM     14  C   UNL     1       0.041  10.044  21.215  0.00  0.00    +0.000 A 
ATOM     15  C   UNL     1       1.985   8.628  18.434  0.00  0.00    +0.000 C 
ATOM     16  O   UNL     1       2.372   8.682  17.282  0.00  0.00    +0.000 OA
BRANCH  14  17
ATOM     17  C   UNL     1      -0.343   9.547  22.587  0.00  0.00    +0.000 C 
ATOM     18  F   UNL     1      -0.952   8.325  22.582  0.00  0.00    +0.000 F 
ATOM     19  F   UNL     1       0.725   9.415  23.417  0.00  0.00    +0.000 F 
ATOM     20  F   UNL     1      -1.215  10.382  23.214  0.00  0.00    +0.000 F 
ENDBRANCH  14  17
ENDBRANCH   5   7
BRANCH   1  22
ATOM     21  C   UNL     1       7.297   5.575  19.381  0.00  0.00    +0.000 C 
ATOM     22  C   UNL     1       6.304   5.210  18.274  0.00  0.00    +0.000 C 
BRANCH  22  23
ATOM     23  C   UNL     1       6.388   6.123  17.036  0.00  0.00    +0.000 C 
BRANCH  23  24
ATOM     24  C   UNL     1       6.378   5.407  15.728  0.00  0.00    +0.000 A 
ATOM     25  N   UNL     1       5.367   4.539  15.378  0.00  0.00    +0.000 NA
ATOM     26  C   UNL     1       5.772   4.051  14.233  0.00  0.00    +0.000 A 
ATOM     27  N   UNL     1       6.969   4.603  13.903  0.00  0.00    +0.000 N 
ATOM     28  N   UNL     1       7.373   5.485  14.835  0.00  0.00    +0.000 NA
ATOM     29  H   UNL     1       7.557   4.422  13.095  0.00  0.00    +0.000 HD
ENDBRANCH  23  24
ENDBRANCH  22  23
ENDBRANCH   1  22
TORSDOF 5
ENDMDL
MODEL 3
REMARK VINA RESULT:      -8.9      1.730      2.461
REMARK  Name = 
REMARK  6 active torsions:
REMARK  status: ('A' for Active; 'I' for Inactive)
REMARK    1  A    between atoms: C_1  and  C_2
REMARK    2  A    between atoms: C_2  and  C_3
REMARK    3  A    between atoms: C_2  and  C_9
REMARK    4  A    between atoms: C_3  and  C_4
REMARK    5  A    between atoms: C_13  and  N_14
REMARK    6  A    between atoms: C_21  and  C_22
REMARK                            x       y       z     vdW  Elec       q    Type
REMARK                         _______ _______ _______ _____ _____    ______ ____
ROOT
ATOM      1  C   UNL     1       4.324   4.792  18.571  0.00  0.00    +0.000 A 
ATOM      2  C   UNL     1       3.789   3.736  19.308  0.00  0.00    +0.000 A 
ATOM      3  C   UNL     1       2.641   3.930  20.090  0.00  0.00    +0.000 A 
ATOM      4  C   UNL     1       2.018   5.186  20.170  0.00  0.00    +0.000 A 
ATOM      5  C   UNL     1       2.563   6.270  19.491  0.00  0.00    +0.000 A 
ATOM      6  C   UNL     1       3.711   6.043  18.699  0.00  0.00    +0.000 A 
ENDROOT
BRANCH   5   7
ATOM      7  N   UNL     1       2.037   7.586  19.567  0.00  0.00    +0.000 N 
ATOM      8  C   UNL     1       1.438   8.016  20.812  0.00  0.00    +0.000 C 
ATOM      9  C   UNL     1       0.878   9.353  20.508  0.00  0.00    +0.000 A 
ATOM     10  C   UNL     1       1.224   9.716  19.209  0.00  0.00    +0.000 A 
ATOM     11  C   UNL     1       0.874  10.958  18.705  0.00  0.00    +0.000 A 
ATOM     12  C   UNL     1       0.152  11.817  19.547  0.00  0.00    +0.000 A 
ATOM     13  C   UNL     1      -0.227  11.424  20.848  0.00  0.00    +0.000 A 
ATOM     14  C   UNL     1       0.125  10.168  21.351  0.00  0.00    +0.000 A 
ATOM     15  C   UNL     1       1.951   8.575  18.585  0.00  0.00    +0.000 C 
ATOM     16  O   UNL     1       2.346   8.589  17.435  0.00  0.00    +0.000 OA
BRANCH  14  17
ATOM     17  C   UNL     1      -0.306   9.713  22.722  0.00  0.00    +0.000 C 
ATOM     18  F   UNL     1       0.730   9.462  23.574  0.00  0.00    +0.000 F 
ATOM     19  F   UNL     1      -1.084  10.628  23.359  0.00  0.00    +0.000 F 
ATOM     20  F   UNL     1      -1.027   8.560  22.681  0.00  0.00    +0.000 F 
ENDBRANCH  14  17
ENDBRANCH   5   7
BRANCH   1  22
ATOM     21  C   UNL     1       6.826   4.980  18.314  0.00  0.00    +0.000 C 
ATOM     22  C   UNL     1       5.505   4.664  17.608  0.00  0.00    +0.000 C 
BRANCH  22  23
ATOM     23  C   UNL     1       5.274   5.481  16.323  0.00  0.00    +0.000 C 
BRANCH  23  24
ATOM     24  C   UNL     1       6.002   4.980  15.123  0.00  0.00    +0.000 A 
ATOM     25  N   UNL     1       7.262   5.429  14.791  0.00  0.00    +0.000 NA
ATOM     26  C   UNL     1       7.500   4.842  13.646  0.00  0.00    +0.000 A 
ATOM     27  N   UNL     1       6.436   4.069  13.304  0.00  0.00    +0.000 N 
ATOM     28  N   UNL     1       5.469   4.127  14.238  0.00  0.00    +0.000 NA
ATOM     29  H   UNL     1       6.296   3.506  12.470  0.00  0.00    +0.000 HD
ENDBRANCH  23  24
ENDBRANCH  22  23
ENDBRANCH   1  22
TORSDOF 5
ENDMDL
MODEL 4
REMARK VINA RESULT:      -8.8      1.574      2.314
REMARK  Name = 
REMARK  6 active torsions:
REMARK  status: ('A' for Active; 'I' for Inactive)
REMARK    1  A    between atoms: C_1  and  C_2
REMARK    2  A    between atoms: C_2  and  C_3
REMARK    3  A    between atoms: C_2  and  C_9
REMARK    4  A    between atoms: C_3  and  C_4
REMARK    5  A    between atoms: C_13  and  N_14
REMARK    6  A    between atoms: C_21  and  C_22
REMARK                            x       y       z     vdW  Elec       q    Type
REMARK                         _______ _______ _______ _____ _____    ______ ____
ROOT
ATOM      1  C   UNL     1       4.986   5.491  18.802  0.00  0.00    +0.000 A 
ATOM      2  C   UNL     1       4.409   4.260  19.109  0.00  0.00    +0.000 A 
ATOM      3  C   UNL     1       3.052   4.182  19.458  0.00  0.00    +0.000 A 
ATOM      4  C   UNL     1       2.252   5.333  19.532  0.00  0.00    +0.000 A 
ATOM      5  C   UNL     1       2.815   6.581  19.287  0.00  0.00    +0.000 A 
ATOM      6  C   UNL     1       4.180   6.628  18.923  0.00  0.00    +0.000 A 
ENDROOT
BRANCH   5   7
ATOM      7  N   UNL     1       2.097   7.800  19.400  0.00  0.00    +0.000 N 
ATOM      8  C   UNL     1       1.494   8.126  20.675  0.00  0.00    +0.000 C 
ATOM      9  C   UNL     1       0.723   9.363  20.411  0.00  0.00    +0.000 A 
ATOM     10  C   UNL     1       0.952   9.782  19.103  0.00  0.00    +0.000 A 
ATOM     11  C   UNL     1       0.394  10.957  18.630  0.00  0.00    +0.000 A 
ATOM     12  C   UNL     1      -0.414  11.691  19.511  0.00  0.00    +0.000 A 
ATOM     13  C   UNL     1      -0.671  11.238  20.823  0.00  0.00    +0.000 A 
ATOM     14  C   UNL     1      -0.108  10.048  21.295  0.00  0.00    +0.000 A 
ATOM     15  C   UNL     1       1.818   8.770  18.435  0.00  0.00    +0.000 C 
ATOM     16  O   UNL     1       2.155   8.850  17.270  0.00  0.00    +0.000 OA
BRANCH  14  17
ATOM     17  C   UNL     1      -0.404   9.524  22.678  0.00  0.00    +0.000 C 
ATOM     18  F   UNL     1      -1.271  10.301  23.391  0.00  0.00    +0.000 F 
ATOM     19  F   UNL     1      -0.960   8.284  22.662  0.00  0.00    +0.000 F 
ATOM     20  F   UNL     1       0.714   9.432  23.447  0.00  0.00    +0.000 F 
ENDBRANCH  14  17
ENDBRANCH   5   7
BRANCH   1  22
ATOM     21  C   UNL     1       6.563   6.969  17.503  0.00  0.00    +0.000 C 
ATOM     22  C   UNL     1       6.421   5.675  18.310  0.00  0.00    +0.000 C 
BRANCH  22  23
ATOM     23  C   UNL     1       6.928   4.423  17.571  0.00  0.00    +0.000 C 
BRANCH  23  24
ATOM     24  C   UNL     1       6.632   4.394  16.110  0.00  0.00    +0.000 A 
ATOM     25  N   UNL     1       7.540   4.833  15.172  0.00  0.00    +0.000 NA
ATOM     26  C   UNL     1       6.879   4.745  14.046  0.00  0.00    +0.000 A 
ATOM     27  N   UNL     1       5.630   4.268  14.292  0.00  0.00    +0.000 N 
ATOM     28  N   UNL     1       5.450   4.021  15.603  0.00  0.00    +0.000 NA
ATOM     29  H   UNL     1       4.867   4.106  13.641  0.00  0.00    +0.000 HD
ENDBRANCH  23  24
ENDBRANCH  22  23
ENDBRANCH   1  22
TORSDOF 5
ENDMDL
MODEL 5
REMARK VINA RESULT:      -8.7      1.793      2.466
REMARK  Name = 
REMARK  6 active torsions:
REMARK  status: ('A' for Active; 'I' for Inactive)
REMARK    1  A    between atoms: C_1  and  C_2
REMARK    2  A    between atoms: C_2  and  C_3
REMARK    3  A    between atoms: C_2  and  C_9
REMARK    4  A    between atoms: C_3  and  C_4
REMARK    5  A    between atoms: C_13  and  N_14
REMARK    6  A    between atoms: C_21  and  C_22
REMARK                            x       y       z     vdW  Elec       q    Type
REMARK                         _______ _______ _______ _____ _____    ______ ____
ROOT
ATOM      1  C   UNL     1       4.309   5.729  17.681  0.00  0.00    +0.000 A 
ATOM      2  C   UNL     1       3.990   4.560  18.371  0.00  0.00    +0.000 A 
ATOM      3  C   UNL     1       2.951   4.557  19.313  0.00  0.00    +0.000 A 
ATOM      4  C   UNL     1       2.227   5.725  19.603  0.00  0.00    +0.000 A 
ATOM      5  C   UNL     1       2.560   6.917  18.971  0.00  0.00    +0.000 A 
ATOM      6  C   UNL     1       3.601   6.889  18.015  0.00  0.00    +0.000 A 
ENDROOT
BRANCH   5   7
ATOM      7  N   UNL     1       1.925   8.156  19.249  0.00  0.00    +0.000 N 
ATOM      8  C   UNL     1       1.367   8.361  20.568  0.00  0.00    +0.000 C 
ATOM      9  C   UNL     1       0.673   9.666  20.475  0.00  0.00    +0.000 A 
ATOM     10  C   UNL     1       0.904  10.226  19.221  0.00  0.00    +0.000 A 
ATOM     11  C   UNL     1       0.414  11.482  18.907  0.00  0.00    +0.000 A 
ATOM     12  C   UNL     1      -0.329  12.152  19.890  0.00  0.00    +0.000 A 
ATOM     13  C   UNL     1      -0.590  11.559  21.144  0.00  0.00    +0.000 A 
ATOM     14  C   UNL     1      -0.097  10.289  21.455  0.00  0.00    +0.000 A 
ATOM     15  C   UNL     1       1.691   9.251  18.414  0.00  0.00    +0.000 C 
ATOM     16  O   UNL     1       2.011   9.451  17.259  0.00  0.00    +0.000 OA
BRANCH  14  17
ATOM     17  C   UNL     1      -0.401   9.620  22.773  0.00  0.00    +0.000 C 
ATOM     18  F   UNL     1      -0.952   8.378  22.650  0.00  0.00    +0.000 F 
ATOM     19  F   UNL     1       0.706   9.450  23.543  0.00  0.00    +0.000 F 
ATOM     20  F   UNL     1      -1.283  10.334  23.523  0.00  0.00    +0.000 F 
ENDBRANCH  14  17
ENDBRANCH   5   7
BRANCH   1  22
ATOM     21  C   UNL     1       5.001   6.938  15.578  0.00  0.00    +0.000 C 
ATOM     22  C   UNL     1       5.347   5.817  16.562  0.00  0.00    +0.000 C 
BRANCH  22  23
ATOM     23  C   UNL     1       5.571   4.448  15.893  0.00  0.00    +0.000 C 
BRANCH  23  24
ATOM     24  C   UNL     1       6.260   4.502  14.572  0.00  0.00    +0.000 A 
ATOM     25  N   UNL     1       5.819   3.776  13.488  0.00  0.00    +0.000 NA
ATOM     26  C   UNL     1       6.730   4.008  12.577  0.00  0.00    +0.000 A 
ATOM     27  N   UNL     1       7.675   4.842  13.085  0.00  0.00    +0.000 N 
ATOM     28  N   UNL     1       7.392   5.185  14.355  0.00  0.00    +0.000 NA
ATOM     29  H   UNL     1       8.521   5.195  12.647  0.00  0.00    +0.000 HD
ENDBRANCH  23  24
ENDBRANCH  22  23
ENDBRANCH   1  22
TORSDOF 5
ENDMDL
MODEL 6
REMARK VINA RESULT:      -8.6      0.765      1.245
REMARK  Name = 
REMARK  6 active torsions:
REMARK  status: ('A' for Active; 'I' for Inactive)
REMARK    1  A    between atoms: C_1  and  C_2
REMARK    2  A    between atoms: C_2  and  C_3
REMARK    3  A    between atoms: C_2  and  C_9
REMARK    4  A    between atoms: C_3  and  C_4
REMARK    5  A    between atoms: C_13  and  N_14
REMARK    6  A    between atoms: C_21  and  C_22
REMARK                            x       y       z     vdW  Elec       q    Type
REMARK                         _______ _______ _______ _____ _____    ______ ____
ROOT
ATOM      1  C   UNL     1       3.910   4.795  18.394  0.00  0.00    +0.000 A 
ATOM      2  C   UNL     1       3.707   3.852  19.401  0.00  0.00    +0.000 A 
ATOM      3  C   UNL     1       2.846   4.136  20.471  0.00  0.00    +0.000 A 
ATOM      4  C   UNL     1       2.192   5.374  20.572  0.00  0.00    +0.000 A 
ATOM      5  C   UNL     1       2.421   6.354  19.613  0.00  0.00    +0.000 A 
ATOM      6  C   UNL     1       3.280   6.036  18.537  0.00  0.00    +0.000 A 
ENDROOT
BRANCH   5   7
ATOM      7  N   UNL     1       1.853   7.654  19.669  0.00  0.00    +0.000 N 
ATOM      8  C   UNL     1       1.291   8.104  20.924  0.00  0.00    +0.000 C 
ATOM      9  C   UNL     1       0.672   9.410  20.603  0.00  0.00    +0.000 A 
ATOM     10  C   UNL     1       0.950   9.742  19.279  0.00  0.00    +0.000 A 
ATOM     11  C   UNL     1       0.536  10.953  18.752  0.00  0.00    +0.000 A 
ATOM     12  C   UNL     1      -0.180  11.815  19.595  0.00  0.00    +0.000 A 
ATOM     13  C   UNL     1      -0.490  11.453  20.924  0.00  0.00    +0.000 A 
ATOM     14  C   UNL     1      -0.073  10.227  21.450  0.00  0.00    +0.000 A 
ATOM     15  C   UNL     1       1.691   8.606  18.661  0.00  0.00    +0.000 C 
ATOM     16  O   UNL     1       2.037   8.595  17.495  0.00  0.00    +0.000 OA
BRANCH  14  17
ATOM     17  C   UNL     1      -0.431   9.803  22.853  0.00  0.00    +0.000 C 
ATOM     18  F   UNL     1       0.644   9.674  23.684  0.00  0.00    +0.000 F 
ATOM     19  F   UNL     1      -1.261  10.683  23.472  0.00  0.00    +0.000 F 
ATOM     20  F   UNL     1      -1.058   8.597  22.885  0.00  0.00    +0.000 F 
ENDBRANCH  14  17
ENDBRANCH   5   7
BRANCH   1  22
ATOM     21  C   UNL     1       4.155   3.403  16.305  0.00  0.00    +0.000 C 
ATOM     22  C   UNL     1       4.740   4.550  17.134  0.00  0.00    +0.000 C 
BRANCH  22  23
ATOM     23  C   UNL     1       6.234   4.376  17.468  0.00  0.00    +0.000 C 
BRANCH  23  24
ATOM     24  C   UNL     1       7.019   5.643  17.504  0.00  0.00    +0.000 A 
ATOM     25  N   UNL     1       7.520   6.159  18.678  0.00  0.00    +0.000 NA
ATOM     26  C   UNL     1       8.041   7.302  18.309  0.00  0.00    +0.000 A 
ATOM     27  N   UNL     1       7.868   7.465  16.970  0.00  0.00    +0.000 N 
ATOM     28  N   UNL     1       7.230   6.412  16.428  0.00  0.00    +0.000 NA
ATOM     29  H   UNL     1       8.135   8.249  16.382  0.00  0.00    +0.000 HD
ENDBRANCH  23  24
ENDBRANCH  22  23
ENDBRANCH   1  22
TORSDOF 5
ENDMDL
MODEL 7
REMARK VINA RESULT:      -8.6      0.820      1.051
REMARK  Name = 
REMARK  6 active torsions:
REMARK  status: ('A' for Active; 'I' for Inactive)
REMARK    1  A    between atoms: C_1  and  C_2
REMARK    2  A    between atoms: C_2  and  C_3
REMARK    3  A    between atoms: C_2  and  C_9
REMARK    4  A    between atoms: C_3  and  C_4
REMARK    5  A    between atoms: C_13  and  N_14
REMARK    6  A    between atoms: C_21  and  C_22
REMARK                            x       y       z     vdW  Elec       q    Type
REMARK                         _______ _______ _______ _____ _____    ______ ____
ROOT
ATOM      1  C   UNL     1       4.332   5.164  17.421  0.00  0.00    +0.000 A 
ATOM      2  C   UNL     1       3.964   4.027  18.140  0.00  0.00    +0.000 A 
ATOM      3  C   UNL     1       2.954   4.101  19.110  0.00  0.00    +0.000 A 
ATOM      4  C   UNL     1       2.309   5.314  19.399  0.00  0.00    +0.000 A 
ATOM      5  C   UNL     1       2.694   6.474  18.738  0.00  0.00    +0.000 A 
ATOM      6  C   UNL     1       3.704   6.369  17.755  0.00  0.00    +0.000 A 
ENDROOT
BRANCH   5   7
ATOM      7  N   UNL     1       2.142   7.753  19.012  0.00  0.00    +0.000 N 
ATOM      8  C   UNL     1       1.550   7.981  20.312  0.00  0.00    +0.000 C 
ATOM      9  C   UNL     1       0.958   9.335  20.214  0.00  0.00    +0.000 A 
ATOM     10  C   UNL     1       1.279   9.893  18.979  0.00  0.00    +0.000 A 
ATOM     11  C   UNL     1       0.895  11.186  18.667  0.00  0.00    +0.000 A 
ATOM     12  C   UNL     1       0.166  11.897  19.633  0.00  0.00    +0.000 A 
ATOM     13  C   UNL     1      -0.187  11.308  20.866  0.00  0.00    +0.000 A 
ATOM     14  C   UNL     1       0.199  10.000  21.175  0.00  0.00    +0.000 A 
ATOM     15  C   UNL     1       2.022   8.873  18.187  0.00  0.00    +0.000 C 
ATOM     16  O   UNL     1       2.401   9.065  17.048  0.00  0.00    +0.000 OA
BRANCH  14  17
ATOM     17  C   UNL     1      -0.204   9.338  22.469  0.00  0.00    +0.000 C 
ATOM     18  F   UNL     1      -0.848   8.146  22.305  0.00  0.00    +0.000 F 
ATOM     19  F   UNL     1       0.857   9.068  23.274  0.00  0.00    +0.000 F 
ATOM     20  F   UNL     1      -1.054  10.109  23.201  0.00  0.00    +0.000 F 
ENDBRANCH  14  17
ENDBRANCH   5   7
BRANCH   1  22
ATOM     21  C   UNL     1       4.762   4.497  15.026  0.00  0.00    +0.000 C 
ATOM     22  C   UNL     1       5.342   5.172  16.273  0.00  0.00    +0.000 C 
BRANCH  22  23
ATOM     23  C   UNL     1       6.701   4.600  16.715  0.00  0.00    +0.000 C 
BRANCH  23  24
ATOM     24  C   UNL     1       7.393   5.382  17.779  0.00  0.00    +0.000 A 
ATOM     25  N   UNL     1       7.595   4.874  19.044  0.00  0.00    +0.000 NA
ATOM     26  C   UNL     1       8.125   5.880  19.693  0.00  0.00    +0.000 A 
ATOM     27  N   UNL     1       8.245   6.945  18.856  0.00  0.00    +0.000 N 
ATOM     28  N   UNL     1       7.798   6.649  17.622  0.00  0.00    +0.000 NA
ATOM     29  H   UNL     1       8.595   7.878  19.053  0.00  0.00    +0.000 HD
ENDBRANCH  23  24
ENDBRANCH  22  23
ENDBRANCH   1  22
TORSDOF 5
ENDMDL
MODEL 8
REMARK VINA RESULT:      -8.6      0.787      1.233
REMARK  Name = 
REMARK  6 active torsions:
REMARK  status: ('A' for Active; 'I' for Inactive)
REMARK    1  A    between atoms: C_1  and  C_2
REMARK    2  A    between atoms: C_2  and  C_3
REMARK    3  A    between atoms: C_2  and  C_9
REMARK    4  A    between atoms: C_3  and  C_4
REMARK    5  A    between atoms: C_13  and  N_14
REMARK    6  A    between atoms: C_21  and  C_22
REMARK                            x       y       z     vdW  Elec       q    Type
REMARK                         _______ _______ _______ _____ _____    ______ ____
ROOT
ATOM      1  C   UNL     1       3.950   5.090  17.790  0.00  0.00    +0.000 A 
ATOM      2  C   UNL     1       3.875   4.104  18.774  0.00  0.00    +0.000 A 
ATOM      3  C   UNL     1       3.133   4.328  19.943  0.00  0.00    +0.000 A 
ATOM      4  C   UNL     1       2.473   5.547  20.165  0.00  0.00    +0.000 A 
ATOM      5  C   UNL     1       2.578   6.568  19.227  0.00  0.00    +0.000 A 
ATOM      6  C   UNL     1       3.319   6.310  18.052  0.00  0.00    +0.000 A 
ENDROOT
BRANCH   5   7
ATOM      7  N   UNL     1       1.998   7.852  19.399  0.00  0.00    +0.000 N 
ATOM      8  C   UNL     1       1.423   8.180  20.685  0.00  0.00    +0.000 C 
ATOM      9  C   UNL     1       0.795   9.506  20.481  0.00  0.00    +0.000 A 
ATOM     10  C   UNL     1       1.080   9.960  19.196  0.00  0.00    +0.000 A 
ATOM     11  C   UNL     1       0.658  11.211  18.779  0.00  0.00    +0.000 A 
ATOM     12  C   UNL     1      -0.072  11.986  19.693  0.00  0.00    +0.000 A 
ATOM     13  C   UNL     1      -0.388  11.500  20.980  0.00  0.00    +0.000 A 
ATOM     14  C   UNL     1       0.036  10.234  21.394  0.00  0.00    +0.000 A 
ATOM     15  C   UNL     1       1.835   8.893  18.482  0.00  0.00    +0.000 C 
ATOM     16  O   UNL     1       2.189   8.992  17.323  0.00  0.00    +0.000 OA
BRANCH  14  17
ATOM     17  C   UNL     1      -0.328   9.680  22.749  0.00  0.00    +0.000 C 
ATOM     18  F   UNL     1      -1.153  10.489  23.475  0.00  0.00    +0.000 F 
ATOM     19  F   UNL     1      -0.970   8.484  22.672  0.00  0.00    +0.000 F 
ATOM     20  F   UNL     1       0.763   9.478  23.536  0.00  0.00    +0.000 F 
ENDBRANCH  14  17
ENDBRANCH   5   7
BRANCH   1  22
ATOM     21  C   UNL     1       4.860   3.428  16.125  0.00  0.00    +0.000 C 
ATOM     22  C   UNL     1       4.639   4.911  16.437  0.00  0.00    +0.000 C 
BRANCH  22  23
ATOM     23  C   UNL     1       5.918   5.764  16.340  0.00  0.00    +0.000 C 
BRANCH  23  24
ATOM     24  C   UNL     1       6.831   5.660  17.514  0.00  0.00    +0.000 A 
ATOM     25  N   UNL     1       7.205   6.763  18.250  0.00  0.00    +0.000 NA
ATOM     26  C   UNL     1       8.072   6.278  19.102  0.00  0.00    +0.000 A 
ATOM     27  N   UNL     1       8.211   4.942  18.895  0.00  0.00    +0.000 N 
ATOM     28  N   UNL     1       7.418   4.517  17.895  0.00  0.00    +0.000 NA
ATOM     29  H   UNL     1       8.819   4.281  19.370  0.00  0.00    +0.000 HD
ENDBRANCH  23  24
ENDBRANCH  22  23
ENDBRANCH   1  22
TORSDOF 5
ENDMDL
MODEL 9
REMARK VINA RESULT:      -8.5      1.847      2.299
REMARK  Name = 
REMARK  6 active torsions:
REMARK  status: ('A' for Active; 'I' for Inactive)
REMARK    1  A    between atoms: C_1  and  C_2
REMARK    2  A    between atoms: C_2  and  C_3
REMARK    3  A    between atoms: C_2  and  C_9
REMARK    4  A    between atoms: C_3  and  C_4
REMARK    5  A    between atoms: C_13  and  N_14
REMARK    6  A    between atoms: C_21  and  C_22
REMARK                            x       y       z     vdW  Elec       q    Type
REMARK                         _______ _______ _______ _____ _____    ______ ____
ROOT
ATOM      1  C   UNL     1       3.863   4.154  19.337  0.00  0.00    +0.000 A 
ATOM      2  C   UNL     1       3.125   3.219  20.062  0.00  0.00    +0.000 A 
ATOM      3  C   UNL     1       1.940   3.601  20.707  0.00  0.00    +0.000 A 
ATOM      4  C   UNL     1       1.481   4.928  20.663  0.00  0.00    +0.000 A 
ATOM      5  C   UNL     1       2.227   5.893  19.996  0.00  0.00    +0.000 A 
ATOM      6  C   UNL     1       3.409   5.477  19.342  0.00  0.00    +0.000 A 
ENDROOT
BRANCH   5   7
ATOM      7  N   UNL     1       1.874   7.267  19.955  0.00  0.00    +0.000 N 
ATOM      8  C   UNL     1       1.302   7.865  21.142  0.00  0.00    +0.000 C 
ATOM      9  C   UNL     1       0.927   9.234  20.720  0.00  0.00    +0.000 A 
ATOM     10  C   UNL     1       1.350   9.448  19.411  0.00  0.00    +0.000 A 
ATOM     11  C   UNL     1       1.176  10.680  18.804  0.00  0.00    +0.000 A 
ATOM     12  C   UNL     1       0.549  11.687  19.553  0.00  0.00    +0.000 A 
ATOM     13  C   UNL     1       0.089  11.448  20.866  0.00  0.00    +0.000 A 
ATOM     14  C   UNL     1       0.264  10.201  21.472  0.00  0.00    +0.000 A 
ATOM     15  C   UNL     1       1.941   8.179  18.900  0.00  0.00    +0.000 C 
ATOM     16  O   UNL     1       2.364   8.053  17.767  0.00  0.00    +0.000 OA
BRANCH  14  17
ATOM     17  C   UNL     1      -0.258   9.913  22.858  0.00  0.00    +0.000 C 
ATOM     18  F   UNL     1      -1.150   8.881  22.910  0.00  0.00    +0.000 F 
ATOM     19  F   UNL     1       0.728   9.582  23.733  0.00  0.00    +0.000 F 
ATOM     20  F   UNL     1      -0.908  10.979  23.398  0.00  0.00    +0.000 F 
ENDBRANCH  14  17
ENDBRANCH   5   7
BRANCH   1  22
ATOM     21  C   UNL     1       6.173   4.911  18.665  0.00  0.00    +0.000 C 
ATOM     22  C   UNL     1       5.107   3.822  18.512  0.00  0.00    +0.000 C 
BRANCH  22  23
ATOM     23  C   UNL     1       4.744   3.507  17.049  0.00  0.00    +0.000 C 
BRANCH  23  24
ATOM     24  C   UNL     1       5.461   4.331  16.034  0.00  0.00    +0.000 A 
ATOM     25  N   UNL     1       6.510   3.829  15.295  0.00  0.00    +0.000 NA
ATOM     26  C   UNL     1       6.924   4.867  14.615  0.00  0.00    +0.000 A 
ATOM     27  N   UNL     1       6.156   5.946  14.922  0.00  0.00    +0.000 N 
ATOM     28  N   UNL     1       5.203   5.627  15.818  0.00  0.00    +0.000 NA
ATOM     29  H   UNL     1       6.230   6.902  14.586  0.00  0.00    +0.000 HD
ENDBRANCH  23  24
ENDBRANCH  22  23
ENDBRANCH   1  22
TORSDOF 5
ENDMDL
