MODEL 1
REMARK VINA RESULT:      -8.9      0.000      0.000
REMARK  Name = 
REMARK  7 active torsions:
REMARK  status: ('A' for Active; 'I' for Inactive)
REMARK    1  A    between atoms: C_1  and  C_2
REMARK    2  A    between atoms: C_2  and  C_3
REMARK    3  A    between atoms: C_2  and  C_10
REMARK    4  A    between atoms: C_3  and  C_4
REMARK    5  A    between atoms: N_8  and  C_9
REMARK    6  A    between atoms: C_14  and  N_15
REMARK    7  A    between atoms: C_16  and  C_18
REMARK                            x       y       z     vdW  Elec       q    Type
REMARK                         _______ _______ _______ _____ _____    ______ ____
ROOT
ATOM      1  C   UNL     1       4.521   5.061  17.540  0.00  0.00    +0.000 A 
ATOM      2  C   UNL     1       4.257   3.708  17.793  0.00  0.00    +0.000 A 
ATOM      3  C   UNL     1       3.347   3.330  18.777  0.00  0.00    +0.000 A 
ATOM      4  C   UNL     1       2.703   4.295  19.548  0.00  0.00    +0.000 A 
ATOM      5  C   UNL     1       2.960   5.651  19.342  0.00  0.00    +0.000 A 
ATOM      6  C   UNL     1       3.847   6.025  18.320  0.00  0.00    +0.000 A 
ENDROOT
BRANCH   5   7
ATOM      7  N   UNL     1       2.355   6.673  20.104  0.00  0.00    +0.000 N 
ATOM      8  C   UNL     1       1.891   7.883  19.619  0.00  0.00    +0.000 C 
ATOM      9  O   UNL     1       1.847   8.197  18.434  0.00  0.00    +0.000 OA
ATOM     10  H   UNL     1       2.096   6.443  21.053  0.00  0.00    +0.000 HD
BRANCH   8  11
ATOM     11  C   UNL     1       1.343   8.768  20.618  0.00  0.00    +0.000 A 
ATOM     12  N   UNL     1       1.633   8.564  21.945  0.00  0.00    +0.000 N 
ATOM     13  N   UNL     1       1.071   9.452  22.780  0.00  0.00    +0.000 NA
ATOM     14  C   UNL     1       0.327  10.203  21.970  0.00  0.00    +0.000 A 
ATOM     15  C   UNL     1       0.457   9.831  20.606  0.00  0.00    +0.000 A 
ATOM     16  C   UNL     1      -0.349  10.469  19.527  0.00  0.00    +0.000 C 
ATOM     17  C   UNL     1      -0.959  11.803  19.999  0.00  0.00    +0.000 C 
ATOM     18  C   UNL     1      -1.583  11.693  21.401  0.00  0.00    +0.000 C 
ATOM     19  C   UNL     1      -0.545  11.302  22.464  0.00  0.00    +0.000 C 
ATOM     20  H   UNL     1       2.220   7.829  22.328  0.00  0.00    +0.000 HD
ENDBRANCH   8  11
ENDBRANCH   5   7
BRANCH   1  22
ATOM     21  C   UNL     1       4.973   6.695  15.606  0.00  0.00    +0.000 C 
ATOM     22  C   UNL     1       5.501   5.524  16.457  0.00  0.00    +0.000 C 
BRANCH  22  23
ATOM     23  C   UNL     1       5.913   4.325  15.568  0.00  0.00    +0.000 C 
BRANCH  23  24
ATOM     24  C   UNL     1       6.816   4.721  14.449  0.00  0.00    +0.000 A 
ATOM     25  N   UNL     1       7.847   5.539  14.529  0.00  0.00    +0.000 NA
ATOM     26  N   UNL     1       8.370   5.693  13.267  0.00  0.00    +0.000 NA
ATOM     27  C   UNL     1       7.658   4.958  12.448  0.00  0.00    +0.000 A 
ATOM     28  N   UNL     1       6.690   4.308  13.148  0.00  0.00    +0.000 N 
ATOM     29  C   UNL     1       5.738   3.373  12.613  0.00  0.00    +0.000 C 
ENDBRANCH  23  24
ENDBRANCH  22  23
ENDBRANCH   1  22
TORSDOF 5
ENDMDL
MODEL 2
REMARK VINA RESULT:      -8.7      2.322      3.258
REMARK  Name = 
REMARK  7 active torsions:
REMARK  status: ('A' for Active; 'I' for Inactive)
REMARK    1  A    between atoms: C_1  and  C_2
REMARK    2  A    between atoms: C_2  and  C_3
REMARK    3  A    between atoms: C_2  and  C_10
REMARK    4  A    between atoms: C_3  and  C_4
REMARK    5  A    between atoms: N_8  and  C_9
REMARK    6  A    between atoms: C_14  and  N_15
REMARK    7  A    between atoms: C_16  and  C_18
REMARK                            x       y       z     vdW  Elec       q    Type
REMARK                         _______ _______ _______ _____ _____    ______ ____
ROOT
ATOM      1  C   UNL     1       4.361   4.863  16.877  0.00  0.00    +0.000 A 
ATOM      2  C   UNL     1       3.811   3.600  17.135  0.00  0.00    +0.000 A 
ATOM      3  C   UNL     1       2.637   3.469  17.873  0.00  0.00    +0.000 A 
ATOM      4  C   UNL     1       2.004   4.596  18.393  0.00  0.00    +0.000 A 
ATOM      5  C   UNL     1       2.536   5.868  18.177  0.00  0.00    +0.000 A 
ATOM      6  C   UNL     1       3.696   5.994  17.397  0.00  0.00    +0.000 A 
ENDROOT
BRANCH   5   7
ATOM      7  N   UNL     1       1.952   7.043  18.694  0.00  0.00    +0.000 N 
ATOM      8  C   UNL     1       2.086   8.317  18.170  0.00  0.00    +0.000 C 
ATOM      9  O   UNL     1       2.651   8.589  17.116  0.00  0.00    +0.000 OA
ATOM     10  H   UNL     1       1.252   6.928  19.414  0.00  0.00    +0.000 HD
BRANCH   8  11
ATOM     11  C   UNL     1       1.410   9.353  18.912  0.00  0.00    +0.000 A 
ATOM     12  N   UNL     1       1.378  10.636  18.421  0.00  0.00    +0.000 N 
ATOM     13  N   UNL     1       0.719  11.512  19.196  0.00  0.00    +0.000 NA
ATOM     14  C   UNL     1       0.387  10.786  20.261  0.00  0.00    +0.000 A 
ATOM     15  C   UNL     1       0.784   9.427  20.144  0.00  0.00    +0.000 A 
ATOM     16  C   UNL     1       0.601   8.447  21.250  0.00  0.00    +0.000 C 
ATOM     17  C   UNL     1      -0.420   8.957  22.286  0.00  0.00    +0.000 C 
ATOM     18  C   UNL     1      -0.186  10.431  22.657  0.00  0.00    +0.000 C 
ATOM     19  C   UNL     1      -0.318  11.359  21.439  0.00  0.00    +0.000 C 
ATOM     20  H   UNL     1       1.792  10.959  17.551  0.00  0.00    +0.000 HD
ENDBRANCH   8  11
ENDBRANCH   5   7
BRANCH   1  22
ATOM     21  C   UNL     1       5.762   4.086  14.865  0.00  0.00    +0.000 C 
ATOM     22  C   UNL     1       5.640   5.055  16.056  0.00  0.00    +0.000 C 
BRANCH  22  23
ATOM     23  C   UNL     1       6.881   4.968  16.979  0.00  0.00    +0.000 C 
BRANCH  23  24
ATOM     24  C   UNL     1       7.352   6.306  17.439  0.00  0.00    +0.000 A 
ATOM     25  N   UNL     1       7.316   7.427  16.747  0.00  0.00    +0.000 NA
ATOM     26  N   UNL     1       7.907   8.415  17.499  0.00  0.00    +0.000 NA
ATOM     27  C   UNL     1       8.279   7.880  18.637  0.00  0.00    +0.000 A 
ATOM     28  N   UNL     1       7.927   6.566  18.656  0.00  0.00    +0.000 N 
ATOM     29  C   UNL     1       8.121   5.651  19.747  0.00  0.00    +0.000 C 
ENDBRANCH  23  24
ENDBRANCH  22  23
ENDBRANCH   1  22
TORSDOF 5
ENDMDL
MODEL 3
REMARK VINA RESULT:      -8.6      1.715      2.638
REMARK  Name = 
REMARK  7 active torsions:
REMARK  status: ('A' for Active; 'I' for Inactive)
REMARK    1  A    between atoms: C_1  and  C_2
REMARK    2  A    between atoms: C_2  and  C_3
REMARK    3  A    between atoms: C_2  and  C_10
REMARK    4  A    between atoms: C_3  and  C_4
REMARK    5  A    between atoms: N_8  and  C_9
REMARK    6  A    between atoms: C_14  and  N_15
REMARK    7  A    between atoms: C_16  and  C_18
REMARK                            x       y       z     vdW  Elec       q    Type
REMARK                         _______ _______ _______ _____ _____    ______ ____
ROOT
ATOM      1  C   UNL     1       2.814   3.606  18.906  0.00  0.00    +0.000 A 
ATOM      2  C   UNL     1       2.861   2.542  19.817  0.00  0.00    +0.000 A 
ATOM      3  C   UNL     1       2.427   2.706  21.130  0.00  0.00    +0.000 A 
ATOM      4  C   UNL     1       1.963   3.945  21.568  0.00  0.00    +0.000 A 
ATOM      5  C   UNL     1       1.924   5.033  20.696  0.00  0.00    +0.000 A 
ATOM      6  C   UNL     1       2.325   4.848  19.363  0.00  0.00    +0.000 A 
ENDROOT
BRANCH   5   7
ATOM      7  N   UNL     1       1.484   6.316  21.086  0.00  0.00    +0.000 N 
ATOM      8  C   UNL     1       1.739   7.501  20.419  0.00  0.00    +0.000 C 
ATOM      9  O   UNL     1       2.300   7.591  19.332  0.00  0.00    +0.000 OA
ATOM     10  H   UNL     1       0.796   6.358  21.825  0.00  0.00    +0.000 HD
BRANCH   8  11
ATOM     11  C   UNL     1       1.199   8.681  21.050  0.00  0.00    +0.000 A 
ATOM     12  N   UNL     1       1.370   8.874  22.399  0.00  0.00    +0.000 N 
ATOM     13  N   UNL     1       0.829  10.008  22.871  0.00  0.00    +0.000 NA
ATOM     14  C   UNL     1       0.218  10.521  21.805  0.00  0.00    +0.000 A 
ATOM     15  C   UNL     1       0.417   9.744  20.633  0.00  0.00    +0.000 A 
ATOM     16  C   UNL     1      -0.245  10.071  19.339  0.00  0.00    +0.000 C 
ATOM     17  C   UNL     1      -0.767  11.521  19.330  0.00  0.00    +0.000 C 
ATOM     18  C   UNL     1      -1.502  11.885  20.631  0.00  0.00    +0.000 C 
ATOM     19  C   UNL     1      -0.586  11.771  21.860  0.00  0.00    +0.000 C 
ATOM     20  H   UNL     1       1.858   8.255  23.040  0.00  0.00    +0.000 HD
ENDBRANCH   8  11
ENDBRANCH   5   7
BRANCH   1  22
ATOM     21  C   UNL     1       4.022   2.158  17.158  0.00  0.00    +0.000 C 
ATOM     22  C   UNL     1       3.265   3.467  17.449  0.00  0.00    +0.000 C 
BRANCH  22  23
ATOM     23  C   UNL     1       4.100   4.703  17.032  0.00  0.00    +0.000 C 
BRANCH  23  24
ATOM     24  C   UNL     1       5.530   4.597  17.443  0.00  0.00    +0.000 A 
ATOM     25  N   UNL     1       5.994   4.646  18.676  0.00  0.00    +0.000 NA
ATOM     26  N   UNL     1       7.366   4.581  18.621  0.00  0.00    +0.000 NA
ATOM     27  C   UNL     1       7.709   4.481  17.359  0.00  0.00    +0.000 A 
ATOM     28  N   UNL     1       6.591   4.458  16.586  0.00  0.00    +0.000 N 
ATOM     29  C   UNL     1       6.549   4.310  15.157  0.00  0.00    +0.000 C 
ENDBRANCH  23  24
ENDBRANCH  22  23
ENDBRANCH   1  22
TORSDOF 5
ENDMDL
MODEL 4
REMARK VINA RESULT:      -8.6      1.851      2.757
REMARK  Name = 
REMARK  7 active torsions:
REMARK  status: ('A' for Active; 'I' for Inactive)
REMARK    1  A    between atoms: C_1  and  C_2
REMARK    2  A    between atoms: C_2  and  C_3
REMARK    3  A    between atoms: C_2  and  C_10
REMARK    4  A    between atoms: C_3  and  C_4
REMARK    5  A    between atoms: N_8  and  C_9
REMARK    6  A    between atoms: C_14  and  N_15
REMARK    7  A    between atoms: C_16  and  C_18
REMARK                            x       y       z     vdW  Elec       q    Type
REMARK                         _______ _______ _______ _____ _____    ______ ____
ROOT
ATOM      1  C   UNL     1       4.506   4.850  17.376  0.00  0.00    +0.000 A 
ATOM      2  C   UNL     1       4.223   3.505  17.653  0.00  0.00    +0.000 A 
ATOM      3  C   UNL     1       3.325   3.157  18.659  0.00  0.00    +0.000 A 
ATOM      4  C   UNL     1       2.713   4.145  19.428  0.00  0.00    +0.000 A 
ATOM      5  C   UNL     1       2.989   5.492  19.197  0.00  0.00    +0.000 A 
ATOM      6  C   UNL     1       3.864   5.836  18.154  0.00  0.00    +0.000 A 
ENDROOT
BRANCH   5   7
ATOM      7  N   UNL     1       2.416   6.536  19.955  0.00  0.00    +0.000 N 
ATOM      8  C   UNL     1       1.958   7.744  19.460  0.00  0.00    +0.000 C 
ATOM      9  O   UNL     1       1.890   8.038  18.271  0.00  0.00    +0.000 OA
ATOM     10  H   UNL     1       2.176   6.326  20.914  0.00  0.00    +0.000 HD
BRANCH   8  11
ATOM     11  C   UNL     1       1.445   8.653  20.456  0.00  0.00    +0.000 A 
ATOM     12  N   UNL     1       1.749   8.458  21.781  0.00  0.00    +0.000 N 
ATOM     13  N   UNL     1       1.220   9.369  22.613  0.00  0.00    +0.000 NA
ATOM     14  C   UNL     1       0.484  10.128  21.805  0.00  0.00    +0.000 A 
ATOM     15  C   UNL     1       0.586   9.738  20.443  0.00  0.00    +0.000 A 
ATOM     16  C   UNL     1      -0.219  10.382  19.368  0.00  0.00    +0.000 C 
ATOM     17  C   UNL     1      -0.790  11.737  19.833  0.00  0.00    +0.000 C 
ATOM     18  C   UNL     1      -1.398  11.659  21.244  0.00  0.00    +0.000 C 
ATOM     19  C   UNL     1      -0.354  11.254  22.298  0.00  0.00    +0.000 C 
ATOM     20  H   UNL     1       2.324   7.713  22.165  0.00  0.00    +0.000 HD
ENDBRANCH   8  11
ENDBRANCH   5   7
BRANCH   1  22
ATOM     21  C   UNL     1       5.295   4.496  14.954  0.00  0.00    +0.000 C 
ATOM     22  C   UNL     1       5.473   5.279  16.269  0.00  0.00    +0.000 C 
BRANCH  22  23
ATOM     23  C   UNL     1       6.934   5.195  16.777  0.00  0.00    +0.000 C 
BRANCH  23  24
ATOM     24  C   UNL     1       7.406   6.471  17.388  0.00  0.00    +0.000 A 
ATOM     25  N   UNL     1       7.380   7.663  16.825  0.00  0.00    +0.000 NA
ATOM     26  N   UNL     1       7.968   8.557  17.688  0.00  0.00    +0.000 NA
ATOM     27  C   UNL     1       8.328   7.896  18.762  0.00  0.00    +0.000 A 
ATOM     28  N   UNL     1       7.971   6.590  18.632  0.00  0.00    +0.000 N 
ATOM     29  C   UNL     1       8.151   5.558  19.615  0.00  0.00    +0.000 C 
ENDBRANCH  23  24
ENDBRANCH  22  23
ENDBRANCH   1  22
TORSDOF 5
ENDMDL
MODEL 5
REMARK VINA RESULT:      -8.4      1.931      2.795
REMARK  Name = 
REMARK  7 active torsions:
REMARK  status: ('A' for Active; 'I' for Inactive)
REMARK    1  A    between atoms: C_1  and  C_2
REMARK    2  A    between atoms: C_2  and  C_3
REMARK    3  A    between atoms: C_2  and  C_10
REMARK    4  A    between atoms: C_3  and  C_4
REMARK    5  A    between atoms: N_8  and  C_9
REMARK    6  A    between atoms: C_14  and  N_15
REMARK    7  A    between atoms: C_16  and  C_18
REMARK                            x       y       z     vdW  Elec       q    Type
REMARK                         _______ _______ _______ _____ _____    ______ ____
ROOT
ATOM      1  C   UNL     1       4.693   4.570  16.628  0.00  0.00    +0.000 A 
ATOM      2  C   UNL     1       4.453   3.211  16.871  0.00  0.00    +0.000 A 
ATOM      3  C   UNL     1       3.536   2.809  17.840  0.00  0.00    +0.000 A 
ATOM      4  C   UNL     1       2.861   3.758  18.605  0.00  0.00    +0.000 A 
ATOM      5  C   UNL     1       3.092   5.120  18.407  0.00  0.00    +0.000 A 
ATOM      6  C   UNL     1       3.987   5.516  17.401  0.00  0.00    +0.000 A 
ENDROOT
BRANCH   5   7
ATOM      7  N   UNL     1       2.454   6.125  19.164  0.00  0.00    +0.000 N 
ATOM      8  C   UNL     1       2.468   7.482  18.890  0.00  0.00    +0.000 C 
ATOM      9  O   UNL     1       2.954   7.993  17.886  0.00  0.00    +0.000 OA
ATOM     10  H   UNL     1       1.805   5.820  19.876  0.00  0.00    +0.000 HD
BRANCH   8  11
ATOM     11  C   UNL     1       1.762   8.302  19.844  0.00  0.00    +0.000 A 
ATOM     12  N   UNL     1       1.759   7.956  21.173  0.00  0.00    +0.000 N 
ATOM     13  N   UNL     1       1.073   8.796  21.965  0.00  0.00    +0.000 NA
ATOM     14  C   UNL     1       0.548   9.665  21.104  0.00  0.00    +0.000 A 
ATOM     15  C   UNL     1       0.945   9.416  19.763  0.00  0.00    +0.000 A 
ATOM     16  C   UNL     1       0.410  10.202  18.616  0.00  0.00    +0.000 C 
ATOM     17  C   UNL     1      -0.228  11.522  19.092  0.00  0.00    +0.000 C 
ATOM     18  C   UNL     1      -1.135  11.321  20.317  0.00  0.00    +0.000 C 
ATOM     19  C   UNL     1      -0.360  10.766  21.523  0.00  0.00    +0.000 C 
ATOM     20  H   UNL     1       2.221   7.152  21.588  0.00  0.00    +0.000 HD
ENDBRANCH   8  11
ENDBRANCH   5   7
BRANCH   1  22
ATOM     21  C   UNL     1       5.368   4.535  14.146  0.00  0.00    +0.000 C 
ATOM     22  C   UNL     1       5.679   5.058  15.562  0.00  0.00    +0.000 C 
BRANCH  22  23
ATOM     23  C   UNL     1       7.128   4.711  15.982  0.00  0.00    +0.000 C 
BRANCH  23  24
ATOM     24  C   UNL     1       7.443   5.136  17.376  0.00  0.00    +0.000 A 
ATOM     25  N   UNL     1       7.642   4.342  18.409  0.00  0.00    +0.000 NA
ATOM     26  N   UNL     1       7.834   5.126  19.522  0.00  0.00    +0.000 NA
ATOM     27  C   UNL     1       7.761   6.379  19.143  0.00  0.00    +0.000 A 
ATOM     28  N   UNL     1       7.545   6.435  17.802  0.00  0.00    +0.000 N 
ATOM     29  C   UNL     1       7.453   7.628  17.006  0.00  0.00    +0.000 C 
ENDBRANCH  23  24
ENDBRANCH  22  23
ENDBRANCH   1  22
TORSDOF 5
ENDMDL
MODEL 6
REMARK VINA RESULT:      -8.3      4.097      8.882
REMARK  Name = 
REMARK  7 active torsions:
REMARK  status: ('A' for Active; 'I' for Inactive)
REMARK    1  A    between atoms: C_1  and  C_2
REMARK    2  A    between atoms: C_2  and  C_3
REMARK    3  A    between atoms: C_2  and  C_10
REMARK    4  A    between atoms: C_3  and  C_4
REMARK    5  A    between atoms: N_8  and  C_9
REMARK    6  A    between atoms: C_14  and  N_15
REMARK    7  A    between atoms: C_16  and  C_18
REMARK                            x       y       z     vdW  Elec       q    Type
REMARK                         _______ _______ _______ _____ _____    ______ ____
ROOT
ATOM      1  C   UNL     1      -0.530  10.818  20.333  0.00  0.00    +0.000 A 
ATOM      2  C   UNL     1      -0.772  11.337  21.613  0.00  0.00    +0.000 A 
ATOM      3  C   UNL     1      -0.463  10.599  22.753  0.00  0.00    +0.000 A 
ATOM      4  C   UNL     1       0.068   9.316  22.638  0.00  0.00    +0.000 A 
ATOM      5  C   UNL     1       0.300   8.757  21.381  0.00  0.00    +0.000 A 
ATOM      6  C   UNL     1       0.024   9.523  20.237  0.00  0.00    +0.000 A 
ENDROOT
BRANCH   5   7
ATOM      7  N   UNL     1       0.816   7.456  21.201  0.00  0.00    +0.000 N 
ATOM      8  C   UNL     1       1.728   7.070  20.235  0.00  0.00    +0.000 C 
ATOM      9  O   UNL     1       2.297   7.830  19.458  0.00  0.00    +0.000 OA
ATOM     10  H   UNL     1       0.627   6.784  21.931  0.00  0.00    +0.000 HD
BRANCH   8  11
ATOM     11  C   UNL     1       2.068   5.668  20.247  0.00  0.00    +0.000 A 
ATOM     12  N   UNL     1       2.285   5.027  21.442  0.00  0.00    +0.000 N 
ATOM     13  N   UNL     1       2.591   3.725  21.328  0.00  0.00    +0.000 NA
ATOM     14  C   UNL     1       2.653   3.541  20.011  0.00  0.00    +0.000 A 
ATOM     15  C   UNL     1       2.331   4.714  19.278  0.00  0.00    +0.000 A 
ATOM     16  C   UNL     1       2.423   4.775  17.793  0.00  0.00    +0.000 C 
ATOM     17  C   UNL     1       2.465   3.363  17.177  0.00  0.00    +0.000 C 
ATOM     18  C   UNL     1       3.434   2.431  17.924  0.00  0.00    +0.000 C 
ATOM     19  C   UNL     1       3.030   2.241  19.395  0.00  0.00    +0.000 C 
ATOM     20  H   UNL     1       2.229   5.442  22.368  0.00  0.00    +0.000 HD
ENDBRANCH   8  11
ENDBRANCH   5   7
BRANCH   1  22
ATOM     21  C   UNL     1      -0.231  13.015  19.032  0.00  0.00    +0.000 C 
ATOM     22  C   UNL     1      -0.837  11.599  19.052  0.00  0.00    +0.000 C 
BRANCH  22  23
ATOM     23  C   UNL     1      -2.366  11.640  18.811  0.00  0.00    +0.000 C 
BRANCH  23  24
ATOM     24  C   UNL     1      -2.755  11.095  17.479  0.00  0.00    +0.000 A 
ATOM     25  N   UNL     1      -1.998  10.366  16.682  0.00  0.00    +0.000 NA
ATOM     26  N   UNL     1      -2.700  10.125  15.525  0.00  0.00    +0.000 NA
ATOM     27  C   UNL     1      -3.873  10.699  15.645  0.00  0.00    +0.000 A 
ATOM     28  N   UNL     1      -3.964  11.295  16.864  0.00  0.00    +0.000 N 
ATOM     29  C   UNL     1      -5.110  11.986  17.388  0.00  0.00    +0.000 C 
ENDBRANCH  23  24
ENDBRANCH  22  23
ENDBRANCH   1  22
TORSDOF 5
ENDMDL
MODEL 7
REMARK VINA RESULT:      -8.3      3.777      8.797
REMARK  Name = 
REMARK  7 active torsions:
REMARK  status: ('A' for Active; 'I' for Inactive)
REMARK    1  A    between atoms: C_1  and  C_2
REMARK    2  A    between atoms: C_2  and  C_3
REMARK    3  A    between atoms: C_2  and  C_10
REMARK    4  A    between atoms: C_3  and  C_4
REMARK    5  A    between atoms: N_8  and  C_9
REMARK    6  A    between atoms: C_14  and  N_15
REMARK    7  A    between atoms: C_16  and  C_18
REMARK                            x       y       z     vdW  Elec       q    Type
REMARK                         _______ _______ _______ _____ _____    ______ ____
ROOT
ATOM      1  C   UNL     1      -0.642  10.605  20.253  0.00  0.00    +0.000 A 
ATOM      2  C   UNL     1      -0.804  11.084  21.561  0.00  0.00    +0.000 A 
ATOM      3  C   UNL     1      -0.199  10.440  22.638  0.00  0.00    +0.000 A 
ATOM      4  C   UNL     1       0.557   9.288  22.433  0.00  0.00    +0.000 A 
ATOM      5  C   UNL     1       0.720   8.768  21.150  0.00  0.00    +0.000 A 
ATOM      6  C   UNL     1       0.142   9.447  20.065  0.00  0.00    +0.000 A 
ENDROOT
BRANCH   5   7
ATOM      7  N   UNL     1       1.457   7.594  20.883  0.00  0.00    +0.000 N 
ATOM      8  C   UNL     1       2.179   7.331  19.732  0.00  0.00    +0.000 C 
ATOM      9  O   UNL     1       2.366   8.129  18.820  0.00  0.00    +0.000 OA
ATOM     10  H   UNL     1       1.599   6.958  21.655  0.00  0.00    +0.000 HD
BRANCH   8  11
ATOM     11  C   UNL     1       2.816   6.037  19.698  0.00  0.00    +0.000 A 
ATOM     12  N   UNL     1       4.125   5.930  19.294  0.00  0.00    +0.000 N 
ATOM     13  N   UNL     1       4.610   4.679  19.307  0.00  0.00    +0.000 NA
ATOM     14  C   UNL     1       3.554   3.946  19.652  0.00  0.00    +0.000 A 
ATOM     15  C   UNL     1       2.403   4.735  19.917  0.00  0.00    +0.000 A 
ATOM     16  C   UNL     1       1.078   4.130  20.232  0.00  0.00    +0.000 C 
ATOM     17  C   UNL     1       1.224   2.654  20.654  0.00  0.00    +0.000 C 
ATOM     18  C   UNL     1       2.174   1.875  19.729  0.00  0.00    +0.000 C 
ATOM     19  C   UNL     1       3.595   2.461  19.738  0.00  0.00    +0.000 C 
ATOM     20  H   UNL     1       4.731   6.692  19.004  0.00  0.00    +0.000 HD
ENDBRANCH   8  11
ENDBRANCH   5   7
BRANCH   1  22
ATOM     21  C   UNL     1      -1.427  12.814  19.197  0.00  0.00    +0.000 C 
ATOM     22  C   UNL     1      -1.274  11.290  19.038  0.00  0.00    +0.000 C 
BRANCH  22  23
ATOM     23  C   UNL     1      -2.629  10.623  18.698  0.00  0.00    +0.000 C 
BRANCH  23  24
ATOM     24  C   UNL     1      -2.880  10.540  17.231  0.00  0.00    +0.000 A 
ATOM     25  N   UNL     1      -2.147   9.891  16.348  0.00  0.00    +0.000 NA
ATOM     26  N   UNL     1      -2.675  10.120  15.100  0.00  0.00    +0.000 NA
ATOM     27  C   UNL     1      -3.725  10.891  15.248  0.00  0.00    +0.000 A 
ATOM     28  N   UNL     1      -3.910  11.158  16.569  0.00  0.00    +0.000 N 
ATOM     29  C   UNL     1      -4.980  11.929  17.138  0.00  0.00    +0.000 C 
ENDBRANCH  23  24
ENDBRANCH  22  23
ENDBRANCH   1  22
TORSDOF 5
ENDMDL
MODEL 8
REMARK VINA RESULT:      -8.3      1.408      1.715
REMARK  Name = 
REMARK  7 active torsions:
REMARK  status: ('A' for Active; 'I' for Inactive)
REMARK    1  A    between atoms: C_1  and  C_2
REMARK    2  A    between atoms: C_2  and  C_3
REMARK    3  A    between atoms: C_2  and  C_10
REMARK    4  A    between atoms: C_3  and  C_4
REMARK    5  A    between atoms: N_8  and  C_9
REMARK    6  A    between atoms: C_14  and  N_15
REMARK    7  A    between atoms: C_16  and  C_18
REMARK                            x       y       z     vdW  Elec       q    Type
REMARK                         _______ _______ _______ _____ _____    ______ ____
ROOT
ATOM      1  C   UNL     1       4.542   5.610  17.465  0.00  0.00    +0.000 A 
ATOM      2  C   UNL     1       4.504   4.385  18.144  0.00  0.00    +0.000 A 
ATOM      3  C   UNL     1       3.596   4.169  19.178  0.00  0.00    +0.000 A 
ATOM      4  C   UNL     1       2.726   5.183  19.573  0.00  0.00    +0.000 A 
ATOM      5  C   UNL     1       2.751   6.423  18.936  0.00  0.00    +0.000 A 
ATOM      6  C   UNL     1       3.641   6.619  17.868  0.00  0.00    +0.000 A 
ENDROOT
BRANCH   5   7
ATOM      7  N   UNL     1       1.909   7.494  19.305  0.00  0.00    +0.000 N 
ATOM      8  C   UNL     1       1.731   8.670  18.597  0.00  0.00    +0.000 C 
ATOM      9  O   UNL     1       2.204   8.904  17.489  0.00  0.00    +0.000 OA
ATOM     10  H   UNL     1       1.265   7.329  20.065  0.00  0.00    +0.000 HD
BRANCH   8  11
ATOM     11  C   UNL     1       0.836   9.620  19.212  0.00  0.00    +0.000 A 
ATOM     12  N   UNL     1       0.410  10.716  18.502  0.00  0.00    +0.000 N 
ATOM     13  N   UNL     1      -0.422  11.525  19.176  0.00  0.00    +0.000 NA
ATOM     14  C   UNL     1      -0.467  10.975  20.388  0.00  0.00    +0.000 A 
ATOM     15  C   UNL     1       0.292   9.778  20.474  0.00  0.00    +0.000 A 
ATOM     16  C   UNL     1       0.464   9.036  21.754  0.00  0.00    +0.000 C 
ATOM     17  C   UNL     1      -0.593   9.459  22.793  0.00  0.00    +0.000 C 
ATOM     18  C   UNL     1      -0.765  10.986  22.859  0.00  0.00    +0.000 C 
ATOM     19  C   UNL     1      -1.231  11.571  21.516  0.00  0.00    +0.000 C 
ATOM     20  H   UNL     1       0.660  10.950  17.546  0.00  0.00    +0.000 HD
ENDBRANCH   8  11
ENDBRANCH   5   7
BRANCH   1  22
ATOM     21  C   UNL     1       5.028   6.988  15.349  0.00  0.00    +0.000 C 
ATOM     22  C   UNL     1       5.511   5.887  16.312  0.00  0.00    +0.000 C 
BRANCH  22  23
ATOM     23  C   UNL     1       5.819   4.573  15.552  0.00  0.00    +0.000 C 
BRANCH  23  24
ATOM     24  C   UNL     1       6.756   4.774  14.409  0.00  0.00    +0.000 A 
ATOM     25  N   UNL     1       7.850   5.509  14.417  0.00  0.00    +0.000 NA
ATOM     26  N   UNL     1       8.390   5.487  13.152  0.00  0.00    +0.000 NA
ATOM     27  C   UNL     1       7.623   4.730  12.405  0.00  0.00    +0.000 A 
ATOM     28  N   UNL     1       6.602   4.238  13.157  0.00  0.00    +0.000 N 
ATOM     29  C   UNL     1       5.579   3.333  12.711  0.00  0.00    +0.000 C 
ENDBRANCH  23  24
ENDBRANCH  22  23
ENDBRANCH   1  22
TORSDOF 5
ENDMDL
MODEL 9
REMARK VINA RESULT:      -8.3      0.846      1.042
REMARK  Name = 
REMARK  7 active torsions:
REMARK  status: ('A' for Active; 'I' for Inactive)
REMARK    1  A    between atoms: C_1  and  C_2
REMARK    2  A    between atoms: C_2  and  C_3
REMARK    3  A    between atoms: C_2  and  C_10
REMARK    4  A    between atoms: C_3  and  C_4
REMARK    5  A    between atoms: N_8  and  C_9
REMARK    6  A    between atoms: C_14  and  N_15
REMARK    7  A    between atoms: C_16  and  C_18
REMARK                            x       y       z     vdW  Elec       q    Type
REMARK                         _______ _______ _______ _____ _____    ______ ____
ROOT
ATOM      1  C   UNL     1       4.089   4.080  17.597  0.00  0.00    +0.000 A 
ATOM      2  C   UNL     1       3.317   2.912  17.524  0.00  0.00    +0.000 A 
ATOM      3  C   UNL     1       2.079   2.833  18.157  0.00  0.00    +0.000 A 
ATOM      4  C   UNL     1       1.600   3.910  18.900  0.00  0.00    +0.000 A 
ATOM      5  C   UNL     1       2.351   5.080  19.015  0.00  0.00    +0.000 A 
ATOM      6  C   UNL     1       3.579   5.166  18.340  0.00  0.00    +0.000 A 
ENDROOT
BRANCH   5   7
ATOM      7  N   UNL     1       1.927   6.195  19.769  0.00  0.00    +0.000 N 
ATOM      8  C   UNL     1       1.980   7.517  19.365  0.00  0.00    +0.000 C 
ATOM      9  O   UNL     1       2.309   7.900  18.247  0.00  0.00    +0.000 OA
ATOM     10  H   UNL     1       1.399   6.005  20.609  0.00  0.00    +0.000 HD
BRANCH   8  11
ATOM     11  C   UNL     1       1.513   8.470  20.343  0.00  0.00    +0.000 A 
ATOM     12  N   UNL     1       1.834   8.303  21.668  0.00  0.00    +0.000 N 
ATOM     13  N   UNL     1       1.347   9.253  22.482  0.00  0.00    +0.000 NA
ATOM     14  C   UNL     1       0.619  10.011  21.665  0.00  0.00    +0.000 A 
ATOM     15  C   UNL     1       0.685   9.579  20.313  0.00  0.00    +0.000 A 
ATOM     16  C   UNL     1      -0.120  10.216  19.234  0.00  0.00    +0.000 C 
ATOM     17  C   UNL     1      -0.642  11.599  19.668  0.00  0.00    +0.000 C 
ATOM     18  C   UNL     1      -1.226  11.580  21.091  0.00  0.00    +0.000 C 
ATOM     19  C   UNL     1      -0.177  11.175  22.138  0.00  0.00    +0.000 C 
ATOM     20  H   UNL     1       2.393   7.553  22.063  0.00  0.00    +0.000 HD
ENDBRANCH   8  11
ENDBRANCH   5   7
BRANCH   1  22
ATOM     21  C   UNL     1       6.609   4.512  17.871  0.00  0.00    +0.000 C 
ATOM     22  C   UNL     1       5.448   4.218  16.903  0.00  0.00    +0.000 C 
BRANCH  22  23
ATOM     23  C   UNL     1       5.366   5.286  15.785  0.00  0.00    +0.000 C 
BRANCH  23  24
ATOM     24  C   UNL     1       6.452   5.145  14.773  0.00  0.00    +0.000 A 
ATOM     25  N   UNL     1       7.665   5.657  14.852  0.00  0.00    +0.000 NA
ATOM     26  N   UNL     1       8.334   5.357  13.689  0.00  0.00    +0.000 NA
ATOM     27  C   UNL     1       7.522   4.659  12.932  0.00  0.00    +0.000 A 
ATOM     28  N   UNL     1       6.340   4.477  13.581  0.00  0.00    +0.000 N 
ATOM     29  C   UNL     1       5.214   3.725  13.100  0.00  0.00    +0.000 C 
ENDBRANCH  23  24
ENDBRANCH  22  23
ENDBRANCH   1  22
TORSDOF 5
ENDMDL
