MODEL 1
REMARK VINA RESULT:     -10.6      0.000      0.000
REMARK  Name = 
REMARK  8 active torsions:
REMARK  status: ('A' for Active; 'I' for Inactive)
REMARK    1  A    between atoms: C_1  and  N_2
REMARK    2  A    between atoms: C_6  and  C_7
REMARK    3  A    between atoms: C_7  and  C_8
REMARK    4  A    between atoms: C_8  and  C_9
REMARK    5  A    between atoms: C_13  and  N_14
REMARK    6  A    between atoms: C_19  and  C_20
REMARK    7  A    between atoms: C_20  and  N_21
REMARK    8  A    between atoms: C_32  and  C_33
REMARK                            x       y       z     vdW  Elec       q    Type
REMARK                         _______ _______ _______ _____ _____    ______ ____
ROOT
ATOM      1  N   UNL     1       1.162   8.751  20.350  0.00  0.00    +0.000 N 
ATOM      2  C   UNL     1       1.384   7.404  20.767  0.00  0.00    +0.000 C 
ATOM      3  C   UNL     1       2.114   6.765  19.670  0.00  0.00    +0.000 A 
ATOM      4  C   UNL     1       2.452   7.706  18.704  0.00  0.00    +0.000 A 
ATOM      5  C   UNL     1       3.295   7.344  17.657  0.00  0.00    +0.000 A 
ATOM      6  C   UNL     1       3.739   5.994  17.568  0.00  0.00    +0.000 A 
ATOM      7  C   UNL     1       3.256   5.046  18.518  0.00  0.00    +0.000 A 
ATOM      8  C   UNL     1       2.449   5.421  19.602  0.00  0.00    +0.000 A 
ATOM      9  C   UNL     1       1.721   8.982  19.072  0.00  0.00    +0.000 C 
ATOM     10  O   UNL     1       1.650   9.974  18.376  0.00  0.00    +0.000 OA
ENDROOT
BRANCH   1  15
ATOM     11  C   UNL     1      -1.267  11.483  21.120  0.00  0.00    +0.000 A 
ATOM     12  C   UNL     1      -1.358  11.343  22.509  0.00  0.00    +0.000 A 
ATOM     13  C   UNL     1      -0.698  10.298  23.190  0.00  0.00    +0.000 A 
ATOM     14  C   UNL     1       0.089   9.350  22.509  0.00  0.00    +0.000 A 
ATOM     15  C   UNL     1       0.222   9.464  21.136  0.00  0.00    +0.000 A 
ATOM     16  C   UNL     1      -0.491  10.502  20.487  0.00  0.00    +0.000 A 
BRANCH  11  17
ATOM     17  C   UNL     1      -1.918  12.669  20.226  0.00  0.00    +0.000 C 
ATOM     18  C   UNL     1      -0.952  13.361  19.202  0.00  0.00    +0.000 C 
ATOM     19  O   UNL     1      -1.070  14.638  19.862  0.00  0.00    +0.000 OA
ATOM     20  C   UNL     1      -1.979  14.097  20.837  0.00  0.00    +0.000 C 
BRANCH  17  21
ATOM     21  C   UNL     1      -3.302  12.249  19.678  0.00  0.00    +0.000 C 
BRANCH  21  27
ATOM     22  C   UNL     1      -5.646  12.224  17.501  0.00  0.00    +0.000 C 
ATOM     23  N   UNL     1      -4.316  11.696  17.379  0.00  0.00    +0.000 N 
ATOM     24  C   UNL     1      -3.803  11.155  16.236  0.00  0.00    +0.000 A 
ATOM     25  N   UNL     1      -2.584  10.737  16.452  0.00  0.00    +0.000 NA
ATOM     26  N   UNL     1      -2.272  11.029  17.759  0.00  0.00    +0.000 NA
ATOM     27  C   UNL     1      -3.307  11.634  18.317  0.00  0.00    +0.000 A 
ENDBRANCH  21  27
ENDBRANCH  17  21
ENDBRANCH  11  17
ENDBRANCH   1  15
BRANCH   8  28
ATOM     28  C   UNL     1       1.919   4.432  20.621  0.00  0.00    +0.000 C 
ATOM     29  F   UNL     1       2.364   4.644  21.895  0.00  0.00    +0.000 F 
ATOM     30  F   UNL     1       0.562   4.460  20.716  0.00  0.00    +0.000 F 
ATOM     31  F   UNL     1       2.258   3.147  20.340  0.00  0.00    +0.000 F 
ENDBRANCH   8  28
BRANCH   6  32
ATOM     32  C   UNL     1       4.609   5.508  16.388  0.00  0.00    +0.000 C 
BRANCH  32  33
ATOM     33  N   UNL     1       5.489   4.316  16.569  0.00  0.00    +0.000 NA
ATOM     34  C   UNL     1       6.898   4.768  16.862  0.00  0.00    +0.000 C 
ATOM     35  C   UNL     1       7.674   5.411  15.674  0.00  0.00    +0.000 C 
ATOM     36  N   UNL     1       7.422   4.731  14.409  0.00  0.00    +0.000 N 
ATOM     37  C   UNL     1       7.946   5.164  13.192  0.00  0.00    +0.000 C 
ATOM     38  O   UNL     1       8.855   5.960  13.030  0.00  0.00    +0.000 OA
ATOM     39  C   UNL     1       7.073   4.571  12.093  0.00  0.00    +0.000 C 
ATOM     40  C   UNL     1       6.258   3.502  12.834  0.00  0.00    +0.000 C 
ATOM     41  C   UNL     1       6.117   4.174  14.178  0.00  0.00    +0.000 C 
ATOM     42  C   UNL     1       5.582   3.413  15.386  0.00  0.00    +0.000 C 
ENDBRANCH  32  33
ENDBRANCH   6  32
TORSDOF 7
ENDMDL
MODEL 2
REMARK VINA RESULT:     -10.5      1.878      2.964
REMARK  Name = 
REMARK  8 active torsions:
REMARK  status: ('A' for Active; 'I' for Inactive)
REMARK    1  A    between atoms: C_1  and  N_2
REMARK    2  A    between atoms: C_6  and  C_7
REMARK    3  A    between atoms: C_7  and  C_8
REMARK    4  A    between atoms: C_8  and  C_9
REMARK    5  A    between atoms: C_13  and  N_14
REMARK    6  A    between atoms: C_19  and  C_20
REMARK    7  A    between atoms: C_20  and  N_21
REMARK    8  A    between atoms: C_32  and  C_33
REMARK                            x       y       z     vdW  Elec       q    Type
REMARK                         _______ _______ _______ _____ _____    ______ ____
ROOT
ATOM      1  N   UNL     1       1.239   8.634  20.397  0.00  0.00    +0.000 N 
ATOM      2  C   UNL     1       1.464   7.286  20.808  0.00  0.00    +0.000 C 
ATOM      3  C   UNL     1       2.161   6.642  19.692  0.00  0.00    +0.000 A 
ATOM      4  C   UNL     1       2.477   7.581  18.718  0.00  0.00    +0.000 A 
ATOM      5  C   UNL     1       3.290   7.214  17.648  0.00  0.00    +0.000 A 
ATOM      6  C   UNL     1       3.724   5.860  17.549  0.00  0.00    +0.000 A 
ATOM      7  C   UNL     1       3.261   4.917  18.512  0.00  0.00    +0.000 A 
ATOM      8  C   UNL     1       2.485   5.296  19.616  0.00  0.00    +0.000 A 
ATOM      9  C   UNL     1       1.764   8.861  19.105  0.00  0.00    +0.000 C 
ATOM     10  O   UNL     1       1.680   9.854  18.410  0.00  0.00    +0.000 OA
ENDROOT
BRANCH   1  15
ATOM     11  C   UNL     1      -1.167  11.370  21.223  0.00  0.00    +0.000 A 
ATOM     12  C   UNL     1      -1.213  11.242  22.616  0.00  0.00    +0.000 A 
ATOM     13  C   UNL     1      -0.528  10.203  23.283  0.00  0.00    +0.000 A 
ATOM     14  C   UNL     1       0.237   9.250  22.585  0.00  0.00    +0.000 A 
ATOM     15  C   UNL     1       0.324   9.353  21.208  0.00  0.00    +0.000 A 
ATOM     16  C   UNL     1      -0.411  10.384  20.573  0.00  0.00    +0.000 A 
BRANCH  11  17
ATOM     17  C   UNL     1      -1.850  12.547  20.341  0.00  0.00    +0.000 C 
ATOM     18  C   UNL     1      -3.100  13.244  20.982  0.00  0.00    +0.000 C 
ATOM     19  O   UNL     1      -3.969  12.796  19.923  0.00  0.00    +0.000 OA
ATOM     20  C   UNL     1      -2.879  12.140  19.250  0.00  0.00    +0.000 C 
BRANCH  17  21
ATOM     21  C   UNL     1      -0.773  13.489  19.753  0.00  0.00    +0.000 C 
BRANCH  21  27
ATOM     22  C   UNL     1       2.381  13.163  19.331  0.00  0.00    +0.000 C 
ATOM     23  N   UNL     1       1.691  13.770  20.435  0.00  0.00    +0.000 N 
ATOM     24  C   UNL     1       2.308  14.401  21.475  0.00  0.00    +0.000 A 
ATOM     25  N   UNL     1       1.414  14.820  22.332  0.00  0.00    +0.000 NA
ATOM     26  N   UNL     1       0.177  14.480  21.838  0.00  0.00    +0.000 NA
ATOM     27  C   UNL     1       0.337  13.869  20.676  0.00  0.00    +0.000 A 
ENDBRANCH  21  27
ENDBRANCH  17  21
ENDBRANCH  11  17
ENDBRANCH   1  15
BRANCH   8  28
ATOM     28  C   UNL     1       1.977   4.310  20.649  0.00  0.00    +0.000 C 
ATOM     29  F   UNL     1       0.616   4.255  20.753  0.00  0.00    +0.000 F 
ATOM     30  F   UNL     1       2.358   3.032  20.379  0.00  0.00    +0.000 F 
ATOM     31  F   UNL     1       2.415   4.584  21.905  0.00  0.00    +0.000 F 
ENDBRANCH   8  28
BRANCH   6  32
ATOM     32  C   UNL     1       4.559   5.370  16.345  0.00  0.00    +0.000 C 
BRANCH  32  33
ATOM     33  N   UNL     1       5.469   4.199  16.516  0.00  0.00    +0.000 NA
ATOM     34  C   UNL     1       6.862   4.684  16.835  0.00  0.00    +0.000 C 
ATOM     35  C   UNL     1       7.633   5.370  15.667  0.00  0.00    +0.000 C 
ATOM     36  N   UNL     1       7.415   4.707  14.387  0.00  0.00    +0.000 N 
ATOM     37  C   UNL     1       7.942   5.176  13.185  0.00  0.00    +0.000 C 
ATOM     38  O   UNL     1       8.830   6.000  13.048  0.00  0.00    +0.000 OA
ATOM     39  C   UNL     1       7.099   4.580  12.065  0.00  0.00    +0.000 C 
ATOM     40  C   UNL     1       6.304   3.475  12.776  0.00  0.00    +0.000 C 
ATOM     41  C   UNL     1       6.130   4.119  14.131  0.00  0.00    +0.000 C 
ATOM     42  C   UNL     1       5.601   3.321  15.318  0.00  0.00    +0.000 C 
ENDBRANCH  32  33
ENDBRANCH   6  32
TORSDOF 7
ENDMDL
MODEL 3
REMARK VINA RESULT:     -10.5      1.687      2.238
REMARK  Name = 
REMARK  8 active torsions:
REMARK  status: ('A' for Active; 'I' for Inactive)
REMARK    1  A    between atoms: C_1  and  N_2
REMARK    2  A    between atoms: C_6  and  C_7
REMARK    3  A    between atoms: C_7  and  C_8
REMARK    4  A    between atoms: C_8  and  C_9
REMARK    5  A    between atoms: C_13  and  N_14
REMARK    6  A    between atoms: C_19  and  C_20
REMARK    7  A    between atoms: C_20  and  N_21
REMARK    8  A    between atoms: C_32  and  C_33
REMARK                            x       y       z     vdW  Elec       q    Type
REMARK                         _______ _______ _______ _____ _____    ______ ____
ROOT
ATOM      1  N   UNL     1       1.287   8.507  20.481  0.00  0.00    +0.000 N 
ATOM      2  C   UNL     1       1.473   7.136  20.835  0.00  0.00    +0.000 C 
ATOM      3  C   UNL     1       2.171   6.526  19.701  0.00  0.00    +0.000 A 
ATOM      4  C   UNL     1       2.526   7.498  18.775  0.00  0.00    +0.000 A 
ATOM      5  C   UNL     1       3.346   7.159  17.702  0.00  0.00    +0.000 A 
ATOM      6  C   UNL     1       3.748   5.801  17.548  0.00  0.00    +0.000 A 
ATOM      7  C   UNL     1       3.248   4.827  18.461  0.00  0.00    +0.000 A 
ATOM      8  C   UNL     1       2.464   5.176  19.569  0.00  0.00    +0.000 A 
ATOM      9  C   UNL     1       1.838   8.778  19.208  0.00  0.00    +0.000 C 
ATOM     10  O   UNL     1       1.789   9.802  18.557  0.00  0.00    +0.000 OA
ENDROOT
BRANCH   1  15
ATOM     11  C   UNL     1      -1.127  11.218  21.363  0.00  0.00    +0.000 A 
ATOM     12  C   UNL     1      -1.155  11.076  22.755  0.00  0.00    +0.000 A 
ATOM     13  C   UNL     1      -0.455  10.036  23.404  0.00  0.00    +0.000 A 
ATOM     14  C   UNL     1       0.307   9.095  22.687  0.00  0.00    +0.000 A 
ATOM     15  C   UNL     1       0.377   9.211  21.310  0.00  0.00    +0.000 A 
ATOM     16  C   UNL     1      -0.372  10.243  20.694  0.00  0.00    +0.000 A 
BRANCH  11  17
ATOM     17  C   UNL     1      -1.828  12.399  20.501  0.00  0.00    +0.000 C 
ATOM     18  C   UNL     1      -2.728  11.929  19.305  0.00  0.00    +0.000 C 
ATOM     19  O   UNL     1      -1.877  12.571  18.333  0.00  0.00    +0.000 OA
ATOM     20  C   UNL     1      -1.002  13.064  19.364  0.00  0.00    +0.000 C 
BRANCH  17  21
ATOM     21  C   UNL     1      -2.440  13.472  21.431  0.00  0.00    +0.000 C 
BRANCH  21  27
ATOM     22  C   UNL     1      -5.093  14.765  20.198  0.00  0.00    +0.000 C 
ATOM     23  N   UNL     1      -4.986  13.782  21.240  0.00  0.00    +0.000 N 
ATOM     24  C   UNL     1      -6.051  13.163  21.827  0.00  0.00    +0.000 A 
ATOM     25  N   UNL     1      -5.631  12.347  22.758  0.00  0.00    +0.000 NA
ATOM     26  N   UNL     1      -4.257  12.408  22.771  0.00  0.00    +0.000 NA
ATOM     27  C   UNL     1      -3.861  13.254  21.835  0.00  0.00    +0.000 A 
ENDBRANCH  21  27
ENDBRANCH  17  21
ENDBRANCH  11  17
ENDBRANCH   1  15
BRANCH   8  28
ATOM     28  C   UNL     1       1.917   4.159  20.550  0.00  0.00    +0.000 C 
ATOM     29  F   UNL     1       0.553   4.128  20.627  0.00  0.00    +0.000 F 
ATOM     30  F   UNL     1       2.276   2.886  20.232  0.00  0.00    +0.000 F 
ATOM     31  F   UNL     1       2.336   4.370  21.824  0.00  0.00    +0.000 F 
ENDBRANCH   8  28
BRANCH   6  32
ATOM     32  C   UNL     1       4.590   5.344  16.336  0.00  0.00    +0.000 C 
BRANCH  32  33
ATOM     33  N   UNL     1       5.491   4.162  16.476  0.00  0.00    +0.000 NA
ATOM     34  C   UNL     1       6.887   4.628  16.812  0.00  0.00    +0.000 C 
ATOM     35  C   UNL     1       7.666   5.341  15.666  0.00  0.00    +0.000 C 
ATOM     36  N   UNL     1       7.447   4.716  14.367  0.00  0.00    +0.000 N 
ATOM     37  C   UNL     1       7.980   5.215  13.180  0.00  0.00    +0.000 C 
ATOM     38  O   UNL     1       8.875   6.035  13.069  0.00  0.00    +0.000 OA
ATOM     39  C   UNL     1       7.136   4.656  12.041  0.00  0.00    +0.000 C 
ATOM     40  C   UNL     1       6.332   3.538  12.719  0.00  0.00    +0.000 C 
ATOM     41  C   UNL     1       6.158   4.144  14.091  0.00  0.00    +0.000 C 
ATOM     42  C   UNL     1       5.621   3.317  15.254  0.00  0.00    +0.000 C 
ENDBRANCH  32  33
ENDBRANCH   6  32
TORSDOF 7
ENDMDL
MODEL 4
REMARK VINA RESULT:     -10.4      1.316      1.682
REMARK  Name = 
REMARK  8 active torsions:
REMARK  status: ('A' for Active; 'I' for Inactive)
REMARK    1  A    between atoms: C_1  and  N_2
REMARK    2  A    between atoms: C_6  and  C_7
REMARK    3  A    between atoms: C_7  and  C_8
REMARK    4  A    between atoms: C_8  and  C_9
REMARK    5  A    between atoms: C_13  and  N_14
REMARK    6  A    between atoms: C_19  and  C_20
REMARK    7  A    between atoms: C_20  and  N_21
REMARK    8  A    between atoms: C_32  and  C_33
REMARK                            x       y       z     vdW  Elec       q    Type
REMARK                         _______ _______ _______ _____ _____    ______ ____
ROOT
ATOM      1  N   UNL     1       1.156   8.749  20.409  0.00  0.00    +0.000 N 
ATOM      2  C   UNL     1       1.373   7.399  20.820  0.00  0.00    +0.000 C 
ATOM      3  C   UNL     1       2.097   6.761  19.718  0.00  0.00    +0.000 A 
ATOM      4  C   UNL     1       2.435   7.704  18.755  0.00  0.00    +0.000 A 
ATOM      5  C   UNL     1       3.273   7.342  17.704  0.00  0.00    +0.000 A 
ATOM      6  C   UNL     1       3.712   5.990  17.609  0.00  0.00    +0.000 A 
ATOM      7  C   UNL     1       3.228   5.042  18.557  0.00  0.00    +0.000 A 
ATOM      8  C   UNL     1       2.425   5.415  19.644  0.00  0.00    +0.000 A 
ATOM      9  C   UNL     1       1.711   8.982  19.130  0.00  0.00    +0.000 C 
ATOM     10  O   UNL     1       1.642   9.977  18.437  0.00  0.00    +0.000 OA
ENDROOT
BRANCH   1  15
ATOM     11  C   UNL     1      -1.214  11.520  21.221  0.00  0.00    +0.000 A 
ATOM     12  C   UNL     1      -1.333  11.341  22.603  0.00  0.00    +0.000 A 
ATOM     13  C   UNL     1      -0.712  10.259  23.263  0.00  0.00    +0.000 A 
ATOM     14  C   UNL     1       0.061   9.311  22.567  0.00  0.00    +0.000 A 
ATOM     15  C   UNL     1       0.220   9.463  21.201  0.00  0.00    +0.000 A 
ATOM     16  C   UNL     1      -0.453  10.538  20.571  0.00  0.00    +0.000 A 
BRANCH  11  17
ATOM     17  C   UNL     1      -1.818  12.750  20.352  0.00  0.00    +0.000 C 
ATOM     18  C   UNL     1      -0.785  13.537  19.474  0.00  0.00    +0.000 C 
ATOM     19  O   UNL     1      -1.004  14.761  20.205  0.00  0.00    +0.000 OA
ATOM     20  C   UNL     1      -1.982  14.128  21.051  0.00  0.00    +0.000 C 
BRANCH  17  21
ATOM     21  C   UNL     1      -3.132  12.334  19.649  0.00  0.00    +0.000 C 
BRANCH  21  27
ATOM     22  C   UNL     1      -6.080  13.008  18.608  0.00  0.00    +0.000 C 
ATOM     23  N   UNL     1      -5.652  12.747  19.955  0.00  0.00    +0.000 N 
ATOM     24  C   UNL     1      -6.492  12.660  21.027  0.00  0.00    +0.000 A 
ATOM     25  N   UNL     1      -5.799  12.446  22.115  0.00  0.00    +0.000 NA
ATOM     26  N   UNL     1      -4.476  12.364  21.753  0.00  0.00    +0.000 NA
ATOM     27  C   UNL     1      -4.384  12.517  20.443  0.00  0.00    +0.000 A 
ENDBRANCH  21  27
ENDBRANCH  17  21
ENDBRANCH  11  17
ENDBRANCH   1  15
BRANCH   8  28
ATOM     28  C   UNL     1       1.895   4.425  20.662  0.00  0.00    +0.000 C 
ATOM     29  F   UNL     1       2.377   4.605  21.927  0.00  0.00    +0.000 F 
ATOM     30  F   UNL     1       0.542   4.488  20.791  0.00  0.00    +0.000 F 
ATOM     31  F   UNL     1       2.191   3.136  20.353  0.00  0.00    +0.000 F 
ENDBRANCH   8  28
BRANCH   6  32
ATOM     32  C   UNL     1       4.575   5.505  16.424  0.00  0.00    +0.000 C 
BRANCH  32  33
ATOM     33  N   UNL     1       5.468   4.323  16.605  0.00  0.00    +0.000 NA
ATOM     34  C   UNL     1       6.874   4.790  16.892  0.00  0.00    +0.000 C 
ATOM     35  C   UNL     1       7.638   5.438  15.698  0.00  0.00    +0.000 C 
ATOM     36  N   UNL     1       7.389   4.752  14.436  0.00  0.00    +0.000 N 
ATOM     37  C   UNL     1       7.904   5.187  13.216  0.00  0.00    +0.000 C 
ATOM     38  O   UNL     1       8.804   5.992  13.049  0.00  0.00    +0.000 OA
ATOM     39  C   UNL     1       7.034   4.582  12.122  0.00  0.00    +0.000 C 
ATOM     40  C   UNL     1       6.232   3.506  12.869  0.00  0.00    +0.000 C 
ATOM     41  C   UNL     1       6.090   4.181  14.212  0.00  0.00    +0.000 C 
ATOM     42  C   UNL     1       5.567   3.417  15.424  0.00  0.00    +0.000 C 
ENDBRANCH  32  33
ENDBRANCH   6  32
TORSDOF 7
ENDMDL
MODEL 5
REMARK VINA RESULT:     -10.4      1.950      2.786
REMARK  Name = 
REMARK  8 active torsions:
REMARK  status: ('A' for Active; 'I' for Inactive)
REMARK    1  A    between atoms: C_1  and  N_2
REMARK    2  A    between atoms: C_6  and  C_7
REMARK    3  A    between atoms: C_7  and  C_8
REMARK    4  A    between atoms: C_8  and  C_9
REMARK    5  A    between atoms: C_13  and  N_14
REMARK    6  A    between atoms: C_19  and  C_20
REMARK    7  A    between atoms: C_20  and  N_21
REMARK    8  A    between atoms: C_32  and  C_33
REMARK                            x       y       z     vdW  Elec       q    Type
REMARK                         _______ _______ _______ _____ _____    ______ ____
ROOT
ATOM      1  N   UNL     1       1.201   8.731  20.399  0.00  0.00    +0.000 N 
ATOM      2  C   UNL     1       1.428   7.385  20.815  0.00  0.00    +0.000 C 
ATOM      3  C   UNL     1       2.137   6.741  19.707  0.00  0.00    +0.000 A 
ATOM      4  C   UNL     1       2.459   7.678  18.733  0.00  0.00    +0.000 A 
ATOM      5  C   UNL     1       3.283   7.312  17.672  0.00  0.00    +0.000 A 
ATOM      6  C   UNL     1       3.723   5.960  17.580  0.00  0.00    +0.000 A 
ATOM      7  C   UNL     1       3.256   5.017  18.542  0.00  0.00    +0.000 A 
ATOM      8  C   UNL     1       2.468   5.396  19.638  0.00  0.00    +0.000 A 
ATOM      9  C   UNL     1       1.737   8.957  19.110  0.00  0.00    +0.000 C 
ATOM     10  O   UNL     1       1.655   9.947  18.412  0.00  0.00    +0.000 OA
ENDROOT
BRANCH   1  15
ATOM     11  C   UNL     1      -0.842  11.681  21.438  0.00  0.00    +0.000 A 
ATOM     12  C   UNL     1      -1.176  11.299  22.741  0.00  0.00    +0.000 A 
ATOM     13  C   UNL     1      -0.812  10.035  23.255  0.00  0.00    +0.000 A 
ATOM     14  C   UNL     1      -0.092   9.101  22.487  0.00  0.00    +0.000 A 
ATOM     15  C   UNL     1       0.275   9.448  21.199  0.00  0.00    +0.000 A 
ATOM     16  C   UNL     1      -0.145  10.708  20.707  0.00  0.00    +0.000 A 
BRANCH  11  17
ATOM     17  C   UNL     1      -1.140  13.119  20.749  0.00  0.00    +0.000 C 
ATOM     18  C   UNL     1      -1.032  14.365  21.696  0.00  0.00    +0.000 C 
ATOM     19  O   UNL     1      -2.426  14.691  21.526  0.00  0.00    +0.000 OA
ATOM     20  C   UNL     1      -2.620  13.581  20.631  0.00  0.00    +0.000 C 
BRANCH  17  21
ATOM     21  C   UNL     1      -0.420  13.236  19.385  0.00  0.00    +0.000 C 
BRANCH  21  27
ATOM     22  C   UNL     1       2.693  13.754  19.908  0.00  0.00    +0.000 C 
ATOM     23  N   UNL     1       1.725  14.656  19.347  0.00  0.00    +0.000 N 
ATOM     24  C   UNL     1       2.021  15.892  18.853  0.00  0.00    +0.000 A 
ATOM     25  N   UNL     1       0.926  16.478  18.444  0.00  0.00    +0.000 NA
ATOM     26  N   UNL     1      -0.113  15.602  18.648  0.00  0.00    +0.000 NA
ATOM     27  C   UNL     1       0.369  14.486  19.168  0.00  0.00    +0.000 A 
ENDBRANCH  21  27
ENDBRANCH  17  21
ENDBRANCH  11  17
ENDBRANCH   1  15
BRANCH   8  28
ATOM     28  C   UNL     1       1.955   4.411  20.669  0.00  0.00    +0.000 C 
ATOM     29  F   UNL     1       0.594   4.374  20.784  0.00  0.00    +0.000 F 
ATOM     30  F   UNL     1       2.316   3.130  20.388  0.00  0.00    +0.000 F 
ATOM     31  F   UNL     1       2.407   4.671  21.923  0.00  0.00    +0.000 F 
ENDBRANCH   8  28
BRANCH   6  32
ATOM     32  C   UNL     1       4.571   5.470  16.386  0.00  0.00    +0.000 C 
BRANCH  32  33
ATOM     33  N   UNL     1       5.454   4.278  16.556  0.00  0.00    +0.000 NA
ATOM     34  C   UNL     1       6.860   4.730  16.863  0.00  0.00    +0.000 C 
ATOM     35  C   UNL     1       7.640   5.391  15.687  0.00  0.00    +0.000 C 
ATOM     36  N   UNL     1       7.397   4.728  14.412  0.00  0.00    +0.000 N 
ATOM     37  C   UNL     1       7.927   5.178  13.204  0.00  0.00    +0.000 C 
ATOM     38  O   UNL     1       8.834   5.979  13.058  0.00  0.00    +0.000 OA
ATOM     39  C   UNL     1       7.062   4.597  12.092  0.00  0.00    +0.000 C 
ATOM     40  C   UNL     1       6.245   3.516  12.814  0.00  0.00    +0.000 C 
ATOM     41  C   UNL     1       6.096   4.170  14.167  0.00  0.00    +0.000 C 
ATOM     42  C   UNL     1       5.556   3.391  15.362  0.00  0.00    +0.000 C 
ENDBRANCH  32  33
ENDBRANCH   6  32
TORSDOF 7
ENDMDL
MODEL 6
REMARK VINA RESULT:     -10.4      2.137      2.919
REMARK  Name = 
REMARK  8 active torsions:
REMARK  status: ('A' for Active; 'I' for Inactive)
REMARK    1  A    between atoms: C_1  and  N_2
REMARK    2  A    between atoms: C_6  and  C_7
REMARK    3  A    between atoms: C_7  and  C_8
REMARK    4  A    between atoms: C_8  and  C_9
REMARK    5  A    between atoms: C_13  and  N_14
REMARK    6  A    between atoms: C_19  and  C_20
REMARK    7  A    between atoms: C_20  and  N_21
REMARK    8  A    between atoms: C_32  and  C_33
REMARK                            x       y       z     vdW  Elec       q    Type
REMARK                         _______ _______ _______ _____ _____    ______ ____
ROOT
ATOM      1  N   UNL     1       1.279   8.726  20.385  0.00  0.00    +0.000 N 
ATOM      2  C   UNL     1       1.483   7.377  20.803  0.00  0.00    +0.000 C 
ATOM      3  C   UNL     1       2.162   6.714  19.687  0.00  0.00    +0.000 A 
ATOM      4  C   UNL     1       2.490   7.641  18.705  0.00  0.00    +0.000 A 
ATOM      5  C   UNL     1       3.290   7.253  17.634  0.00  0.00    +0.000 A 
ATOM      6  C   UNL     1       3.699   5.892  17.540  0.00  0.00    +0.000 A 
ATOM      7  C   UNL     1       3.225   4.962  18.512  0.00  0.00    +0.000 A 
ATOM      8  C   UNL     1       2.462   5.362  19.618  0.00  0.00    +0.000 A 
ATOM      9  C   UNL     1       1.801   8.936  19.088  0.00  0.00    +0.000 C 
ATOM     10  O   UNL     1       1.730   9.925  18.387  0.00  0.00    +0.000 OA
ENDROOT
BRANCH   1  15
ATOM     11  C   UNL     1      -0.400  11.798  21.689  0.00  0.00    +0.000 A 
ATOM     12  C   UNL     1      -0.952  11.290  22.870  0.00  0.00    +0.000 A 
ATOM     13  C   UNL     1      -0.855   9.921  23.201  0.00  0.00    +0.000 A 
ATOM     14  C   UNL     1      -0.196   9.001  22.364  0.00  0.00    +0.000 A 
ATOM     15  C   UNL     1       0.381   9.466  21.196  0.00  0.00    +0.000 A 
ATOM     16  C   UNL     1       0.226  10.838  20.881  0.00  0.00    +0.000 A 
BRANCH  11  17
ATOM     17  C   UNL     1      -0.383  13.351  21.223  0.00  0.00    +0.000 C 
ATOM     18  C   UNL     1      -1.538  14.247  21.793  0.00  0.00    +0.000 C 
ATOM     19  O   UNL     1      -2.071  14.503  20.477  0.00  0.00    +0.000 OA
ATOM     20  C   UNL     1      -1.038  13.713  19.860  0.00  0.00    +0.000 C 
BRANCH  17  21
ATOM     21  C   UNL     1       1.044  13.939  21.317  0.00  0.00    +0.000 C 
BRANCH  21  27
ATOM     22  C   UNL     1       1.372  16.621  19.604  0.00  0.00    +0.000 C 
ATOM     23  N   UNL     1       1.930  15.324  19.338  0.00  0.00    +0.000 N 
ATOM     24  C   UNL     1       2.789  15.050  18.314  0.00  0.00    +0.000 A 
ATOM     25  N   UNL     1       3.092  13.778  18.319  0.00  0.00    +0.000 NA
ATOM     26  N   UNL     1       2.438  13.201  19.382  0.00  0.00    +0.000 NA
ATOM     27  C   UNL     1       1.755  14.138  20.019  0.00  0.00    +0.000 A 
ENDBRANCH  21  27
ENDBRANCH  17  21
ENDBRANCH  11  17
ENDBRANCH   1  15
BRANCH   8  28
ATOM     28  C   UNL     1       1.943   4.392  20.660  0.00  0.00    +0.000 C 
ATOM     29  F   UNL     1       0.582   4.353  20.765  0.00  0.00    +0.000 F 
ATOM     30  F   UNL     1       2.310   3.107  20.402  0.00  0.00    +0.000 F 
ATOM     31  F   UNL     1       2.385   4.672  21.913  0.00  0.00    +0.000 F 
ENDBRANCH   8  28
BRANCH   6  32
ATOM     32  C   UNL     1       4.519   5.379  16.335  0.00  0.00    +0.000 C 
BRANCH  32  33
ATOM     33  N   UNL     1       5.424   4.205  16.513  0.00  0.00    +0.000 NA
ATOM     34  C   UNL     1       6.815   4.686  16.846  0.00  0.00    +0.000 C 
ATOM     35  C   UNL     1       7.599   5.371  15.687  0.00  0.00    +0.000 C 
ATOM     36  N   UNL     1       7.392   4.710  14.404  0.00  0.00    +0.000 N 
ATOM     37  C   UNL     1       7.932   5.179  13.207  0.00  0.00    +0.000 C 
ATOM     38  O   UNL     1       8.823   6.001  13.081  0.00  0.00    +0.000 OA
ATOM     39  C   UNL     1       7.097   4.587  12.078  0.00  0.00    +0.000 C 
ATOM     40  C   UNL     1       6.293   3.484  12.780  0.00  0.00    +0.000 C 
ATOM     41  C   UNL     1       6.107   4.126  14.134  0.00  0.00    +0.000 C 
ATOM     42  C   UNL     1       5.565   3.328  15.315  0.00  0.00    +0.000 C 
ENDBRANCH  32  33
ENDBRANCH   6  32
TORSDOF 7
ENDMDL
MODEL 7
REMARK VINA RESULT:     -10.3      2.204      2.698
REMARK  Name = 
REMARK  8 active torsions:
REMARK  status: ('A' for Active; 'I' for Inactive)
REMARK    1  A    between atoms: C_1  and  N_2
REMARK    2  A    between atoms: C_6  and  C_7
REMARK    3  A    between atoms: C_7  and  C_8
REMARK    4  A    between atoms: C_8  and  C_9
REMARK    5  A    between atoms: C_13  and  N_14
REMARK    6  A    between atoms: C_19  and  C_20
REMARK    7  A    between atoms: C_20  and  N_21
REMARK    8  A    between atoms: C_32  and  C_33
REMARK                            x       y       z     vdW  Elec       q    Type
REMARK                         _______ _______ _______ _____ _____    ______ ____
ROOT
ATOM      1  N   UNL     1       1.268   8.833  20.381  0.00  0.00    +0.000 N 
ATOM      2  C   UNL     1       1.465   7.484  20.805  0.00  0.00    +0.000 C 
ATOM      3  C   UNL     1       2.154   6.817  19.698  0.00  0.00    +0.000 A 
ATOM      4  C   UNL     1       2.493   7.740  18.716  0.00  0.00    +0.000 A 
ATOM      5  C   UNL     1       3.302   7.347  17.654  0.00  0.00    +0.000 A 
ATOM      6  C   UNL     1       3.710   5.985  17.569  0.00  0.00    +0.000 A 
ATOM      7  C   UNL     1       3.225   5.059  18.539  0.00  0.00    +0.000 A 
ATOM      8  C   UNL     1       2.452   5.464  19.636  0.00  0.00    +0.000 A 
ATOM      9  C   UNL     1       1.803   9.038  19.088  0.00  0.00    +0.000 C 
ATOM     10  O   UNL     1       1.741  10.025  18.383  0.00  0.00    +0.000 OA
ENDROOT
BRANCH   1  15
ATOM     11  C   UNL     1      -0.420  11.911  21.658  0.00  0.00    +0.000 A 
ATOM     12  C   UNL     1      -0.983  11.409  22.836  0.00  0.00    +0.000 A 
ATOM     13  C   UNL     1      -0.890  10.041  23.172  0.00  0.00    +0.000 A 
ATOM     14  C   UNL     1      -0.224   9.117  22.346  0.00  0.00    +0.000 A 
ATOM     15  C   UNL     1       0.363   9.577  21.181  0.00  0.00    +0.000 A 
ATOM     16  C   UNL     1       0.212  10.947  20.859  0.00  0.00    +0.000 A 
BRANCH  11  17
ATOM     17  C   UNL     1      -0.397  13.463  21.185  0.00  0.00    +0.000 C 
ATOM     18  C   UNL     1       0.625  14.388  21.932  0.00  0.00    +0.000 C 
ATOM     19  O   UNL     1      -0.425  15.214  22.474  0.00  0.00    +0.000 OA
ATOM     20  C   UNL     1      -1.437  14.434  21.812  0.00  0.00    +0.000 C 
BRANCH  17  21
ATOM     21  C   UNL     1      -0.410  13.569  19.642  0.00  0.00    +0.000 C 
BRANCH  21  27
ATOM     22  C   UNL     1      -0.316  16.676  18.886  0.00  0.00    +0.000 C 
ATOM     23  N   UNL     1       0.735  15.703  18.775  0.00  0.00    +0.000 N 
ATOM     24  C   UNL     1       2.013  15.990  18.393  0.00  0.00    +0.000 A 
ATOM     25  N   UNL     1       2.722  14.892  18.360  0.00  0.00    +0.000 NA
ATOM     26  N   UNL     1       1.904  13.860  18.752  0.00  0.00    +0.000 NA
ATOM     27  C   UNL     1       0.707  14.349  19.032  0.00  0.00    +0.000 A 
ENDBRANCH  21  27
ENDBRANCH  17  21
ENDBRANCH  11  17
ENDBRANCH   1  15
BRANCH   8  28
ATOM     28  C   UNL     1       1.921   4.498  20.676  0.00  0.00    +0.000 C 
ATOM     29  F   UNL     1       2.232   3.188  20.440  0.00  0.00    +0.000 F 
ATOM     30  F   UNL     1       2.412   4.753  21.919  0.00  0.00    +0.000 F 
ATOM     31  F   UNL     1       0.568   4.524  20.785  0.00  0.00    +0.000 F 
ENDBRANCH   8  28
BRANCH   6  32
ATOM     32  C   UNL     1       4.540   5.467  16.374  0.00  0.00    +0.000 C 
BRANCH  32  33
ATOM     33  N   UNL     1       5.432   4.284  16.561  0.00  0.00    +0.000 NA
ATOM     34  C   UNL     1       6.830   4.752  16.882  0.00  0.00    +0.000 C 
ATOM     35  C   UNL     1       7.618   5.415  15.712  0.00  0.00    +0.000 C 
ATOM     36  N   UNL     1       7.397   4.742  14.438  0.00  0.00    +0.000 N 
ATOM     37  C   UNL     1       7.937   5.192  13.234  0.00  0.00    +0.000 C 
ATOM     38  O   UNL     1       8.838   6.001  13.094  0.00  0.00    +0.000 OA
ATOM     39  C   UNL     1       7.091   4.597  12.115  0.00  0.00    +0.000 C 
ATOM     40  C   UNL     1       6.277   3.511  12.833  0.00  0.00    +0.000 C 
ATOM     41  C   UNL     1       6.104   4.170  14.180  0.00  0.00    +0.000 C 
ATOM     42  C   UNL     1       5.558   3.392  15.372  0.00  0.00    +0.000 C 
ENDBRANCH  32  33
ENDBRANCH   6  32
TORSDOF 7
ENDMDL
MODEL 8
REMARK VINA RESULT:     -10.2      1.305      1.756
REMARK  Name = 
REMARK  8 active torsions:
REMARK  status: ('A' for Active; 'I' for Inactive)
REMARK    1  A    between atoms: C_1  and  N_2
REMARK    2  A    between atoms: C_6  and  C_7
REMARK    3  A    between atoms: C_7  and  C_8
REMARK    4  A    between atoms: C_8  and  C_9
REMARK    5  A    between atoms: C_13  and  N_14
REMARK    6  A    between atoms: C_19  and  C_20
REMARK    7  A    between atoms: C_20  and  N_21
REMARK    8  A    between atoms: C_32  and  C_33
REMARK                            x       y       z     vdW  Elec       q    Type
REMARK                         _______ _______ _______ _____ _____    ______ ____
ROOT
ATOM      1  N   UNL     1       1.283   8.799  20.326  0.00  0.00    +0.000 N 
ATOM      2  C   UNL     1       1.534   7.475  20.795  0.00  0.00    +0.000 C 
ATOM      3  C   UNL     1       2.197   6.781  19.688  0.00  0.00    +0.000 A 
ATOM      4  C   UNL     1       2.471   7.672  18.657  0.00  0.00    +0.000 A 
ATOM      5  C   UNL     1       3.249   7.259  17.579  0.00  0.00    +0.000 A 
ATOM      6  C   UNL     1       3.691   5.905  17.531  0.00  0.00    +0.000 A 
ATOM      7  C   UNL     1       3.271   5.007  18.556  0.00  0.00    +0.000 A 
ATOM      8  C   UNL     1       2.531   5.435  19.667  0.00  0.00    +0.000 A 
ATOM      9  C   UNL     1       1.760   8.965  19.005  0.00  0.00    +0.000 C 
ATOM     10  O   UNL     1       1.642   9.921  18.265  0.00  0.00    +0.000 OA
ENDROOT
BRANCH   1  15
ATOM     11  C   UNL     1      -0.245  11.898  21.747  0.00  0.00    +0.000 A 
ATOM     12  C   UNL     1      -0.912  11.356  22.851  0.00  0.00    +0.000 A 
ATOM     13  C   UNL     1      -0.941   9.964  23.084  0.00  0.00    +0.000 A 
ATOM     14  C   UNL     1      -0.297   9.054  22.225  0.00  0.00    +0.000 A 
ATOM     15  C   UNL     1       0.390   9.551  21.132  0.00  0.00    +0.000 A 
ATOM     16  C   UNL     1       0.360  10.949  20.910  0.00  0.00    +0.000 A 
BRANCH  11  17
ATOM     17  C   UNL     1      -0.080  13.473  21.398  0.00  0.00    +0.000 C 
ATOM     18  C   UNL     1       1.388  14.026  21.417  0.00  0.00    +0.000 C 
ATOM     19  O   UNL     1       1.098  14.932  22.501  0.00  0.00    +0.000 OA
ATOM     20  C   UNL     1      -0.275  14.501  22.548  0.00  0.00    +0.000 C 
BRANCH  17  21
ATOM     21  C   UNL     1      -0.936  13.859  20.169  0.00  0.00    +0.000 C 
BRANCH  21  27
ATOM     22  C   UNL     1      -3.622  14.474  21.794  0.00  0.00    +0.000 C 
ATOM     23  N   UNL     1      -3.422  13.521  20.738  0.00  0.00    +0.000 N 
ATOM     24  C   UNL     1      -4.413  12.761  20.188  0.00  0.00    +0.000 A 
ATOM     25  N   UNL     1      -3.911  11.972  19.274  0.00  0.00    +0.000 NA
ATOM     26  N   UNL     1      -2.563  12.232  19.200  0.00  0.00    +0.000 NA
ATOM     27  C   UNL     1      -2.266  13.188  20.064  0.00  0.00    +0.000 A 
ENDBRANCH  21  27
ENDBRANCH  17  21
ENDBRANCH  11  17
ENDBRANCH   1  15
BRANCH   8  28
ATOM     28  C   UNL     1       2.069   4.499  20.765  0.00  0.00    +0.000 C 
ATOM     29  F   UNL     1       2.444   4.878  22.023  0.00  0.00    +0.000 F 
ATOM     30  F   UNL     1       0.714   4.394  20.822  0.00  0.00    +0.000 F 
ATOM     31  F   UNL     1       2.546   3.235  20.622  0.00  0.00    +0.000 F 
ENDBRANCH   8  28
BRANCH   6  32
ATOM     32  C   UNL     1       4.488   5.361  16.325  0.00  0.00    +0.000 C 
BRANCH  32  33
ATOM     33  N   UNL     1       5.409   4.203  16.519  0.00  0.00    +0.000 NA
ATOM     34  C   UNL     1       6.791   4.707  16.852  0.00  0.00    +0.000 C 
ATOM     35  C   UNL     1       7.571   5.391  15.689  0.00  0.00    +0.000 C 
ATOM     36  N   UNL     1       7.378   4.714  14.412  0.00  0.00    +0.000 N 
ATOM     37  C   UNL     1       7.916   5.177  13.213  0.00  0.00    +0.000 C 
ATOM     38  O   UNL     1       8.796   6.010  13.081  0.00  0.00    +0.000 OA
ATOM     39  C   UNL     1       7.095   4.561  12.087  0.00  0.00    +0.000 C 
ATOM     40  C   UNL     1       6.304   3.454  12.798  0.00  0.00    +0.000 C 
ATOM     41  C   UNL     1       6.103   4.108  14.144  0.00  0.00    +0.000 C 
ATOM     42  C   UNL     1       5.568   3.315  15.331  0.00  0.00    +0.000 C 
ENDBRANCH  32  33
ENDBRANCH   6  32
TORSDOF 7
ENDMDL
MODEL 9
REMARK VINA RESULT:     -10.2      1.920      2.966
REMARK  Name = 
REMARK  8 active torsions:
REMARK  status: ('A' for Active; 'I' for Inactive)
REMARK    1  A    between atoms: C_1  and  N_2
REMARK    2  A    between atoms: C_6  and  C_7
REMARK    3  A    between atoms: C_7  and  C_8
REMARK    4  A    between atoms: C_8  and  C_9
REMARK    5  A    between atoms: C_13  and  N_14
REMARK    6  A    between atoms: C_19  and  C_20
REMARK    7  A    between atoms: C_20  and  N_21
REMARK    8  A    between atoms: C_32  and  C_33
REMARK                            x       y       z     vdW  Elec       q    Type
REMARK                         _______ _______ _______ _____ _____    ______ ____
ROOT
ATOM      1  N   UNL     1       1.271   8.516  20.467  0.00  0.00    +0.000 N 
ATOM      2  C   UNL     1       1.481   7.157  20.849  0.00  0.00    +0.000 C 
ATOM      3  C   UNL     1       2.170   6.529  19.719  0.00  0.00    +0.000 A 
ATOM      4  C   UNL     1       2.497   7.485  18.765  0.00  0.00    +0.000 A 
ATOM      5  C   UNL     1       3.306   7.132  17.688  0.00  0.00    +0.000 A 
ATOM      6  C   UNL     1       3.724   5.776  17.559  0.00  0.00    +0.000 A 
ATOM      7  C   UNL     1       3.252   4.817  18.502  0.00  0.00    +0.000 A 
ATOM      8  C   UNL     1       2.480   5.181  19.614  0.00  0.00    +0.000 A 
ATOM      9  C   UNL     1       1.798   8.765  19.179  0.00  0.00    +0.000 C 
ATOM     10  O   UNL     1       1.724   9.773  18.505  0.00  0.00    +0.000 OA
ENDROOT
BRANCH   1  15
ATOM     11  C   UNL     1      -0.996  11.332  21.410  0.00  0.00    +0.000 A 
ATOM     12  C   UNL     1      -1.118  11.096  22.783  0.00  0.00    +0.000 A 
ATOM     13  C   UNL     1      -0.535   9.964  23.392  0.00  0.00    +0.000 A 
ATOM     14  C   UNL     1       0.202   9.021  22.652  0.00  0.00    +0.000 A 
ATOM     15  C   UNL     1       0.363   9.227  21.293  0.00  0.00    +0.000 A 
ATOM     16  C   UNL     1      -0.272  10.352  20.714  0.00  0.00    +0.000 A 
BRANCH  11  17
ATOM     17  C   UNL     1      -1.558  12.619  20.599  0.00  0.00    +0.000 C 
ATOM     18  C   UNL     1      -2.912  12.407  19.836  0.00  0.00    +0.000 C 
ATOM     19  O   UNL     1      -2.297  12.645  18.554  0.00  0.00    +0.000 OA
ATOM     20  C   UNL     1      -1.015  12.875  19.165  0.00  0.00    +0.000 C 
BRANCH  17  21
ATOM     21  C   UNL     1      -1.455  13.900  21.459  0.00  0.00    +0.000 C 
BRANCH  21  27
ATOM     22  C   UNL     1      -0.480  16.758  20.402  0.00  0.00    +0.000 C 
ATOM     23  N   UNL     1       0.272  15.780  21.139  0.00  0.00    +0.000 N 
ATOM     24  C   UNL     1       1.545  15.968  21.591  0.00  0.00    +0.000 A 
ATOM     25  N   UNL     1       1.964  14.887  22.196  0.00  0.00    +0.000 NA
ATOM     26  N   UNL     1       0.938  13.973  22.166  0.00  0.00    +0.000 NA
ATOM     27  C   UNL     1      -0.099  14.518  21.551  0.00  0.00    +0.000 A 
ENDBRANCH  21  27
ENDBRANCH  17  21
ENDBRANCH  11  17
ENDBRANCH   1  15
BRANCH   8  28
ATOM     28  C   UNL     1       1.962   4.180  20.627  0.00  0.00    +0.000 C 
ATOM     29  F   UNL     1       2.310   2.884  20.366  0.00  0.00    +0.000 F 
ATOM     30  F   UNL     1       2.431   4.421  21.882  0.00  0.00    +0.000 F 
ATOM     31  F   UNL     1       0.607   4.169  20.719  0.00  0.00    +0.000 F 
ENDBRANCH   8  28
BRANCH   6  32
ATOM     32  C   UNL     1       4.554   5.302  16.345  0.00  0.00    +0.000 C 
BRANCH  32  33
ATOM     33  N   UNL     1       5.467   4.131  16.496  0.00  0.00    +0.000 NA
ATOM     34  C   UNL     1       6.858   4.615  16.825  0.00  0.00    +0.000 C 
ATOM     35  C   UNL     1       7.629   5.323  15.671  0.00  0.00    +0.000 C 
ATOM     36  N   UNL     1       7.414   4.682  14.379  0.00  0.00    +0.000 N 
ATOM     37  C   UNL     1       7.941   5.174  13.186  0.00  0.00    +0.000 C 
ATOM     38  O   UNL     1       8.826   6.002  13.065  0.00  0.00    +0.000 OA
ATOM     39  C   UNL     1       7.101   4.595  12.054  0.00  0.00    +0.000 C 
ATOM     40  C   UNL     1       6.309   3.476  12.745  0.00  0.00    +0.000 C 
ATOM     41  C   UNL     1       6.131   4.095  14.111  0.00  0.00    +0.000 C 
ATOM     42  C   UNL     1       5.603   3.274  15.283  0.00  0.00    +0.000 C 
ENDBRANCH  32  33
ENDBRANCH   6  32
TORSDOF 7
ENDMDL
