MODEL 1
REMARK VINA RESULT:      -8.3      0.000      0.000
REMARK  Name = 
REMARK  6 active torsions:
REMARK  status: ('A' for Active; 'I' for Inactive)
REMARK    1  A    between atoms: C_1  and  C_2
REMARK    2  A    between atoms: C_2  and  S_3
REMARK    3  A    between atoms: C_2  and  C_10
REMARK    4  A    between atoms: S_3  and  C_4
REMARK    5  A    between atoms: N_8  and  C_9
REMARK    6  A    between atoms: C_18  and  C_19
REMARK                            x       y       z     vdW  Elec       q    Type
REMARK                         _______ _______ _______ _____ _____    ______ ____
ROOT
ATOM      1  C   UNL     1      -0.882  11.184  21.846  0.00  0.00    +0.000 A 
ATOM      2  C   UNL     1      -0.725  10.526  23.074  0.00  0.00    +0.000 A 
ATOM      3  C   UNL     1       0.109   9.423  23.150  0.00  0.00    +0.000 A 
ATOM      4  N   UNL     1       0.780   8.916  22.099  0.00  0.00    +0.000 NA
ATOM      5  C   UNL     1       0.633   9.547  20.902  0.00  0.00    +0.000 A 
ATOM      6  N   UNL     1       1.299   9.013  19.749  0.00  0.00    +0.000 N 
ATOM      7  N   UNL     1       1.277   9.652  18.541  0.00  0.00    +0.000 NA
ATOM      8  C   UNL     1       1.943   8.795  17.767  0.00  0.00    +0.000 A 
ATOM      9  C   UNL     1       2.339   7.650  18.495  0.00  0.00    +0.000 A 
ATOM     10  N   UNL     1       1.963   7.822  19.772  0.00  0.00    +0.000 NA
ATOM     11  C   UNL     1      -0.174  10.680  20.744  0.00  0.00    +0.000 A 
ENDROOT
BRANCH   9  12
ATOM     12  C   UNL     1       3.020   6.447  18.015  0.00  0.00    +0.000 A 
ATOM     13  C   UNL     1       4.336   6.507  17.529  0.00  0.00    +0.000 A 
ATOM     14  C   UNL     1       4.976   5.363  17.044  0.00  0.00    +0.000 A 
ATOM     15  C   UNL     1       4.310   4.141  17.037  0.00  0.00    +0.000 A 
ATOM     16  C   UNL     1       3.004   4.061  17.516  0.00  0.00    +0.000 A 
ATOM     17  C   UNL     1       2.364   5.205  18.003  0.00  0.00    +0.000 A 
ENDBRANCH   9  12
BRANCH   1  19
ATOM     18  C   UNL     1      -1.392  13.302  20.555  0.00  0.00    +0.000 C 
ATOM     19  C   UNL     1      -1.852  12.352  21.667  0.00  0.00    +0.000 C 
BRANCH  19  20
ATOM     20  S   UNL     1      -2.026  13.179  23.303  0.00  0.00    +0.000 S 
BRANCH  20  21
ATOM     21  C   UNL     1      -3.680  12.955  23.732  0.00  0.00    +0.000 A 
ATOM     22  N   UNL     1      -4.205  11.997  24.457  0.00  0.00    +0.000 NA
ATOM     23  N   UNL     1      -5.573  12.152  24.439  0.00  0.00    +0.000 NA
ATOM     24  C   UNL     1      -5.840  13.221  23.725  0.00  0.00    +0.000 A 
ATOM     25  N   UNL     1      -4.676  13.781  23.292  0.00  0.00    +0.000 N 
ATOM     26  C   UNL     1      -4.559  15.005  22.544  0.00  0.00    +0.000 C 
ENDBRANCH  20  21
ENDBRANCH  19  20
ENDBRANCH   1  19
TORSDOF 4
ENDMDL
MODEL 2
REMARK VINA RESULT:      -8.1      4.571     10.114
REMARK  Name = 
REMARK  6 active torsions:
REMARK  status: ('A' for Active; 'I' for Inactive)
REMARK    1  A    between atoms: C_1  and  C_2
REMARK    2  A    between atoms: C_2  and  S_3
REMARK    3  A    between atoms: C_2  and  C_10
REMARK    4  A    between atoms: S_3  and  C_4
REMARK    5  A    between atoms: N_8  and  C_9
REMARK    6  A    between atoms: C_18  and  C_19
REMARK                            x       y       z     vdW  Elec       q    Type
REMARK                         _______ _______ _______ _____ _____    ______ ____
ROOT
ATOM      1  C   UNL     1       4.507   5.066  17.077  0.00  0.00    +0.000 A 
ATOM      2  C   UNL     1       4.286   3.960  17.910  0.00  0.00    +0.000 A 
ATOM      3  C   UNL     1       3.394   4.074  18.965  0.00  0.00    +0.000 A 
ATOM      4  N   UNL     1       2.725   5.203  19.263  0.00  0.00    +0.000 NA
ATOM      5  C   UNL     1       2.935   6.283  18.460  0.00  0.00    +0.000 A 
ATOM      6  N   UNL     1       2.271   7.518  18.769  0.00  0.00    +0.000 N 
ATOM      7  N   UNL     1       2.357   8.608  17.951  0.00  0.00    +0.000 NA
ATOM      8  C   UNL     1       1.668   9.519  18.638  0.00  0.00    +0.000 A 
ATOM      9  C   UNL     1       1.196   8.989  19.859  0.00  0.00    +0.000 A 
ATOM     10  N   UNL     1       1.547   7.695  19.911  0.00  0.00    +0.000 NA
ATOM     11  C   UNL     1       3.802   6.245  17.362  0.00  0.00    +0.000 A 
ENDROOT
BRANCH   9  12
ATOM     12  C   UNL     1       0.466   9.664  20.933  0.00  0.00    +0.000 A 
ATOM     13  C   UNL     1       0.456   9.143  22.237  0.00  0.00    +0.000 A 
ATOM     14  C   UNL     1      -0.265   9.772  23.256  0.00  0.00    +0.000 A 
ATOM     15  C   UNL     1      -0.987  10.931  22.988  0.00  0.00    +0.000 A 
ATOM     16  C   UNL     1      -0.988  11.463  21.700  0.00  0.00    +0.000 A 
ATOM     17  C   UNL     1      -0.266  10.837  20.680  0.00  0.00    +0.000 A 
ENDBRANCH   9  12
BRANCH   1  19
ATOM     18  C   UNL     1       5.216   3.960  14.911  0.00  0.00    +0.000 C 
ATOM     19  C   UNL     1       5.539   5.041  15.950  0.00  0.00    +0.000 C 
BRANCH  19  20
ATOM     20  S   UNL     1       7.197   4.832  16.725  0.00  0.00    +0.000 S 
BRANCH  20  21
ATOM     21  C   UNL     1       7.552   6.369  17.419  0.00  0.00    +0.000 A 
ATOM     22  N   UNL     1       7.516   7.545  16.840  0.00  0.00    +0.000 NA
ATOM     23  N   UNL     1       7.991   8.475  17.739  0.00  0.00    +0.000 NA
ATOM     24  C   UNL     1       8.274   7.839  18.852  0.00  0.00    +0.000 A 
ATOM     25  N   UNL     1       7.977   6.517  18.709  0.00  0.00    +0.000 N 
ATOM     26  C   UNL     1       8.083   5.516  19.737  0.00  0.00    +0.000 C 
ENDBRANCH  20  21
ENDBRANCH  19  20
ENDBRANCH   1  19
TORSDOF 4
ENDMDL
MODEL 3
REMARK VINA RESULT:      -8.1      4.637     11.021
REMARK  Name = 
REMARK  6 active torsions:
REMARK  status: ('A' for Active; 'I' for Inactive)
REMARK    1  A    between atoms: C_1  and  C_2
REMARK    2  A    between atoms: C_2  and  S_3
REMARK    3  A    between atoms: C_2  and  C_10
REMARK    4  A    between atoms: S_3  and  C_4
REMARK    5  A    between atoms: N_8  and  C_9
REMARK    6  A    between atoms: C_18  and  C_19
REMARK                            x       y       z     vdW  Elec       q    Type
REMARK                         _______ _______ _______ _____ _____    ______ ____
ROOT
ATOM      1  C   UNL     1       4.766   4.242  18.125  0.00  0.00    +0.000 A 
ATOM      2  C   UNL     1       4.496   3.291  19.119  0.00  0.00    +0.000 A 
ATOM      3  C   UNL     1       3.560   3.581  20.099  0.00  0.00    +0.000 A 
ATOM      4  N   UNL     1       2.891   4.746  20.175  0.00  0.00    +0.000 NA
ATOM      5  C   UNL     1       3.148   5.677  19.214  0.00  0.00    +0.000 A 
ATOM      6  N   UNL     1       2.484   6.948  19.284  0.00  0.00    +0.000 N 
ATOM      7  N   UNL     1       2.617   7.887  18.300  0.00  0.00    +0.000 NA
ATOM      8  C   UNL     1       1.909   8.902  18.795  0.00  0.00    +0.000 A 
ATOM      9  C   UNL     1       1.377   8.583  20.065  0.00  0.00    +0.000 A 
ATOM     10  N   UNL     1       1.712   7.315  20.346  0.00  0.00    +0.000 NA
ATOM     11  C   UNL     1       4.062   5.454  18.178  0.00  0.00    +0.000 A 
ENDROOT
BRANCH   9  12
ATOM     12  C   UNL     1       0.608   9.430  20.978  0.00  0.00    +0.000 A 
ATOM     13  C   UNL     1       0.312  10.763  20.650  0.00  0.00    +0.000 A 
ATOM     14  C   UNL     1      -0.396  11.580  21.536  0.00  0.00    +0.000 A 
ATOM     15  C   UNL     1      -0.819  11.078  22.762  0.00  0.00    +0.000 A 
ATOM     16  C   UNL     1      -0.535   9.758  23.105  0.00  0.00    +0.000 A 
ATOM     17  C   UNL     1       0.172   8.939  22.220  0.00  0.00    +0.000 A 
ENDBRANCH   9  12
BRANCH   1  19
ATOM     18  C   UNL     1       7.153   4.738  17.438  0.00  0.00    +0.000 C 
ATOM     19  C   UNL     1       5.847   4.027  17.065  0.00  0.00    +0.000 C 
BRANCH  19  20
ATOM     20  S   UNL     1       5.153   4.581  15.451  0.00  0.00    +0.000 S 
BRANCH  20  21
ATOM     21  C   UNL     1       6.532   4.850  14.453  0.00  0.00    +0.000 A 
ATOM     22  N   UNL     1       7.578   5.600  14.704  0.00  0.00    +0.000 NA
ATOM     23  N   UNL     1       8.371   5.612  13.577  0.00  0.00    +0.000 NA
ATOM     24  C   UNL     1       7.797   4.844  12.682  0.00  0.00    +0.000 A 
ATOM     25  N   UNL     1       6.656   4.312  13.203  0.00  0.00    +0.000 N 
ATOM     26  C   UNL     1       5.794   3.363  12.548  0.00  0.00    +0.000 C 
ENDBRANCH  20  21
ENDBRANCH  19  20
ENDBRANCH   1  19
TORSDOF 4
ENDMDL
MODEL 4
REMARK VINA RESULT:      -7.9      3.262     10.218
REMARK  Name = 
REMARK  6 active torsions:
REMARK  status: ('A' for Active; 'I' for Inactive)
REMARK    1  A    between atoms: C_1  and  C_2
REMARK    2  A    between atoms: C_2  and  S_3
REMARK    3  A    between atoms: C_2  and  C_10
REMARK    4  A    between atoms: S_3  and  C_4
REMARK    5  A    between atoms: N_8  and  C_9
REMARK    6  A    between atoms: C_18  and  C_19
REMARK                            x       y       z     vdW  Elec       q    Type
REMARK                         _______ _______ _______ _____ _____    ______ ____
ROOT
ATOM      1  C   UNL     1       2.388   6.936  19.131  0.00  0.00    +0.000 A 
ATOM      2  C   UNL     1       2.539   7.691  17.960  0.00  0.00    +0.000 A 
ATOM      3  C   UNL     1       2.109   9.008  17.943  0.00  0.00    +0.000 A 
ATOM      4  N   UNL     1       1.526   9.620  18.990  0.00  0.00    +0.000 NA
ATOM      5  C   UNL     1       1.373   8.894  20.132  0.00  0.00    +0.000 A 
ATOM      6  N   UNL     1       0.719   9.499  21.257  0.00  0.00    +0.000 N 
ATOM      7  N   UNL     1       0.622   8.864  22.463  0.00  0.00    +0.000 NA
ATOM      8  C   UNL     1      -0.098   9.733  23.172  0.00  0.00    +0.000 A 
ATOM      9  C   UNL     1      -0.446  10.861  22.396  0.00  0.00    +0.000 A 
ATOM     10  N   UNL     1       0.121  10.722  21.187  0.00  0.00    +0.000 NA
ATOM     11  C   UNL     1       1.800   7.565  20.239  0.00  0.00    +0.000 A 
ENDROOT
BRANCH   9  12
ATOM     12  C   UNL     1      -1.283  12.005  22.760  0.00  0.00    +0.000 A 
ATOM     13  C   UNL     1      -0.810  13.320  22.621  0.00  0.00    +0.000 A 
ATOM     14  C   UNL     1      -1.599  14.411  22.998  0.00  0.00    +0.000 A 
ATOM     15  C   UNL     1      -2.872  14.204  23.519  0.00  0.00    +0.000 A 
ATOM     16  C   UNL     1      -3.359  12.907  23.664  0.00  0.00    +0.000 A 
ATOM     17  C   UNL     1      -2.572  11.815  23.287  0.00  0.00    +0.000 A 
ENDBRANCH   9  12
BRANCH   1  19
ATOM     18  C   UNL     1       2.048   4.745  20.357  0.00  0.00    +0.000 C 
ATOM     19  C   UNL     1       2.758   5.454  19.197  0.00  0.00    +0.000 C 
BRANCH  19  20
ATOM     20  S   UNL     1       4.594   5.349  19.296  0.00  0.00    +0.000 S 
BRANCH  20  21
ATOM     21  C   UNL     1       5.090   4.877  17.715  0.00  0.00    +0.000 A 
ATOM     22  N   UNL     1       4.336   4.525  16.702  0.00  0.00    +0.000 NA
ATOM     23  N   UNL     1       5.164   4.116  15.679  0.00  0.00    +0.000 NA
ATOM     24  C   UNL     1       6.401   4.259  16.091  0.00  0.00    +0.000 A 
ATOM     25  N   UNL     1       6.405   4.772  17.354  0.00  0.00    +0.000 N 
ATOM     26  C   UNL     1       7.573   5.135  18.111  0.00  0.00    +0.000 C 
ENDBRANCH  20  21
ENDBRANCH  19  20
ENDBRANCH   1  19
TORSDOF 4
ENDMDL
MODEL 5
REMARK VINA RESULT:      -7.9      3.130     10.041
REMARK  Name = 
REMARK  6 active torsions:
REMARK  status: ('A' for Active; 'I' for Inactive)
REMARK    1  A    between atoms: C_1  and  C_2
REMARK    2  A    between atoms: C_2  and  S_3
REMARK    3  A    between atoms: C_2  and  C_10
REMARK    4  A    between atoms: S_3  and  C_4
REMARK    5  A    between atoms: N_8  and  C_9
REMARK    6  A    between atoms: C_18  and  C_19
REMARK                            x       y       z     vdW  Elec       q    Type
REMARK                         _______ _______ _______ _____ _____    ______ ____
ROOT
ATOM      1  C   UNL     1       2.220   7.344  19.059  0.00  0.00    +0.000 A 
ATOM      2  C   UNL     1       2.335   8.158  17.924  0.00  0.00    +0.000 A 
ATOM      3  C   UNL     1       1.875   9.464  17.978  0.00  0.00    +0.000 A 
ATOM      4  N   UNL     1       1.296  10.011  19.062  0.00  0.00    +0.000 NA
ATOM      5  C   UNL     1       1.178   9.227  20.169  0.00  0.00    +0.000 A 
ATOM      6  N   UNL     1       0.529   9.761  21.333  0.00  0.00    +0.000 N 
ATOM      7  N   UNL     1       0.467   9.066  22.508  0.00  0.00    +0.000 NA
ATOM      8  C   UNL     1      -0.261   9.883  23.269  0.00  0.00    +0.000 A 
ATOM      9  C   UNL     1      -0.647  11.039  22.555  0.00  0.00    +0.000 A 
ATOM     10  N   UNL     1      -0.097  10.972  21.332  0.00  0.00    +0.000 NA
ATOM     11  C   UNL     1       1.636   7.905  20.205  0.00  0.00    +0.000 A 
ENDROOT
BRANCH   9  12
ATOM     12  C   UNL     1      -1.504  12.144  22.988  0.00  0.00    +0.000 A 
ATOM     13  C   UNL     1      -1.031  13.466  22.988  0.00  0.00    +0.000 A 
ATOM     14  C   UNL     1      -1.840  14.518  23.431  0.00  0.00    +0.000 A 
ATOM     15  C   UNL     1      -3.132  14.263  23.878  0.00  0.00    +0.000 A 
ATOM     16  C   UNL     1      -3.619  12.958  23.883  0.00  0.00    +0.000 A 
ATOM     17  C   UNL     1      -2.812  11.906  23.441  0.00  0.00    +0.000 A 
ENDBRANCH   9  12
BRANCH   1  19
ATOM     18  C   UNL     1       1.889   5.073  20.131  0.00  0.00    +0.000 C 
ATOM     19  C   UNL     1       2.624   5.869  19.047  0.00  0.00    +0.000 C 
BRANCH  19  20
ATOM     20  S   UNL     1       4.457   5.800  19.211  0.00  0.00    +0.000 S 
BRANCH  20  21
ATOM     21  C   UNL     1       5.044   5.856  17.592  0.00  0.00    +0.000 A 
ATOM     22  N   UNL     1       5.612   6.863  16.972  0.00  0.00    +0.000 NA
ATOM     23  N   UNL     1       5.808   6.496  15.659  0.00  0.00    +0.000 NA
ATOM     24  C   UNL     1       5.379   5.262  15.525  0.00  0.00    +0.000 A 
ATOM     25  N   UNL     1       4.925   4.805  16.726  0.00  0.00    +0.000 N 
ATOM     26  C   UNL     1       4.446   3.476  16.993  0.00  0.00    +0.000 C 
ENDBRANCH  20  21
ENDBRANCH  19  20
ENDBRANCH   1  19
TORSDOF 4
ENDMDL
MODEL 6
REMARK VINA RESULT:      -7.8      0.605      1.120
REMARK  Name = 
REMARK  6 active torsions:
REMARK  status: ('A' for Active; 'I' for Inactive)
REMARK    1  A    between atoms: C_1  and  C_2
REMARK    2  A    between atoms: C_2  and  S_3
REMARK    3  A    between atoms: C_2  and  C_10
REMARK    4  A    between atoms: S_3  and  C_4
REMARK    5  A    between atoms: N_8  and  C_9
REMARK    6  A    between atoms: C_18  and  C_19
REMARK                            x       y       z     vdW  Elec       q    Type
REMARK                         _______ _______ _______ _____ _____    ______ ____
ROOT
ATOM      1  C   UNL     1      -0.785  11.307  21.705  0.00  0.00    +0.000 A 
ATOM      2  C   UNL     1      -0.736  10.609  22.920  0.00  0.00    +0.000 A 
ATOM      3  C   UNL     1       0.019   9.451  23.006  0.00  0.00    +0.000 A 
ATOM      4  N   UNL     1       0.709   8.927  21.976  0.00  0.00    +0.000 NA
ATOM      5  C   UNL     1       0.666   9.597  20.791  0.00  0.00    +0.000 A 
ATOM      6  N   UNL     1       1.356   9.049  19.659  0.00  0.00    +0.000 N 
ATOM      7  N   UNL     1       1.439   9.718  18.470  0.00  0.00    +0.000 NA
ATOM      8  C   UNL     1       2.086   8.838  17.707  0.00  0.00    +0.000 A 
ATOM      9  C   UNL     1       2.368   7.652  18.420  0.00  0.00    +0.000 A 
ATOM     10  N   UNL     1       1.938   7.816  19.681  0.00  0.00    +0.000 NA
ATOM     11  C   UNL     1      -0.055  10.785  20.626  0.00  0.00    +0.000 A 
ENDROOT
BRANCH   9  12
ATOM     12  C   UNL     1       2.993   6.418  17.941  0.00  0.00    +0.000 A 
ATOM     13  C   UNL     1       2.343   5.180  18.075  0.00  0.00    +0.000 A 
ATOM     14  C   UNL     1       2.953   3.998  17.645  0.00  0.00    +0.000 A 
ATOM     15  C   UNL     1       4.221   4.035  17.075  0.00  0.00    +0.000 A 
ATOM     16  C   UNL     1       4.882   5.253  16.932  0.00  0.00    +0.000 A 
ATOM     17  C   UNL     1       4.273   6.437  17.361  0.00  0.00    +0.000 A 
ENDBRANCH   9  12
BRANCH   1  19
ATOM     18  C   UNL     1      -1.045  13.527  20.513  0.00  0.00    +0.000 C 
ATOM     19  C   UNL     1      -1.666  12.541  21.511  0.00  0.00    +0.000 C 
BRANCH  19  20
ATOM     20  S   UNL     1      -1.956  13.278  23.174  0.00  0.00    +0.000 S 
BRANCH  20  21
ATOM     21  C   UNL     1      -3.666  13.231  23.379  0.00  0.00    +0.000 A 
ATOM     22  N   UNL     1      -4.487  12.244  23.109  0.00  0.00    +0.000 NA
ATOM     23  N   UNL     1      -5.773  12.693  23.317  0.00  0.00    +0.000 NA
ATOM     24  C   UNL     1      -5.695  13.934  23.737  0.00  0.00    +0.000 A 
ATOM     25  N   UNL     1      -4.386  14.303  23.828  0.00  0.00    +0.000 N 
ATOM     26  C   UNL     1      -3.900  15.564  24.322  0.00  0.00    +0.000 C 
ENDBRANCH  20  21
ENDBRANCH  19  20
ENDBRANCH   1  19
TORSDOF 4
ENDMDL
MODEL 7
REMARK VINA RESULT:      -7.7      2.984      9.842
REMARK  Name = 
REMARK  6 active torsions:
REMARK  status: ('A' for Active; 'I' for Inactive)
REMARK    1  A    between atoms: C_1  and  C_2
REMARK    2  A    between atoms: C_2  and  S_3
REMARK    3  A    between atoms: C_2  and  C_10
REMARK    4  A    between atoms: S_3  and  C_4
REMARK    5  A    between atoms: N_8  and  C_9
REMARK    6  A    between atoms: C_18  and  C_19
REMARK                            x       y       z     vdW  Elec       q    Type
REMARK                         _______ _______ _______ _____ _____    ______ ____
ROOT
ATOM      1  C   UNL     1       2.294   7.536  19.411  0.00  0.00    +0.000 A 
ATOM      2  C   UNL     1       2.215   8.102  18.131  0.00  0.00    +0.000 A 
ATOM      3  C   UNL     1       1.486   9.266  17.949  0.00  0.00    +0.000 A 
ATOM      4  N   UNL     1       0.818   9.895  18.934  0.00  0.00    +0.000 NA
ATOM      5  C   UNL     1       0.888   9.351  20.180  0.00  0.00    +0.000 A 
ATOM      6  N   UNL     1       0.156   9.969  21.249  0.00  0.00    +0.000 N 
ATOM      7  N   UNL     1       0.262   9.537  22.541  0.00  0.00    +0.000 NA
ATOM      8  C   UNL     1      -0.614  10.325  23.165  0.00  0.00    +0.000 A 
ATOM      9  C   UNL     1      -1.250  11.201  22.257  0.00  0.00    +0.000 A 
ATOM     10  N   UNL     1      -0.717  10.996  21.043  0.00  0.00    +0.000 NA
ATOM     11  C   UNL     1       1.620   8.190  20.453  0.00  0.00    +0.000 A 
ENDROOT
BRANCH   9  12
ATOM     12  C   UNL     1      -2.319  12.169  22.510  0.00  0.00    +0.000 A 
ATOM     13  C   UNL     1      -2.573  13.215  21.608  0.00  0.00    +0.000 A 
ATOM     14  C   UNL     1      -3.574  14.157  21.864  0.00  0.00    +0.000 A 
ATOM     15  C   UNL     1      -4.335  14.067  23.025  0.00  0.00    +0.000 A 
ATOM     16  C   UNL     1      -4.098  13.036  23.931  0.00  0.00    +0.000 A 
ATOM     17  C   UNL     1      -3.099  12.093  23.676  0.00  0.00    +0.000 A 
ENDBRANCH   9  12
BRANCH   1  19
ATOM     18  C   UNL     1       3.978   5.858  18.537  0.00  0.00    +0.000 C 
ATOM     19  C   UNL     1       3.007   6.208  19.670  0.00  0.00    +0.000 C 
BRANCH  19  20
ATOM     20  S   UNL     1       1.708   4.930  19.935  0.00  0.00    +0.000 S 
BRANCH  20  21
ATOM     21  C   UNL     1       2.143   3.639  18.880  0.00  0.00    +0.000 A 
ATOM     22  N   UNL     1       1.687   3.390  17.676  0.00  0.00    +0.000 NA
ATOM     23  N   UNL     1       2.226   2.194  17.257  0.00  0.00    +0.000 NA
ATOM     24  C   UNL     1       3.020   1.763  18.210  0.00  0.00    +0.000 A 
ATOM     25  N   UNL     1       3.029   2.660  19.235  0.00  0.00    +0.000 N 
ATOM     26  C   UNL     1       3.835   2.572  20.423  0.00  0.00    +0.000 C 
ENDBRANCH  20  21
ENDBRANCH  19  20
ENDBRANCH   1  19
TORSDOF 4
ENDMDL
MODEL 8
REMARK VINA RESULT:      -7.6      1.852      3.065
REMARK  Name = 
REMARK  6 active torsions:
REMARK  status: ('A' for Active; 'I' for Inactive)
REMARK    1  A    between atoms: C_1  and  C_2
REMARK    2  A    between atoms: C_2  and  S_3
REMARK    3  A    between atoms: C_2  and  C_10
REMARK    4  A    between atoms: S_3  and  C_4
REMARK    5  A    between atoms: N_8  and  C_9
REMARK    6  A    between atoms: C_18  and  C_19
REMARK                            x       y       z     vdW  Elec       q    Type
REMARK                         _______ _______ _______ _____ _____    ______ ____
ROOT
ATOM      1  C   UNL     1       0.059  10.836  20.921  0.00  0.00    +0.000 A 
ATOM      2  C   UNL     1      -0.054  11.713  19.833  0.00  0.00    +0.000 A 
ATOM      3  C   UNL     1       0.444  11.328  18.598  0.00  0.00    +0.000 A 
ATOM      4  N   UNL     1       1.058  10.153  18.370  0.00  0.00    +0.000 NA
ATOM      5  C   UNL     1       1.173   9.295  19.422  0.00  0.00    +0.000 A 
ATOM      6  N   UNL     1       1.857   8.048  19.229  0.00  0.00    +0.000 N 
ATOM      7  N   UNL     1       1.921   7.099  20.210  0.00  0.00    +0.000 NA
ATOM      8  C   UNL     1       2.685   6.168  19.640  0.00  0.00    +0.000 A 
ATOM      9  C   UNL     1       3.091   6.562  18.345  0.00  0.00    +0.000 A 
ATOM     10  N   UNL     1       2.517   7.745  18.075  0.00  0.00    +0.000 NA
ATOM     11  C   UNL     1       0.678   9.598  20.696  0.00  0.00    +0.000 A 
ENDROOT
BRANCH   9  12
ATOM     12  C   UNL     1       3.986   5.874  17.414  0.00  0.00    +0.000 A 
ATOM     13  C   UNL     1       4.047   4.472  17.374  0.00  0.00    +0.000 A 
ATOM     14  C   UNL     1       4.925   3.816  16.505  0.00  0.00    +0.000 A 
ATOM     15  C   UNL     1       5.753   4.551  15.663  0.00  0.00    +0.000 A 
ATOM     16  C   UNL     1       5.705   5.943  15.688  0.00  0.00    +0.000 A 
ATOM     17  C   UNL     1       4.828   6.601  16.555  0.00  0.00    +0.000 A 
ENDBRANCH   9  12
BRANCH   1  19
ATOM     18  C   UNL     1      -0.660   9.993  23.198  0.00  0.00    +0.000 C 
ATOM     19  C   UNL     1      -0.387  11.227  22.330  0.00  0.00    +0.000 C 
BRANCH  19  20
ATOM     20  S   UNL     1      -1.851  12.332  22.158  0.00  0.00    +0.000 S 
BRANCH  20  21
ATOM     21  C   UNL     1      -1.501  13.681  23.171  0.00  0.00    +0.000 A 
ATOM     22  N   UNL     1      -0.416  14.417  23.192  0.00  0.00    +0.000 NA
ATOM     23  N   UNL     1      -0.526  15.304  24.240  0.00  0.00    +0.000 NA
ATOM     24  C   UNL     1      -1.690  15.100  24.810  0.00  0.00    +0.000 A 
ATOM     25  N   UNL     1      -2.355  14.114  24.147  0.00  0.00    +0.000 N 
ATOM     26  C   UNL     1      -3.691  13.661  24.431  0.00  0.00    +0.000 C 
ENDBRANCH  20  21
ENDBRANCH  19  20
ENDBRANCH   1  19
TORSDOF 4
ENDMDL
MODEL 9
REMARK VINA RESULT:      -7.6      4.497     10.108
REMARK  Name = 
REMARK  6 active torsions:
REMARK  status: ('A' for Active; 'I' for Inactive)
REMARK    1  A    between atoms: C_1  and  C_2
REMARK    2  A    between atoms: C_2  and  S_3
REMARK    3  A    between atoms: C_2  and  C_10
REMARK    4  A    between atoms: S_3  and  C_4
REMARK    5  A    between atoms: N_8  and  C_9
REMARK    6  A    between atoms: C_18  and  C_19
REMARK                            x       y       z     vdW  Elec       q    Type
REMARK                         _______ _______ _______ _____ _____    ______ ____
ROOT
ATOM      1  C   UNL     1       4.237   4.798  17.077  0.00  0.00    +0.000 A 
ATOM      2  C   UNL     1       4.089   3.762  18.009  0.00  0.00    +0.000 A 
ATOM      3  C   UNL     1       3.292   3.962  19.125  0.00  0.00    +0.000 A 
ATOM      4  N   UNL     1       2.650   5.115  19.391  0.00  0.00    +0.000 NA
ATOM      5  C   UNL     1       2.789   6.128  18.492  0.00  0.00    +0.000 A 
ATOM      6  N   UNL     1       2.153   7.386  18.760  0.00  0.00    +0.000 N 
ATOM      7  N   UNL     1       2.167   8.410  17.856  0.00  0.00    +0.000 NA
ATOM      8  C   UNL     1       1.539   9.375  18.527  0.00  0.00    +0.000 A 
ATOM      9  C   UNL     1       1.174   8.944  19.822  0.00  0.00    +0.000 A 
ATOM     10  N   UNL     1       1.530   7.655  19.943  0.00  0.00    +0.000 NA
ATOM     11  C   UNL     1       3.558   6.001  17.329  0.00  0.00    +0.000 A 
ENDROOT
BRANCH   9  12
ATOM     12  C   UNL     1       0.540   9.704  20.900  0.00  0.00    +0.000 A 
ATOM     13  C   UNL     1       0.254   9.103  22.136  0.00  0.00    +0.000 A 
ATOM     14  C   UNL     1      -0.379   9.821  23.154  0.00  0.00    +0.000 A 
ATOM     15  C   UNL     1      -0.736  11.151  22.953  0.00  0.00    +0.000 A 
ATOM     16  C   UNL     1      -0.460  11.765  21.733  0.00  0.00    +0.000 A 
ATOM     17  C   UNL     1       0.174  11.048  20.714  0.00  0.00    +0.000 A 
ENDBRANCH   9  12
BRANCH   1  19
ATOM     18  C   UNL     1       5.847   3.307  15.812  0.00  0.00    +0.000 C 
ATOM     19  C   UNL     1       5.168   4.681  15.870  0.00  0.00    +0.000 C 
BRANCH  19  20
ATOM     20  S   UNL     1       6.364   6.079  15.959  0.00  0.00    +0.000 S 
BRANCH  20  21
ATOM     21  C   UNL     1       7.209   5.837  17.441  0.00  0.00    +0.000 A 
ATOM     22  N   UNL     1       7.402   4.713  18.088  0.00  0.00    +0.000 NA
ATOM     23  N   UNL     1       8.024   5.011  19.281  0.00  0.00    +0.000 NA
ATOM     24  C   UNL     1       8.218   6.309  19.311  0.00  0.00    +0.000 A 
ATOM     25  N   UNL     1       7.756   6.866  18.157  0.00  0.00    +0.000 N 
ATOM     26  C   UNL     1       7.859   8.253  17.792  0.00  0.00    +0.000 C 
ENDBRANCH  20  21
ENDBRANCH  19  20
ENDBRANCH   1  19
TORSDOF 4
ENDMDL
