MODEL 1
REMARK VINA RESULT:      -8.8      0.000      0.000
REMARK  Name = 
REMARK  8 active torsions:
REMARK  status: ('A' for Active; 'I' for Inactive)
REMARK    1  A    between atoms: C_1  and  C_2
REMARK    2  A    between atoms: C_6  and  C_7
REMARK    3  A    between atoms: C_7  and  C_8
REMARK    4  A    between atoms: C_8  and  C_9
REMARK    5  A    between atoms: C_8  and  C_10
REMARK    6  A    between atoms: C_14  and  N_15
REMARK    7  A    between atoms: C_16  and  C_18
REMARK    8  A    between atoms: C_22  and  C_23
REMARK                            x       y       z     vdW  Elec       q    Type
REMARK                         _______ _______ _______ _____ _____    ______ ____
ROOT
ATOM      1  C   UNL     1       4.554   4.714  17.296  0.00  0.00    +0.000 A 
ATOM      2  C   UNL     1       3.739   3.634  16.935  0.00  0.00    +0.000 A 
ATOM      3  C   UNL     1       2.423   3.567  17.386  0.00  0.00    +0.000 A 
ATOM      4  C   UNL     1       1.912   4.572  18.204  0.00  0.00    +0.000 A 
ATOM      5  C   UNL     1       2.707   5.647  18.607  0.00  0.00    +0.000 A 
ATOM      6  C   UNL     1       4.030   5.708  18.147  0.00  0.00    +0.000 A 
ENDROOT
BRANCH   5   7
ATOM      7  N   UNL     1       2.225   6.689  19.425  0.00  0.00    +0.000 N 
ATOM      8  C   UNL     1       1.875   7.964  19.009  0.00  0.00    +0.000 C 
ATOM      9  O   UNL     1       1.884   8.389  17.855  0.00  0.00    +0.000 OA
ATOM     10  H   UNL     1       2.081   6.490  20.412  0.00  0.00    +0.000 HD
BRANCH   8  11
ATOM     11  C   UNL     1       1.406   8.884  20.089  0.00  0.00    +0.000 A 
ATOM     12  C   UNL     1       1.328   8.409  21.382  0.00  0.00    +0.000 A 
ATOM     13  C   UNL     1       0.937   9.324  22.322  0.00  0.00    +0.000 A 
ATOM     14  N   UNL     1       0.645  10.602  22.024  0.00  0.00    +0.000 NA
ATOM     15  C   UNL     1       0.747  10.992  20.727  0.00  0.00    +0.000 A 
ATOM     16  N   UNL     1       1.118  10.156  19.725  0.00  0.00    +0.000 NA
BRANCH  15  17
ATOM     17  C   UNL     1       0.467  12.457  20.371  0.00  0.00    +0.000 C 
ATOM     18  F   UNL     1       1.082  12.883  19.227  0.00  0.00    +0.000 F 
ATOM     19  F   UNL     1      -0.864  12.705  20.181  0.00  0.00    +0.000 F 
ATOM     20  F   UNL     1       0.867  13.327  21.346  0.00  0.00    +0.000 F 
ENDBRANCH  15  17
ENDBRANCH   8  11
ENDBRANCH   5   7
BRANCH   1  21
ATOM     21  C   UNL     1       5.949   4.886  16.709  0.00  0.00    +0.000 C 
ATOM     22  C   UNL     1       7.048   4.700  17.765  0.00  0.00    +0.000 C 
BRANCH  21  23
ATOM     23  C   UNL     1       6.190   3.917  15.531  0.00  0.00    +0.000 C 
BRANCH  23  29
ATOM     24  C   UNL     1       5.783   3.269  12.362  0.00  0.00    +0.000 C 
ATOM     25  C   UNL     1       6.716   4.235  12.980  0.00  0.00    +0.000 A 
ATOM     26  C   UNL     1       7.629   5.052  12.359  0.00  0.00    +0.000 A 
ATOM     27  O   UNL     1       8.284   5.796  13.282  0.00  0.00    +0.000 OA
ATOM     28  N   UNL     1       7.827   5.470  14.546  0.00  0.00    +0.000 NA
ATOM     29  C   UNL     1       6.888   4.533  14.360  0.00  0.00    +0.000 A 
ENDBRANCH  23  29
ENDBRANCH  21  23
ENDBRANCH   1  21
TORSDOF 6
ENDMDL
MODEL 2
REMARK VINA RESULT:      -8.7      0.951      1.249
REMARK  Name = 
REMARK  8 active torsions:
REMARK  status: ('A' for Active; 'I' for Inactive)
REMARK    1  A    between atoms: C_1  and  C_2
REMARK    2  A    between atoms: C_6  and  C_7
REMARK    3  A    between atoms: C_7  and  C_8
REMARK    4  A    between atoms: C_8  and  C_9
REMARK    5  A    between atoms: C_8  and  C_10
REMARK    6  A    between atoms: C_14  and  N_15
REMARK    7  A    between atoms: C_16  and  C_18
REMARK    8  A    between atoms: C_22  and  C_23
REMARK                            x       y       z     vdW  Elec       q    Type
REMARK                         _______ _______ _______ _____ _____    ______ ____
ROOT
ATOM      1  C   UNL     1       4.534   4.857  17.471  0.00  0.00    +0.000 A 
ATOM      2  C   UNL     1       3.759   3.692  17.406  0.00  0.00    +0.000 A 
ATOM      3  C   UNL     1       2.447   3.696  17.871  0.00  0.00    +0.000 A 
ATOM      4  C   UNL     1       1.899   4.857  18.411  0.00  0.00    +0.000 A 
ATOM      5  C   UNL     1       2.653   6.027  18.517  0.00  0.00    +0.000 A 
ATOM      6  C   UNL     1       3.973   6.016  18.045  0.00  0.00    +0.000 A 
ENDROOT
BRANCH   5   7
ATOM      7  N   UNL     1       2.133   7.226  19.047  0.00  0.00    +0.000 N 
ATOM      8  C   UNL     1       2.016   8.435  18.379  0.00  0.00    +0.000 C 
ATOM      9  O   UNL     1       2.304   8.656  17.205  0.00  0.00    +0.000 OA
ATOM     10  H   UNL     1       1.772   7.208  19.997  0.00  0.00    +0.000 HD
BRANCH   8  11
ATOM     11  C   UNL     1       1.442   9.557  19.182  0.00  0.00    +0.000 A 
ATOM     12  C   UNL     1       0.981   9.297  20.457  0.00  0.00    +0.000 A 
ATOM     13  C   UNL     1       0.516  10.383  21.146  0.00  0.00    +0.000 A 
ATOM     14  N   UNL     1       0.500  11.626  20.634  0.00  0.00    +0.000 NA
ATOM     15  C   UNL     1       0.971  11.799  19.371  0.00  0.00    +0.000 A 
ATOM     16  N   UNL     1       1.445  10.783  18.607  0.00  0.00    +0.000 NA
BRANCH  15  17
ATOM     17  C   UNL     1       1.010  13.215  18.784  0.00  0.00    +0.000 C 
ATOM     18  F   UNL     1      -0.189  13.648  18.288  0.00  0.00    +0.000 F 
ATOM     19  F   UNL     1       1.381  14.154  19.705  0.00  0.00    +0.000 F 
ATOM     20  F   UNL     1       1.897  13.340  17.753  0.00  0.00    +0.000 F 
ENDBRANCH  15  17
ENDBRANCH   8  11
ENDBRANCH   5   7
BRANCH   1  21
ATOM     21  C   UNL     1       5.922   4.923  16.846  0.00  0.00    +0.000 C 
ATOM     22  C   UNL     1       7.028   4.598  17.860  0.00  0.00    +0.000 C 
BRANCH  21  23
ATOM     23  C   UNL     1       6.038   3.982  15.628  0.00  0.00    +0.000 C 
BRANCH  23  29
ATOM     24  C   UNL     1       5.757   3.263  12.461  0.00  0.00    +0.000 C 
ATOM     25  C   UNL     1       6.677   4.230  13.095  0.00  0.00    +0.000 A 
ATOM     26  C   UNL     1       7.629   5.018  12.495  0.00  0.00    +0.000 A 
ATOM     27  O   UNL     1       8.255   5.775  13.427  0.00  0.00    +0.000 OA
ATOM     28  N   UNL     1       7.739   5.487  14.678  0.00  0.00    +0.000 NA
ATOM     29  C   UNL     1       6.795   4.559  14.474  0.00  0.00    +0.000 A 
ENDBRANCH  23  29
ENDBRANCH  21  23
ENDBRANCH   1  21
TORSDOF 6
ENDMDL
MODEL 3
REMARK VINA RESULT:      -8.4      1.087      1.245
REMARK  Name = 
REMARK  8 active torsions:
REMARK  status: ('A' for Active; 'I' for Inactive)
REMARK    1  A    between atoms: C_1  and  C_2
REMARK    2  A    between atoms: C_6  and  C_7
REMARK    3  A    between atoms: C_7  and  C_8
REMARK    4  A    between atoms: C_8  and  C_9
REMARK    5  A    between atoms: C_8  and  C_10
REMARK    6  A    between atoms: C_14  and  N_15
REMARK    7  A    between atoms: C_16  and  C_18
REMARK    8  A    between atoms: C_22  and  C_23
REMARK                            x       y       z     vdW  Elec       q    Type
REMARK                         _______ _______ _______ _____ _____    ______ ____
ROOT
ATOM      1  C   UNL     1       4.700   5.315  17.026  0.00  0.00    +0.000 A 
ATOM      2  C   UNL     1       4.110   4.049  16.917  0.00  0.00    +0.000 A 
ATOM      3  C   UNL     1       2.834   3.824  17.425  0.00  0.00    +0.000 A 
ATOM      4  C   UNL     1       2.137   4.855  18.051  0.00  0.00    +0.000 A 
ATOM      5  C   UNL     1       2.708   6.120  18.203  0.00  0.00    +0.000 A 
ATOM      6  C   UNL     1       3.993   6.340  17.687  0.00  0.00    +0.000 A 
ENDROOT
BRANCH   5   7
ATOM      7  N   UNL     1       2.033   7.194  18.820  0.00  0.00    +0.000 N 
ATOM      8  C   UNL     1       1.890   8.475  18.310  0.00  0.00    +0.000 C 
ATOM      9  O   UNL     1       2.287   8.880  17.220  0.00  0.00    +0.000 OA
ATOM     10  H   UNL     1       1.571   7.017  19.708  0.00  0.00    +0.000 HD
BRANCH   8  11
ATOM     11  C   UNL     1       1.138   9.430  19.179  0.00  0.00    +0.000 A 
ATOM     12  C   UNL     1       1.097   9.202  20.540  0.00  0.00    +0.000 A 
ATOM     13  C   UNL     1       0.431  10.146  21.274  0.00  0.00    +0.000 A 
ATOM     14  N   UNL     1      -0.150  11.227  20.725  0.00  0.00    +0.000 NA
ATOM     15  C   UNL     1      -0.065  11.378  19.378  0.00  0.00    +0.000 A 
ATOM     16  N   UNL     1       0.566  10.493  18.566  0.00  0.00    +0.000 NA
BRANCH  15  17
ATOM     17  C   UNL     1      -0.678  12.629  18.734  0.00  0.00    +0.000 C 
ATOM     18  F   UNL     1       0.230  13.607  18.438  0.00  0.00    +0.000 F 
ATOM     19  F   UNL     1      -1.312  12.354  17.555  0.00  0.00    +0.000 F 
ATOM     20  F   UNL     1      -1.616  13.229  19.526  0.00  0.00    +0.000 F 
ENDBRANCH  15  17
ENDBRANCH   8  11
ENDBRANCH   5   7
BRANCH   1  21
ATOM     21  C   UNL     1       6.033   5.629  16.361  0.00  0.00    +0.000 C 
ATOM     22  C   UNL     1       7.084   6.112  17.370  0.00  0.00    +0.000 C 
BRANCH  21  23
ATOM     23  C   UNL     1       6.579   4.410  15.585  0.00  0.00    +0.000 C 
BRANCH  23  29
ATOM     24  C   UNL     1       5.421   3.292  12.749  0.00  0.00    +0.000 C 
ATOM     25  C   UNL     1       6.551   4.220  12.968  0.00  0.00    +0.000 A 
ATOM     26  C   UNL     1       7.374   4.794  12.030  0.00  0.00    +0.000 A 
ATOM     27  O   UNL     1       8.282   5.593  12.639  0.00  0.00    +0.000 OA
ATOM     28  N   UNL     1       8.089   5.549  14.008  0.00  0.00    +0.000 NA
ATOM     29  C   UNL     1       7.051   4.723  14.201  0.00  0.00    +0.000 A 
ENDBRANCH  23  29
ENDBRANCH  21  23
ENDBRANCH   1  21
TORSDOF 6
ENDMDL
MODEL 4
REMARK VINA RESULT:      -8.4      1.266      1.548
REMARK  Name = 
REMARK  8 active torsions:
REMARK  status: ('A' for Active; 'I' for Inactive)
REMARK    1  A    between atoms: C_1  and  C_2
REMARK    2  A    between atoms: C_6  and  C_7
REMARK    3  A    between atoms: C_7  and  C_8
REMARK    4  A    between atoms: C_8  and  C_9
REMARK    5  A    between atoms: C_8  and  C_10
REMARK    6  A    between atoms: C_14  and  N_15
REMARK    7  A    between atoms: C_16  and  C_18
REMARK    8  A    between atoms: C_22  and  C_23
REMARK                            x       y       z     vdW  Elec       q    Type
REMARK                         _______ _______ _______ _____ _____    ______ ____
ROOT
ATOM      1  C   UNL     1       4.637   5.071  17.104  0.00  0.00    +0.000 A 
ATOM      2  C   UNL     1       3.874   3.896  17.085  0.00  0.00    +0.000 A 
ATOM      3  C   UNL     1       2.551   3.913  17.520  0.00  0.00    +0.000 A 
ATOM      4  C   UNL     1       1.981   5.096  17.984  0.00  0.00    +0.000 A 
ATOM      5  C   UNL     1       2.723   6.277  18.045  0.00  0.00    +0.000 A 
ATOM      6  C   UNL     1       4.053   6.254  17.603  0.00  0.00    +0.000 A 
ENDROOT
BRANCH   5   7
ATOM      7  N   UNL     1       2.181   7.498  18.497  0.00  0.00    +0.000 N 
ATOM      8  C   UNL     1       1.710   7.764  19.774  0.00  0.00    +0.000 C 
ATOM      9  O   UNL     1       1.724   7.000  20.735  0.00  0.00    +0.000 OA
ATOM     10  H   UNL     1       2.161   8.279  17.846  0.00  0.00    +0.000 HD
BRANCH   8  11
ATOM     11  C   UNL     1       1.172   9.142  19.982  0.00  0.00    +0.000 A 
ATOM     12  C   UNL     1       0.232   9.348  20.971  0.00  0.00    +0.000 A 
ATOM     13  C   UNL     1      -0.175  10.645  21.134  0.00  0.00    +0.000 A 
ATOM     14  N   UNL     1       0.296  11.661  20.390  0.00  0.00    +0.000 NA
ATOM     15  C   UNL     1       1.219  11.375  19.436  0.00  0.00    +0.000 A 
ATOM     16  N   UNL     1       1.679  10.121  19.195  0.00  0.00    +0.000 NA
BRANCH  15  17
ATOM     17  C   UNL     1       1.808  12.524  18.609  0.00  0.00    +0.000 C 
ATOM     18  F   UNL     1       0.871  13.351  18.053  0.00  0.00    +0.000 F 
ATOM     19  F   UNL     1       2.617  13.340  19.348  0.00  0.00    +0.000 F 
ATOM     20  F   UNL     1       2.576  12.090  17.566  0.00  0.00    +0.000 F 
ENDBRANCH  15  17
ENDBRANCH   8  11
ENDBRANCH   5   7
BRANCH   1  21
ATOM     21  C   UNL     1       6.037   5.117  16.508  0.00  0.00    +0.000 C 
ATOM     22  C   UNL     1       7.127   4.939  17.575  0.00  0.00    +0.000 C 
BRANCH  21  23
ATOM     23  C   UNL     1       6.215   4.055  15.401  0.00  0.00    +0.000 C 
BRANCH  23  29
ATOM     24  C   UNL     1       5.615   3.185  12.317  0.00  0.00    +0.000 C 
ATOM     25  C   UNL     1       6.595   4.176  12.807  0.00  0.00    +0.000 A 
ATOM     26  C   UNL     1       7.483   4.928  12.077  0.00  0.00    +0.000 A 
ATOM     27  O   UNL     1       8.201   5.725  12.903  0.00  0.00    +0.000 OA
ATOM     28  N   UNL     1       7.814   5.502  14.212  0.00  0.00    +0.000 NA
ATOM     29  C   UNL     1       6.852   4.571  14.150  0.00  0.00    +0.000 A 
ENDBRANCH  23  29
ENDBRANCH  21  23
ENDBRANCH   1  21
TORSDOF 6
ENDMDL
MODEL 5
REMARK VINA RESULT:      -8.4      2.367      3.395
REMARK  Name = 
REMARK  8 active torsions:
REMARK  status: ('A' for Active; 'I' for Inactive)
REMARK    1  A    between atoms: C_1  and  C_2
REMARK    2  A    between atoms: C_6  and  C_7
REMARK    3  A    between atoms: C_7  and  C_8
REMARK    4  A    between atoms: C_8  and  C_9
REMARK    5  A    between atoms: C_8  and  C_10
REMARK    6  A    between atoms: C_14  and  N_15
REMARK    7  A    between atoms: C_16  and  C_18
REMARK    8  A    between atoms: C_22  and  C_23
REMARK                            x       y       z     vdW  Elec       q    Type
REMARK                         _______ _______ _______ _____ _____    ______ ____
ROOT
ATOM      1  C   UNL     1       4.570   4.260  18.038  0.00  0.00    +0.000 A 
ATOM      2  C   UNL     1       4.406   3.120  18.835  0.00  0.00    +0.000 A 
ATOM      3  C   UNL     1       3.597   3.168  19.968  0.00  0.00    +0.000 A 
ATOM      4  C   UNL     1       2.953   4.352  20.319  0.00  0.00    +0.000 A 
ATOM      5  C   UNL     1       3.120   5.514  19.563  0.00  0.00    +0.000 A 
ATOM      6  C   UNL     1       3.933   5.458  18.423  0.00  0.00    +0.000 A 
ENDROOT
BRANCH   5   7
ATOM      7  N   UNL     1       2.478   6.729  19.878  0.00  0.00    +0.000 N 
ATOM      8  C   UNL     1       2.151   7.740  18.987  0.00  0.00    +0.000 C 
ATOM      9  O   UNL     1       2.325   7.730  17.770  0.00  0.00    +0.000 OA
ATOM     10  H   UNL     1       2.188   6.878  20.841  0.00  0.00    +0.000 HD
BRANCH   8  11
ATOM     11  C   UNL     1       1.485   8.934  19.589  0.00  0.00    +0.000 A 
ATOM     12  C   UNL     1       1.317  10.064  18.817  0.00  0.00    +0.000 A 
ATOM     13  C   UNL     1       0.655  11.098  19.423  0.00  0.00    +0.000 A 
ATOM     14  N   UNL     1       0.193  11.034  20.684  0.00  0.00    +0.000 NA
ATOM     15  C   UNL     1       0.399   9.884  21.379  0.00  0.00    +0.000 A 
ATOM     16  N   UNL     1       1.050   8.810  20.866  0.00  0.00    +0.000 NA
BRANCH  15  17
ATOM     17  C   UNL     1      -0.162   9.770  22.801  0.00  0.00    +0.000 C 
ATOM     18  F   UNL     1      -1.107   8.794  22.954  0.00  0.00    +0.000 F 
ATOM     19  F   UNL     1       0.805   9.484  23.724  0.00  0.00    +0.000 F 
ATOM     20  F   UNL     1      -0.755  10.922  23.234  0.00  0.00    +0.000 F 
ENDBRANCH  15  17
ENDBRANCH   8  11
ENDBRANCH   5   7
BRANCH   1  21
ATOM     21  C   UNL     1       5.334   4.204  16.721  0.00  0.00    +0.000 C 
ATOM     22  C   UNL     1       4.876   5.292  15.740  0.00  0.00    +0.000 C 
BRANCH  21  23
ATOM     23  C   UNL     1       6.857   4.313  16.946  0.00  0.00    +0.000 C 
BRANCH  23  29
ATOM     24  C   UNL     1       7.632   5.546  19.863  0.00  0.00    +0.000 C 
ATOM     25  C   UNL     1       7.657   6.228  18.552  0.00  0.00    +0.000 A 
ATOM     26  C   UNL     1       7.986   7.533  18.278  0.00  0.00    +0.000 A 
ATOM     27  O   UNL     1       7.892   7.763  16.947  0.00  0.00    +0.000 OA
ATOM     28  N   UNL     1       7.476   6.609  16.308  0.00  0.00    +0.000 NA
ATOM     29  C   UNL     1       7.334   5.692  17.275  0.00  0.00    +0.000 A 
ENDBRANCH  23  29
ENDBRANCH  21  23
ENDBRANCH   1  21
TORSDOF 6
ENDMDL
MODEL 6
REMARK VINA RESULT:      -8.3      1.148      1.209
REMARK  Name = 
REMARK  8 active torsions:
REMARK  status: ('A' for Active; 'I' for Inactive)
REMARK    1  A    between atoms: C_1  and  C_2
REMARK    2  A    between atoms: C_6  and  C_7
REMARK    3  A    between atoms: C_7  and  C_8
REMARK    4  A    between atoms: C_8  and  C_9
REMARK    5  A    between atoms: C_8  and  C_10
REMARK    6  A    between atoms: C_14  and  N_15
REMARK    7  A    between atoms: C_16  and  C_18
REMARK    8  A    between atoms: C_22  and  C_23
REMARK                            x       y       z     vdW  Elec       q    Type
REMARK                         _______ _______ _______ _____ _____    ______ ____
ROOT
ATOM      1  C   UNL     1       4.725   5.495  17.072  0.00  0.00    +0.000 A 
ATOM      2  C   UNL     1       4.057   4.266  16.998  0.00  0.00    +0.000 A 
ATOM      3  C   UNL     1       2.776   4.132  17.526  0.00  0.00    +0.000 A 
ATOM      4  C   UNL     1       2.152   5.217  18.138  0.00  0.00    +0.000 A 
ATOM      5  C   UNL     1       2.802   6.447  18.254  0.00  0.00    +0.000 A 
ATOM      6  C   UNL     1       4.091   6.576  17.718  0.00  0.00    +0.000 A 
ENDROOT
BRANCH   5   7
ATOM      7  N   UNL     1       2.203   7.574  18.856  0.00  0.00    +0.000 N 
ATOM      8  C   UNL     1       1.655   7.631  20.128  0.00  0.00    +0.000 C 
ATOM      9  O   UNL     1       1.636   6.727  20.960  0.00  0.00    +0.000 OA
ATOM     10  H   UNL     1       2.198   8.446  18.331  0.00  0.00    +0.000 HD
BRANCH   8  11
ATOM     11  C   UNL     1       1.069   8.950  20.513  0.00  0.00    +0.000 A 
ATOM     12  C   UNL     1       0.537   9.100  21.777  0.00  0.00    +0.000 A 
ATOM     13  C   UNL     1       0.064  10.350  22.072  0.00  0.00    +0.000 A 
ATOM     14  N   UNL     1       0.107  11.374  21.202  0.00  0.00    +0.000 NA
ATOM     15  C   UNL     1       0.647  11.145  19.977  0.00  0.00    +0.000 A 
ATOM     16  N   UNL     1       1.134   9.939  19.590  0.00  0.00    +0.000 NA
BRANCH  15  17
ATOM     17  C   UNL     1       0.752  12.311  18.986  0.00  0.00    +0.000 C 
ATOM     18  F   UNL     1       1.847  12.256  18.170  0.00  0.00    +0.000 F 
ATOM     19  F   UNL     1      -0.323  12.381  18.145  0.00  0.00    +0.000 F 
ATOM     20  F   UNL     1       0.817  13.529  19.602  0.00  0.00    +0.000 F 
ENDBRANCH  15  17
ENDBRANCH   8  11
ENDBRANCH   5   7
BRANCH   1  21
ATOM     21  C   UNL     1       6.066   5.712  16.384  0.00  0.00    +0.000 C 
ATOM     22  C   UNL     1       7.170   6.099  17.378  0.00  0.00    +0.000 C 
BRANCH  21  23
ATOM     23  C   UNL     1       6.499   4.464  15.584  0.00  0.00    +0.000 C 
BRANCH  23  29
ATOM     24  C   UNL     1       5.407   3.302  12.741  0.00  0.00    +0.000 C 
ATOM     25  C   UNL     1       6.528   4.236  12.971  0.00  0.00    +0.000 A 
ATOM     26  C   UNL     1       7.369   4.800  12.042  0.00  0.00    +0.000 A 
ATOM     27  O   UNL     1       8.261   5.610  12.660  0.00  0.00    +0.000 OA
ATOM     28  N   UNL     1       8.040   5.585  14.025  0.00  0.00    +0.000 NA
ATOM     29  C   UNL     1       7.001   4.759  14.207  0.00  0.00    +0.000 A 
ENDBRANCH  23  29
ENDBRANCH  21  23
ENDBRANCH   1  21
TORSDOF 6
ENDMDL
MODEL 7
REMARK VINA RESULT:      -8.2      7.009     10.776
REMARK  Name = 
REMARK  8 active torsions:
REMARK  status: ('A' for Active; 'I' for Inactive)
REMARK    1  A    between atoms: C_1  and  C_2
REMARK    2  A    between atoms: C_6  and  C_7
REMARK    3  A    between atoms: C_7  and  C_8
REMARK    4  A    between atoms: C_8  and  C_9
REMARK    5  A    between atoms: C_8  and  C_10
REMARK    6  A    between atoms: C_14  and  N_15
REMARK    7  A    between atoms: C_16  and  C_18
REMARK    8  A    between atoms: C_22  and  C_23
REMARK                            x       y       z     vdW  Elec       q    Type
REMARK                         _______ _______ _______ _____ _____    ______ ____
ROOT
ATOM      1  C   UNL     1       9.478  12.097  20.966  0.00  0.00    +0.000 A 
ATOM      2  C   UNL     1      10.079  12.948  20.030  0.00  0.00    +0.000 A 
ATOM      3  C   UNL     1      10.304  12.510  18.728  0.00  0.00    +0.000 A 
ATOM      4  C   UNL     1       9.940  11.220  18.350  0.00  0.00    +0.000 A 
ATOM      5  C   UNL     1       9.367  10.337  19.267  0.00  0.00    +0.000 A 
ATOM      6  C   UNL     1       9.140  10.785  20.575  0.00  0.00    +0.000 A 
ENDROOT
BRANCH   5   7
ATOM      7  N   UNL     1       8.974   9.026  18.923  0.00  0.00    +0.000 N 
ATOM      8  C   UNL     1       8.021   8.677  17.979  0.00  0.00    +0.000 C 
ATOM      9  O   UNL     1       7.389   9.442  17.254  0.00  0.00    +0.000 OA
ATOM     10  H   UNL     1       9.453   8.252  19.376  0.00  0.00    +0.000 HD
BRANCH   8  11
ATOM     11  C   UNL     1       7.785   7.210  17.821  0.00  0.00    +0.000 A 
ATOM     12  C   UNL     1       7.958   6.385  18.913  0.00  0.00    +0.000 A 
ATOM     13  C   UNL     1       7.676   5.062  18.701  0.00  0.00    +0.000 A 
ATOM     14  N   UNL     1       7.259   4.582  17.517  0.00  0.00    +0.000 NA
ATOM     15  C   UNL     1       7.113   5.459  16.491  0.00  0.00    +0.000 A 
ATOM     16  N   UNL     1       7.375   6.786  16.601  0.00  0.00    +0.000 NA
BRANCH  15  17
ATOM     17  C   UNL     1       6.590   4.942  15.145  0.00  0.00    +0.000 C 
ATOM     18  F   UNL     1       5.404   5.497  14.754  0.00  0.00    +0.000 F 
ATOM     19  F   UNL     1       7.459   5.186  14.118  0.00  0.00    +0.000 F 
ATOM     20  F   UNL     1       6.382   3.592  15.138  0.00  0.00    +0.000 F 
ENDBRANCH  15  17
ENDBRANCH   8  11
ENDBRANCH   5   7
BRANCH   1  21
ATOM     21  C   UNL     1       9.092  12.591  22.355  0.00  0.00    +0.000 C 
ATOM     22  C   UNL     1       8.659  14.064  22.345  0.00  0.00    +0.000 C 
BRANCH  21  23
ATOM     23  C   UNL     1       7.975  11.723  22.973  0.00  0.00    +0.000 C 
BRANCH  23  29
ATOM     24  C   UNL     1       8.187  12.948  25.987  0.00  0.00    +0.000 C 
ATOM     25  C   UNL     1       7.040  13.015  25.057  0.00  0.00    +0.000 A 
ATOM     26  C   UNL     1       5.808  13.585  25.266  0.00  0.00    +0.000 A 
ATOM     27  O   UNL     1       5.041  13.442  24.159  0.00  0.00    +0.000 OA
ATOM     28  N   UNL     1       5.749  12.752  23.193  0.00  0.00    +0.000 NA
ATOM     29  C   UNL     1       6.946  12.496  23.736  0.00  0.00    +0.000 A 
ENDBRANCH  23  29
ENDBRANCH  21  23
ENDBRANCH   1  21
TORSDOF 6
ENDMDL
MODEL 8
REMARK VINA RESULT:      -8.2      1.983      2.485
REMARK  Name = 
REMARK  8 active torsions:
REMARK  status: ('A' for Active; 'I' for Inactive)
REMARK    1  A    between atoms: C_1  and  C_2
REMARK    2  A    between atoms: C_6  and  C_7
REMARK    3  A    between atoms: C_7  and  C_8
REMARK    4  A    between atoms: C_8  and  C_9
REMARK    5  A    between atoms: C_8  and  C_10
REMARK    6  A    between atoms: C_14  and  N_15
REMARK    7  A    between atoms: C_16  and  C_18
REMARK    8  A    between atoms: C_22  and  C_23
REMARK                            x       y       z     vdW  Elec       q    Type
REMARK                         _______ _______ _______ _____ _____    ______ ____
ROOT
ATOM      1  C   UNL     1       4.787   5.613  16.982  0.00  0.00    +0.000 A 
ATOM      2  C   UNL     1       4.139   4.373  16.899  0.00  0.00    +0.000 A 
ATOM      3  C   UNL     1       2.901   4.187  17.508  0.00  0.00    +0.000 A 
ATOM      4  C   UNL     1       2.301   5.231  18.210  0.00  0.00    +0.000 A 
ATOM      5  C   UNL     1       2.934   6.469  18.337  0.00  0.00    +0.000 A 
ATOM      6  C   UNL     1       4.179   6.650  17.720  0.00  0.00    +0.000 A 
ENDROOT
BRANCH   5   7
ATOM      7  N   UNL     1       2.357   7.554  19.029  0.00  0.00    +0.000 N 
ATOM      8  C   UNL     1       1.825   8.701  18.460  0.00  0.00    +0.000 C 
ATOM      9  O   UNL     1       1.727   8.948  17.261  0.00  0.00    +0.000 OA
ATOM     10  H   UNL     1       2.284   7.486  20.042  0.00  0.00    +0.000 HD
BRANCH   8  11
ATOM     11  C   UNL     1       1.289   9.705  19.428  0.00  0.00    +0.000 A 
ATOM     12  C   UNL     1       1.294  11.039  19.076  0.00  0.00    +0.000 A 
ATOM     13  C   UNL     1       0.741  11.891  19.994  0.00  0.00    +0.000 A 
ATOM     14  N   UNL     1       0.225  11.475  21.163  0.00  0.00    +0.000 NA
ATOM     15  C   UNL     1       0.258  10.145  21.435  0.00  0.00    +0.000 A 
ATOM     16  N   UNL     1       0.791   9.225  20.593  0.00  0.00    +0.000 NA
BRANCH  15  17
ATOM     17  C   UNL     1      -0.370   9.641  22.741  0.00  0.00    +0.000 C 
ATOM     18  F   UNL     1       0.520   9.486  23.767  0.00  0.00    +0.000 F 
ATOM     19  F   UNL     1      -1.330  10.488  23.220  0.00  0.00    +0.000 F 
ATOM     20  F   UNL     1      -0.983   8.428  22.603  0.00  0.00    +0.000 F 
ENDBRANCH  15  17
ENDBRANCH   8  11
ENDBRANCH   5   7
BRANCH   1  21
ATOM     21  C   UNL     1       6.072   5.890  16.214  0.00  0.00    +0.000 C 
ATOM     22  C   UNL     1       7.060   6.740  17.026  0.00  0.00    +0.000 C 
BRANCH  21  23
ATOM     23  C   UNL     1       6.757   4.580  15.767  0.00  0.00    +0.000 C 
BRANCH  23  29
ATOM     24  C   UNL     1       8.513   5.744  13.279  0.00  0.00    +0.000 C 
ATOM     25  C   UNL     1       7.377   4.801  13.227  0.00  0.00    +0.000 A 
ATOM     26  C   UNL     1       6.797   4.228  12.121  0.00  0.00    +0.000 A 
ATOM     27  O   UNL     1       5.786   3.411  12.502  0.00  0.00    +0.000 OA
ATOM     28  N   UNL     1       5.661   3.442  13.879  0.00  0.00    +0.000 NA
ATOM     29  C   UNL     1       6.616   4.278  14.309  0.00  0.00    +0.000 A 
ENDBRANCH  23  29
ENDBRANCH  21  23
ENDBRANCH   1  21
TORSDOF 6
ENDMDL
MODEL 9
REMARK VINA RESULT:      -8.2      4.359      9.079
REMARK  Name = 
REMARK  8 active torsions:
REMARK  status: ('A' for Active; 'I' for Inactive)
REMARK    1  A    between atoms: C_1  and  C_2
REMARK    2  A    between atoms: C_6  and  C_7
REMARK    3  A    between atoms: C_7  and  C_8
REMARK    4  A    between atoms: C_8  and  C_9
REMARK    5  A    between atoms: C_8  and  C_10
REMARK    6  A    between atoms: C_14  and  N_15
REMARK    7  A    between atoms: C_16  and  C_18
REMARK    8  A    between atoms: C_22  and  C_23
REMARK                            x       y       z     vdW  Elec       q    Type
REMARK                         _______ _______ _______ _____ _____    ______ ____
ROOT
ATOM      1  C   UNL     1      -0.209  10.259  20.229  0.00  0.00    +0.000 A 
ATOM      2  C   UNL     1      -0.410  10.323  21.614  0.00  0.00    +0.000 A 
ATOM      3  C   UNL     1       0.303   9.482  22.464  0.00  0.00    +0.000 A 
ATOM      4  C   UNL     1       1.215   8.567  21.943  0.00  0.00    +0.000 A 
ATOM      5  C   UNL     1       1.416   8.458  20.566  0.00  0.00    +0.000 A 
ATOM      6  C   UNL     1       0.697   9.309  19.715  0.00  0.00    +0.000 A 
ENDROOT
BRANCH   5   7
ATOM      7  N   UNL     1       2.338   7.554  19.997  0.00  0.00    +0.000 N 
ATOM      8  C   UNL     1       2.274   6.170  20.059  0.00  0.00    +0.000 C 
ATOM      9  O   UNL     1       1.387   5.498  20.579  0.00  0.00    +0.000 OA
ATOM     10  H   UNL     1       3.108   7.938  19.456  0.00  0.00    +0.000 HD
BRANCH   8  11
ATOM     11  C   UNL     1       3.393   5.448  19.381  0.00  0.00    +0.000 A 
ATOM     12  C   UNL     1       3.593   4.113  19.665  0.00  0.00    +0.000 A 
ATOM     13  C   UNL     1       4.605   3.509  18.969  0.00  0.00    +0.000 A 
ATOM     14  N   UNL     1       5.363   4.157  18.067  0.00  0.00    +0.000 NA
ATOM     15  C   UNL     1       5.103   5.471  17.845  0.00  0.00    +0.000 A 
ATOM     16  N   UNL     1       4.127   6.157  18.491  0.00  0.00    +0.000 NA
BRANCH  15  17
ATOM     17  C   UNL     1       5.921   6.218  16.785  0.00  0.00    +0.000 C 
ATOM     18  F   UNL     1       7.077   5.585  16.420  0.00  0.00    +0.000 F 
ATOM     19  F   UNL     1       5.227   6.403  15.622  0.00  0.00    +0.000 F 
ATOM     20  F   UNL     1       6.302   7.467  17.189  0.00  0.00    +0.000 F 
ENDBRANCH  15  17
ENDBRANCH   8  11
ENDBRANCH   5   7
BRANCH   1  21
ATOM     21  C   UNL     1      -0.869  11.257  19.285  0.00  0.00    +0.000 C 
ATOM     22  C   UNL     1       0.105  12.353  18.831  0.00  0.00    +0.000 C 
BRANCH  21  23
ATOM     23  C   UNL     1      -1.473  10.553  18.051  0.00  0.00    +0.000 C 
BRANCH  23  29
ATOM     24  C   UNL     1      -2.947  10.401  15.147  0.00  0.00    +0.000 C 
ATOM     25  C   UNL     1      -3.472  10.975  16.404  0.00  0.00    +0.000 A 
ATOM     26  C   UNL     1      -4.681  11.589  16.619  0.00  0.00    +0.000 A 
ATOM     27  O   UNL     1      -4.783  11.967  17.915  0.00  0.00    +0.000 OA
ATOM     28  N   UNL     1      -3.624  11.624  18.588  0.00  0.00    +0.000 NA
ATOM     29  C   UNL     1      -2.840  11.031  17.678  0.00  0.00    +0.000 A 
ENDBRANCH  23  29
ENDBRANCH  21  23
ENDBRANCH   1  21
TORSDOF 6
ENDMDL
