MODEL 1
REMARK VINA RESULT:      -9.0      0.000      0.000
REMARK  Name = 
REMARK  8 active torsions:
REMARK  status: ('A' for Active; 'I' for Inactive)
REMARK    1  A    between atoms: C_1  and  C_2
REMARK    2  A    between atoms: C_2  and  S_3
REMARK    3  A    between atoms: C_2  and  C_10
REMARK    4  A    between atoms: S_3  and  C_4
REMARK    5  A    between atoms: N_8  and  C_9
REMARK    6  A    between atoms: C_15  and  N_16
REMARK    7  A    between atoms: C_17  and  C_19
REMARK    8  A    between atoms: C_23  and  C_24
REMARK                            x       y       z     vdW  Elec       q    Type
REMARK                         _______ _______ _______ _____ _____    ______ ____
ROOT
ATOM      1  C   UNL     1       4.755   4.805  17.661  0.00  0.00    +0.000 A 
ATOM      2  C   UNL     1       4.233   3.540  17.969  0.00  0.00    +0.000 A 
ATOM      3  C   UNL     1       3.044   3.421  18.687  0.00  0.00    +0.000 A 
ATOM      4  C   UNL     1       2.367   4.560  19.121  0.00  0.00    +0.000 A 
ATOM      5  F   UNL     1       1.183   4.362  19.714  0.00  0.00    +0.000 F 
ATOM      6  C   UNL     1       2.874   5.840  18.874  0.00  0.00    +0.000 A 
ATOM      7  C   UNL     1       4.065   5.944  18.134  0.00  0.00    +0.000 A 
ENDROOT
BRANCH   6   8
ATOM      8  N   UNL     1       2.283   7.054  19.295  0.00  0.00    +0.000 N 
ATOM      9  C   UNL     1       2.111   8.211  18.554  0.00  0.00    +0.000 C 
ATOM     10  O   UNL     1       2.417   8.395  17.385  0.00  0.00    +0.000 OA
ATOM     11  H   UNL     1       1.827   7.071  20.204  0.00  0.00    +0.000 HD
BRANCH   9  12
ATOM     12  C   UNL     1       1.407   9.312  19.293  0.00  0.00    +0.000 A 
ATOM     13  C   UNL     1       1.129  10.503  18.630  0.00  0.00    +0.000 A 
ATOM     14  C   UNL     1       0.413  11.483  19.302  0.00  0.00    +0.000 A 
ATOM     15  C   UNL     1      -0.003  11.246  20.608  0.00  0.00    +0.000 A 
ATOM     16  C   UNL     1       0.312  10.028  21.223  0.00  0.00    +0.000 A 
ATOM     17  N   UNL     1       1.023   9.052  20.575  0.00  0.00    +0.000 NA
BRANCH  16  18
ATOM     18  C   UNL     1      -0.167   9.768  22.648  0.00  0.00    +0.000 C 
ATOM     19  F   UNL     1      -1.027   8.712  22.749  0.00  0.00    +0.000 F 
ATOM     20  F   UNL     1       0.856   9.488  23.504  0.00  0.00    +0.000 F 
ATOM     21  F   UNL     1      -0.829  10.830  23.187  0.00  0.00    +0.000 F 
ENDBRANCH  16  18
ENDBRANCH   9  12
ENDBRANCH   6   8
BRANCH   1  23
ATOM     22  C   UNL     1       7.302   4.657  17.712  0.00  0.00    +0.000 C 
ATOM     23  C   UNL     1       6.053   4.901  16.857  0.00  0.00    +0.000 C 
BRANCH  23  24
ATOM     24  S   UNL     1       5.992   3.712  15.460  0.00  0.00    +0.000 S 
BRANCH  24  25
ATOM     25  C   UNL     1       6.916   4.527  14.247  0.00  0.00    +0.000 A 
ATOM     26  N   UNL     1       7.825   5.458  14.427  0.00  0.00    +0.000 NA
ATOM     27  N   UNL     1       8.317   5.805  13.185  0.00  0.00    +0.000 NA
ATOM     28  C   UNL     1       7.685   5.081  12.287  0.00  0.00    +0.000 A 
ATOM     29  N   UNL     1       6.796   4.259  12.915  0.00  0.00    +0.000 N 
ATOM     30  C   UNL     1       5.949   3.288  12.278  0.00  0.00    +0.000 C 
ENDBRANCH  24  25
ENDBRANCH  23  24
ENDBRANCH   1  23
TORSDOF 6
ENDMDL
MODEL 2
REMARK VINA RESULT:      -8.3      7.354     11.056
REMARK  Name = 
REMARK  8 active torsions:
REMARK  status: ('A' for Active; 'I' for Inactive)
REMARK    1  A    between atoms: C_1  and  C_2
REMARK    2  A    between atoms: C_2  and  S_3
REMARK    3  A    between atoms: C_2  and  C_10
REMARK    4  A    between atoms: S_3  and  C_4
REMARK    5  A    between atoms: N_8  and  C_9
REMARK    6  A    between atoms: C_15  and  N_16
REMARK    7  A    between atoms: C_17  and  C_19
REMARK    8  A    between atoms: C_23  and  C_24
REMARK                            x       y       z     vdW  Elec       q    Type
REMARK                         _______ _______ _______ _____ _____    ______ ____
ROOT
ATOM      1  C   UNL     1       9.527  12.295  21.165  0.00  0.00    +0.000 A 
ATOM      2  C   UNL     1      10.391  13.058  20.364  0.00  0.00    +0.000 A 
ATOM      3  C   UNL     1      10.807  12.582  19.121  0.00  0.00    +0.000 A 
ATOM      4  C   UNL     1      10.382  11.335  18.666  0.00  0.00    +0.000 A 
ATOM      5  F   UNL     1      10.744  10.998  17.422  0.00  0.00    +0.000 F 
ATOM      6  C   UNL     1       9.556  10.523  19.450  0.00  0.00    +0.000 A 
ATOM      7  C   UNL     1       9.130  11.023  20.693  0.00  0.00    +0.000 A 
ENDROOT
BRANCH   6   8
ATOM      8  N   UNL     1       9.094   9.234  19.095  0.00  0.00    +0.000 N 
ATOM      9  C   UNL     1       8.172   8.908  18.116  0.00  0.00    +0.000 C 
ATOM     10  O   UNL     1       7.598   9.671  17.353  0.00  0.00    +0.000 OA
ATOM     11  H   UNL     1       9.555   8.431  19.517  0.00  0.00    +0.000 HD
BRANCH   9  12
ATOM     12  C   UNL     1       7.932   7.432  17.968  0.00  0.00    +0.000 A 
ATOM     13  C   UNL     1       8.114   6.603  19.069  0.00  0.00    +0.000 A 
ATOM     14  C   UNL     1       7.819   5.254  18.937  0.00  0.00    +0.000 A 
ATOM     15  C   UNL     1       7.350   4.776  17.718  0.00  0.00    +0.000 A 
ATOM     16  C   UNL     1       7.190   5.662  16.645  0.00  0.00    +0.000 A 
ATOM     17  N   UNL     1       7.484   6.996  16.757  0.00  0.00    +0.000 NA
BRANCH  16  18
ATOM     18  C   UNL     1       6.655   5.134  15.317  0.00  0.00    +0.000 C 
ATOM     19  F   UNL     1       7.558   5.211  14.297  0.00  0.00    +0.000 F 
ATOM     20  F   UNL     1       6.291   3.822  15.383  0.00  0.00    +0.000 F 
ATOM     21  F   UNL     1       5.554   5.809  14.883  0.00  0.00    +0.000 F 
ENDBRANCH  16  18
ENDBRANCH   9  12
ENDBRANCH   6   8
BRANCH   1  23
ATOM     22  C   UNL     1       8.390  14.219  22.396  0.00  0.00    +0.000 C 
ATOM     23  C   UNL     1       9.075  12.853  22.515  0.00  0.00    +0.000 C 
BRANCH  23  24
ATOM     24  S   UNL     1       7.957  11.646  23.329  0.00  0.00    +0.000 S 
BRANCH  24  25
ATOM     25  C   UNL     1       7.850  12.273  24.936  0.00  0.00    +0.000 A 
ATOM     26  N   UNL     1       8.676  13.107  25.525  0.00  0.00    +0.000 NA
ATOM     27  N   UNL     1       8.190  13.349  26.794  0.00  0.00    +0.000 NA
ATOM     28  C   UNL     1       7.088  12.647  26.941  0.00  0.00    +0.000 A 
ATOM     29  N   UNL     1       6.835  11.958  25.791  0.00  0.00    +0.000 N 
ATOM     30  C   UNL     1       5.698  11.112  25.546  0.00  0.00    +0.000 C 
ENDBRANCH  24  25
ENDBRANCH  23  24
ENDBRANCH   1  23
TORSDOF 6
ENDMDL
MODEL 3
REMARK VINA RESULT:      -8.3      1.894      2.406
REMARK  Name = 
REMARK  8 active torsions:
REMARK  status: ('A' for Active; 'I' for Inactive)
REMARK    1  A    between atoms: C_1  and  C_2
REMARK    2  A    between atoms: C_2  and  S_3
REMARK    3  A    between atoms: C_2  and  C_10
REMARK    4  A    between atoms: S_3  and  C_4
REMARK    5  A    between atoms: N_8  and  C_9
REMARK    6  A    between atoms: C_15  and  N_16
REMARK    7  A    between atoms: C_17  and  C_19
REMARK    8  A    between atoms: C_23  and  C_24
REMARK                            x       y       z     vdW  Elec       q    Type
REMARK                         _______ _______ _______ _____ _____    ______ ____
ROOT
ATOM      1  C   UNL     1       4.548   5.154  17.489  0.00  0.00    +0.000 A 
ATOM      2  C   UNL     1       3.996   3.877  17.670  0.00  0.00    +0.000 A 
ATOM      3  C   UNL     1       2.782   3.719  18.336  0.00  0.00    +0.000 A 
ATOM      4  C   UNL     1       2.108   4.829  18.844  0.00  0.00    +0.000 A 
ATOM      5  F   UNL     1       0.901   4.602  19.378  0.00  0.00    +0.000 F 
ATOM      6  C   UNL     1       2.642   6.116  18.724  0.00  0.00    +0.000 A 
ATOM      7  C   UNL     1       3.860   6.261  18.035  0.00  0.00    +0.000 A 
ENDROOT
BRANCH   6   8
ATOM      8  N   UNL     1       2.056   7.300  19.228  0.00  0.00    +0.000 N 
ATOM      9  C   UNL     1       1.817   8.480  18.546  0.00  0.00    +0.000 C 
ATOM     10  O   UNL     1       2.044   8.716  17.368  0.00  0.00    +0.000 OA
ATOM     11  H   UNL     1       1.659   7.273  20.164  0.00  0.00    +0.000 HD
BRANCH   9  12
ATOM     12  C   UNL     1       1.140   9.538  19.370  0.00  0.00    +0.000 A 
ATOM     13  C   UNL     1       1.074   9.382  20.750  0.00  0.00    +0.000 A 
ATOM     14  C   UNL     1       0.511  10.401  21.505  0.00  0.00    +0.000 A 
ATOM     15  C   UNL     1       0.035  11.540  20.863  0.00  0.00    +0.000 A 
ATOM     16  C   UNL     1       0.127  11.635  19.469  0.00  0.00    +0.000 A 
ATOM     17  N   UNL     1       0.674  10.636  18.709  0.00  0.00    +0.000 NA
BRANCH  16  18
ATOM     18  C   UNL     1      -0.377  12.897  18.776  0.00  0.00    +0.000 C 
ATOM     19  F   UNL     1       0.592  13.842  18.593  0.00  0.00    +0.000 F 
ATOM     20  F   UNL     1      -0.882  12.649  17.534  0.00  0.00    +0.000 F 
ATOM     21  F   UNL     1      -1.370  13.523  19.468  0.00  0.00    +0.000 F 
ENDBRANCH  16  18
ENDBRANCH   9  12
ENDBRANCH   6   8
BRANCH   1  23
ATOM     22  C   UNL     1       7.083   5.377  17.678  0.00  0.00    +0.000 C 
ATOM     23  C   UNL     1       5.874   5.294  16.739  0.00  0.00    +0.000 C 
BRANCH  23  24
ATOM     24  S   UNL     1       6.064   3.890  15.572  0.00  0.00    +0.000 S 
BRANCH  24  25
ATOM     25  C   UNL     1       6.945   4.613  14.272  0.00  0.00    +0.000 A 
ATOM     26  N   UNL     1       7.884   5.527  14.355  0.00  0.00    +0.000 NA
ATOM     27  N   UNL     1       8.320   5.793  13.072  0.00  0.00    +0.000 NA
ATOM     28  C   UNL     1       7.626   5.039  12.249  0.00  0.00    +0.000 A 
ATOM     29  N   UNL     1       6.750   4.276  12.964  0.00  0.00    +0.000 N 
ATOM     30  C   UNL     1       5.849   3.295  12.425  0.00  0.00    +0.000 C 
ENDBRANCH  24  25
ENDBRANCH  23  24
ENDBRANCH   1  23
TORSDOF 6
ENDMDL
MODEL 4
REMARK VINA RESULT:      -8.2      1.381      1.556
REMARK  Name = 
REMARK  8 active torsions:
REMARK  status: ('A' for Active; 'I' for Inactive)
REMARK    1  A    between atoms: C_1  and  C_2
REMARK    2  A    between atoms: C_2  and  S_3
REMARK    3  A    between atoms: C_2  and  C_10
REMARK    4  A    between atoms: S_3  and  C_4
REMARK    5  A    between atoms: N_8  and  C_9
REMARK    6  A    between atoms: C_15  and  N_16
REMARK    7  A    between atoms: C_17  and  C_19
REMARK    8  A    between atoms: C_23  and  C_24
REMARK                            x       y       z     vdW  Elec       q    Type
REMARK                         _______ _______ _______ _____ _____    ______ ____
ROOT
ATOM      1  C   UNL     1       4.531   5.627  17.756  0.00  0.00    +0.000 A 
ATOM      2  C   UNL     1       4.273   4.396  18.378  0.00  0.00    +0.000 A 
ATOM      3  C   UNL     1       3.189   4.254  19.243  0.00  0.00    +0.000 A 
ATOM      4  C   UNL     1       2.356   5.339  19.512  0.00  0.00    +0.000 A 
ATOM      5  F   UNL     1       1.281   5.093  20.271  0.00  0.00    +0.000 F 
ATOM      6  C   UNL     1       2.601   6.595  18.948  0.00  0.00    +0.000 A 
ATOM      7  C   UNL     1       3.688   6.719  18.064  0.00  0.00    +0.000 A 
ENDROOT
BRANCH   6   8
ATOM      8  N   UNL     1       1.838   7.763  19.179  0.00  0.00    +0.000 N 
ATOM      9  C   UNL     1       1.458   8.296  20.399  0.00  0.00    +0.000 C 
ATOM     10  O   UNL     1       1.731   7.870  21.511  0.00  0.00    +0.000 OA
ATOM     11  H   UNL     1       1.622   8.356  18.381  0.00  0.00    +0.000 HD
BRANCH   9  12
ATOM     12  C   UNL     1       0.680   9.576  20.292  0.00  0.00    +0.000 A 
ATOM     13  C   UNL     1       0.575  10.204  19.056  0.00  0.00    +0.000 A 
ATOM     14  C   UNL     1      -0.207  11.346  18.958  0.00  0.00    +0.000 A 
ATOM     15  C   UNL     1      -0.860  11.822  20.090  0.00  0.00    +0.000 A 
ATOM     16  C   UNL     1      -0.712  11.146  21.308  0.00  0.00    +0.000 A 
ATOM     17  N   UNL     1       0.061  10.022  21.423  0.00  0.00    +0.000 NA
BRANCH  16  18
ATOM     18  C   UNL     1      -1.450  11.663  22.539  0.00  0.00    +0.000 C 
ATOM     19  F   UNL     1      -1.592  10.725  23.522  0.00  0.00    +0.000 F 
ATOM     20  F   UNL     1      -0.815  12.715  23.129  0.00  0.00    +0.000 F 
ATOM     21  F   UNL     1      -2.713  12.093  22.260  0.00  0.00    +0.000 F 
ENDBRANCH  16  18
ENDBRANCH   9  12
ENDBRANCH   6   8
BRANCH   1  23
ATOM     22  C   UNL     1       7.040   6.027  17.523  0.00  0.00    +0.000 C 
ATOM     23  C   UNL     1       5.718   5.745  16.799  0.00  0.00    +0.000 C 
BRANCH  23  24
ATOM     24  S   UNL     1       5.850   4.210  15.801  0.00  0.00    +0.000 S 
BRANCH  24  25
ATOM     25  C   UNL     1       6.830   4.722  14.472  0.00  0.00    +0.000 A 
ATOM     26  N   UNL     1       7.851   5.548  14.504  0.00  0.00    +0.000 NA
ATOM     27  N   UNL     1       8.344   5.651  13.219  0.00  0.00    +0.000 NA
ATOM     28  C   UNL     1       7.602   4.892  12.443  0.00  0.00    +0.000 A 
ATOM     29  N   UNL     1       6.639   4.284  13.194  0.00  0.00    +0.000 N 
ATOM     30  C   UNL     1       5.661   3.346  12.715  0.00  0.00    +0.000 C 
ENDBRANCH  24  25
ENDBRANCH  23  24
ENDBRANCH   1  23
TORSDOF 6
ENDMDL
MODEL 5
REMARK VINA RESULT:      -8.2      2.540      2.966
REMARK  Name = 
REMARK  8 active torsions:
REMARK  status: ('A' for Active; 'I' for Inactive)
REMARK    1  A    between atoms: C_1  and  C_2
REMARK    2  A    between atoms: C_2  and  S_3
REMARK    3  A    between atoms: C_2  and  C_10
REMARK    4  A    between atoms: S_3  and  C_4
REMARK    5  A    between atoms: N_8  and  C_9
REMARK    6  A    between atoms: C_15  and  N_16
REMARK    7  A    between atoms: C_17  and  C_19
REMARK    8  A    between atoms: C_23  and  C_24
REMARK                            x       y       z     vdW  Elec       q    Type
REMARK                         _______ _______ _______ _____ _____    ______ ____
ROOT
ATOM      1  C   UNL     1       4.501   5.689  18.331  0.00  0.00    +0.000 A 
ATOM      2  C   UNL     1       4.197   4.684  19.260  0.00  0.00    +0.000 A 
ATOM      3  C   UNL     1       3.063   4.785  20.065  0.00  0.00    +0.000 A 
ATOM      4  C   UNL     1       2.226   5.896  19.966  0.00  0.00    +0.000 A 
ATOM      5  F   UNL     1       1.106   5.868  20.699  0.00  0.00    +0.000 F 
ATOM      6  C   UNL     1       2.515   6.941  19.083  0.00  0.00    +0.000 A 
ATOM      7  C   UNL     1       3.653   6.817  18.266  0.00  0.00    +0.000 A 
ENDROOT
BRANCH   6   8
ATOM      8  N   UNL     1       1.751   8.121  18.927  0.00  0.00    +0.000 N 
ATOM      9  C   UNL     1       1.314   8.982  19.920  0.00  0.00    +0.000 C 
ATOM     10  O   UNL     1       1.527   8.898  21.121  0.00  0.00    +0.000 OA
ATOM     11  H   UNL     1       1.581   8.457  17.982  0.00  0.00    +0.000 HD
BRANCH   9  12
ATOM     12  C   UNL     1       0.553  10.171  19.409  0.00  0.00    +0.000 A 
ATOM     13  C   UNL     1       1.066  11.446  19.624  0.00  0.00    +0.000 A 
ATOM     14  C   UNL     1       0.391  12.531  19.083  0.00  0.00    +0.000 A 
ATOM     15  C   UNL     1      -0.768  12.311  18.345  0.00  0.00    +0.000 A 
ATOM     16  C   UNL     1      -1.236  11.003  18.167  0.00  0.00    +0.000 A 
ATOM     17  N   UNL     1      -0.584   9.922  18.701  0.00  0.00    +0.000 NA
BRANCH  16  18
ATOM     18  C   UNL     1      -2.495  10.770  17.338  0.00  0.00    +0.000 C 
ATOM     19  F   UNL     1      -3.496  11.658  17.608  0.00  0.00    +0.000 F 
ATOM     20  F   UNL     1      -2.269  10.872  15.998  0.00  0.00    +0.000 F 
ATOM     21  F   UNL     1      -3.039   9.536  17.535  0.00  0.00    +0.000 F 
ENDBRANCH  16  18
ENDBRANCH   9  12
ENDBRANCH   6   8
BRANCH   1  23
ATOM     22  C   UNL     1       6.980   5.089  18.238  0.00  0.00    +0.000 C 
ATOM     23  C   UNL     1       5.744   5.539  17.451  0.00  0.00    +0.000 C 
BRANCH  23  24
ATOM     24  S   UNL     1       5.387   4.359  16.091  0.00  0.00    +0.000 S 
BRANCH  24  25
ATOM     25  C   UNL     1       6.564   4.802  14.905  0.00  0.00    +0.000 A 
ATOM     26  N   UNL     1       7.602   5.590  15.066  0.00  0.00    +0.000 NA
ATOM     27  N   UNL     1       8.275   5.644  13.861  0.00  0.00    +0.000 NA
ATOM     28  C   UNL     1       7.619   4.894  13.003  0.00  0.00    +0.000 A 
ATOM     29  N   UNL     1       6.536   4.341  13.621  0.00  0.00    +0.000 N 
ATOM     30  C   UNL     1       5.599   3.429  13.026  0.00  0.00    +0.000 C 
ENDBRANCH  24  25
ENDBRANCH  23  24
ENDBRANCH   1  23
TORSDOF 6
ENDMDL
MODEL 6
REMARK VINA RESULT:      -8.1      1.720      2.151
REMARK  Name = 
REMARK  8 active torsions:
REMARK  status: ('A' for Active; 'I' for Inactive)
REMARK    1  A    between atoms: C_1  and  C_2
REMARK    2  A    between atoms: C_2  and  S_3
REMARK    3  A    between atoms: C_2  and  C_10
REMARK    4  A    between atoms: S_3  and  C_4
REMARK    5  A    between atoms: N_8  and  C_9
REMARK    6  A    between atoms: C_15  and  N_16
REMARK    7  A    between atoms: C_17  and  C_19
REMARK    8  A    between atoms: C_23  and  C_24
REMARK                            x       y       z     vdW  Elec       q    Type
REMARK                         _______ _______ _______ _____ _____    ______ ____
ROOT
ATOM      1  C   UNL     1       4.223   4.876  17.586  0.00  0.00    +0.000 A 
ATOM      2  C   UNL     1       4.401   3.619  18.182  0.00  0.00    +0.000 A 
ATOM      3  C   UNL     1       3.834   3.338  19.424  0.00  0.00    +0.000 A 
ATOM      4  C   UNL     1       3.094   4.310  20.096  0.00  0.00    +0.000 A 
ATOM      5  F   UNL     1       2.498   3.927  21.233  0.00  0.00    +0.000 F 
ATOM      6  C   UNL     1       2.927   5.590  19.559  0.00  0.00    +0.000 A 
ATOM      7  C   UNL     1       3.490   5.853  18.298  0.00  0.00    +0.000 A 
ENDROOT
BRANCH   6   8
ATOM      8  N   UNL     1       2.223   6.653  20.171  0.00  0.00    +0.000 N 
ATOM      9  C   UNL     1       1.892   7.877  19.615  0.00  0.00    +0.000 C 
ATOM     10  O   UNL     1       2.124   8.263  18.479  0.00  0.00    +0.000 OA
ATOM     11  H   UNL     1       1.808   6.486  21.084  0.00  0.00    +0.000 HD
BRANCH   9  12
ATOM     12  C   UNL     1       1.102   8.771  20.528  0.00  0.00    +0.000 A 
ATOM     13  C   UNL     1       1.269   8.652  21.903  0.00  0.00    +0.000 A 
ATOM     14  C   UNL     1       0.588   9.533  22.731  0.00  0.00    +0.000 A 
ATOM     15  C   UNL     1      -0.233  10.503  22.164  0.00  0.00    +0.000 A 
ATOM     16  C   UNL     1      -0.362  10.569  20.771  0.00  0.00    +0.000 A 
ATOM     17  N   UNL     1       0.298   9.702  19.940  0.00  0.00    +0.000 NA
BRANCH  16  18
ATOM     18  C   UNL     1      -1.247  11.650  20.157  0.00  0.00    +0.000 C 
ATOM     19  F   UNL     1      -2.224  12.096  21.000  0.00  0.00    +0.000 F 
ATOM     20  F   UNL     1      -0.544  12.760  19.795  0.00  0.00    +0.000 F 
ATOM     21  F   UNL     1      -1.895  11.231  19.034  0.00  0.00    +0.000 F 
ENDBRANCH  16  18
ENDBRANCH   9  12
ENDBRANCH   6   8
BRANCH   1  23
ATOM     22  C   UNL     1       5.302   6.600  16.046  0.00  0.00    +0.000 C 
ATOM     23  C   UNL     1       4.845   5.147  16.215  0.00  0.00    +0.000 C 
BRANCH  23  24
ATOM     24  S   UNL     1       6.251   3.997  15.947  0.00  0.00    +0.000 S 
BRANCH  24  25
ATOM     25  C   UNL     1       7.011   4.671  14.549  0.00  0.00    +0.000 A 
ATOM     26  N   UNL     1       7.988   5.548  14.515  0.00  0.00    +0.000 NA
ATOM     27  N   UNL     1       8.290   5.783  13.188  0.00  0.00    +0.000 NA
ATOM     28  C   UNL     1       7.481   5.050  12.457  0.00  0.00    +0.000 A 
ATOM     29  N   UNL     1       6.661   4.330  13.275  0.00  0.00    +0.000 N 
ATOM     30  C   UNL     1       5.668   3.380  12.852  0.00  0.00    +0.000 C 
ENDBRANCH  24  25
ENDBRANCH  23  24
ENDBRANCH   1  23
TORSDOF 6
ENDMDL
MODEL 7
REMARK VINA RESULT:      -8.1      2.361      2.760
REMARK  Name = 
REMARK  8 active torsions:
REMARK  status: ('A' for Active; 'I' for Inactive)
REMARK    1  A    between atoms: C_1  and  C_2
REMARK    2  A    between atoms: C_2  and  S_3
REMARK    3  A    between atoms: C_2  and  C_10
REMARK    4  A    between atoms: S_3  and  C_4
REMARK    5  A    between atoms: N_8  and  C_9
REMARK    6  A    between atoms: C_15  and  N_16
REMARK    7  A    between atoms: C_17  and  C_19
REMARK    8  A    between atoms: C_23  and  C_24
REMARK                            x       y       z     vdW  Elec       q    Type
REMARK                         _______ _______ _______ _____ _____    ______ ____
ROOT
ATOM      1  C   UNL     1       4.651   5.456  18.109  0.00  0.00    +0.000 A 
ATOM      2  C   UNL     1       4.407   4.381  18.977  0.00  0.00    +0.000 A 
ATOM      3  C   UNL     1       3.310   4.402  19.837  0.00  0.00    +0.000 A 
ATOM      4  C   UNL     1       2.450   5.499  19.855  0.00  0.00    +0.000 A 
ATOM      5  F   UNL     1       1.366   5.395  20.634  0.00  0.00    +0.000 F 
ATOM      6  C   UNL     1       2.680   6.610  19.038  0.00  0.00    +0.000 A 
ATOM      7  C   UNL     1       3.781   6.568  18.164  0.00  0.00    +0.000 A 
ENDROOT
BRANCH   6   8
ATOM      8  N   UNL     1       1.889   7.783  19.002  0.00  0.00    +0.000 N 
ATOM      9  C   UNL     1       1.947   8.812  18.079  0.00  0.00    +0.000 C 
ATOM     10  O   UNL     1       2.678   8.892  17.102  0.00  0.00    +0.000 OA
ATOM     11  H   UNL     1       1.110   7.851  19.653  0.00  0.00    +0.000 HD
BRANCH   9  12
ATOM     12  C   UNL     1       0.934   9.897  18.307  0.00  0.00    +0.000 A 
ATOM     13  C   UNL     1       1.336  11.083  18.912  0.00  0.00    +0.000 A 
ATOM     14  C   UNL     1       0.407  12.104  19.050  0.00  0.00    +0.000 A 
ATOM     15  C   UNL     1      -0.888  11.913  18.580  0.00  0.00    +0.000 A 
ATOM     16  C   UNL     1      -1.233  10.694  17.981  0.00  0.00    +0.000 A 
ATOM     17  N   UNL     1      -0.329   9.674  17.844  0.00  0.00    +0.000 NA
BRANCH  16  18
ATOM     18  C   UNL     1      -2.649  10.502  17.448  0.00  0.00    +0.000 C 
ATOM     19  F   UNL     1      -3.614  10.640  18.405  0.00  0.00    +0.000 F 
ATOM     20  F   UNL     1      -2.971  11.400  16.475  0.00  0.00    +0.000 F 
ATOM     21  F   UNL     1      -2.849   9.268  16.904  0.00  0.00    +0.000 F 
ENDBRANCH  16  18
ENDBRANCH   9  12
ENDBRANCH   6   8
BRANCH   1  23
ATOM     22  C   UNL     1       7.156   5.024  17.886  0.00  0.00    +0.000 C 
ATOM     23  C   UNL     1       5.854   5.395  17.166  0.00  0.00    +0.000 C 
BRANCH  23  24
ATOM     24  S   UNL     1       5.507   4.203  15.815  0.00  0.00    +0.000 S 
BRANCH  24  25
ATOM     25  C   UNL     1       6.614   4.711  14.587  0.00  0.00    +0.000 A 
ATOM     26  N   UNL     1       7.654   5.500  14.727  0.00  0.00    +0.000 NA
ATOM     27  N   UNL     1       8.258   5.615  13.491  0.00  0.00    +0.000 NA
ATOM     28  C   UNL     1       7.561   4.900  12.636  0.00  0.00    +0.000 A 
ATOM     29  N   UNL     1       6.518   4.309  13.287  0.00  0.00    +0.000 N 
ATOM     30  C   UNL     1       5.556   3.415  12.703  0.00  0.00    +0.000 C 
ENDBRANCH  24  25
ENDBRANCH  23  24
ENDBRANCH   1  23
TORSDOF 6
ENDMDL
MODEL 8
REMARK VINA RESULT:      -8.1      2.262      2.645
REMARK  Name = 
REMARK  8 active torsions:
REMARK  status: ('A' for Active; 'I' for Inactive)
REMARK    1  A    between atoms: C_1  and  C_2
REMARK    2  A    between atoms: C_2  and  S_3
REMARK    3  A    between atoms: C_2  and  C_10
REMARK    4  A    between atoms: S_3  and  C_4
REMARK    5  A    between atoms: N_8  and  C_9
REMARK    6  A    between atoms: C_15  and  N_16
REMARK    7  A    between atoms: C_17  and  C_19
REMARK    8  A    between atoms: C_23  and  C_24
REMARK                            x       y       z     vdW  Elec       q    Type
REMARK                         _______ _______ _______ _____ _____    ______ ____
ROOT
ATOM      1  C   UNL     1       4.653   5.109  17.609  0.00  0.00    +0.000 A 
ATOM      2  C   UNL     1       4.124   3.869  17.997  0.00  0.00    +0.000 A 
ATOM      3  C   UNL     1       2.904   3.800  18.669  0.00  0.00    +0.000 A 
ATOM      4  C   UNL     1       2.203   4.966  18.976  0.00  0.00    +0.000 A 
ATOM      5  F   UNL     1       0.994   4.807  19.530  0.00  0.00    +0.000 F 
ATOM      6  C   UNL     1       2.715   6.225  18.646  0.00  0.00    +0.000 A 
ATOM      7  C   UNL     1       3.938   6.277  17.954  0.00  0.00    +0.000 A 
ENDROOT
BRANCH   6   8
ATOM      8  N   UNL     1       2.100   7.465  18.939  0.00  0.00    +0.000 N 
ATOM      9  C   UNL     1       1.548   7.870  20.142  0.00  0.00    +0.000 C 
ATOM     10  O   UNL     1       1.509   7.242  21.189  0.00  0.00    +0.000 OA
ATOM     11  H   UNL     1       2.152   8.199  18.237  0.00  0.00    +0.000 HD
BRANCH   9  12
ATOM     12  C   UNL     1       1.008   9.272  20.126  0.00  0.00    +0.000 A 
ATOM     13  C   UNL     1      -0.075   9.590  20.939  0.00  0.00    +0.000 A 
ATOM     14  C   UNL     1      -0.516  10.905  20.970  0.00  0.00    +0.000 A 
ATOM     15  C   UNL     1       0.136  11.859  20.194  0.00  0.00    +0.000 A 
ATOM     16  C   UNL     1       1.219  11.475  19.394  0.00  0.00    +0.000 A 
ATOM     17  N   UNL     1       1.662  10.179  19.347  0.00  0.00    +0.000 NA
BRANCH  16  18
ATOM     18  C   UNL     1       1.941  12.532  18.564  0.00  0.00    +0.000 C 
ATOM     19  F   UNL     1       2.778  13.322  19.298  0.00  0.00    +0.000 F 
ATOM     20  F   UNL     1       2.719  11.990  17.584  0.00  0.00    +0.000 F 
ATOM     21  F   UNL     1       1.087  13.389  17.936  0.00  0.00    +0.000 F 
ENDBRANCH  16  18
ENDBRANCH   9  12
ENDBRANCH   6   8
BRANCH   1  23
ATOM     22  C   UNL     1       7.195   4.965  17.783  0.00  0.00    +0.000 C 
ATOM     23  C   UNL     1       5.986   5.148  16.858  0.00  0.00    +0.000 C 
BRANCH  23  24
ATOM     24  S   UNL     1       5.983   3.865  15.546  0.00  0.00    +0.000 S 
BRANCH  24  25
ATOM     25  C   UNL     1       6.931   4.609  14.307  0.00  0.00    +0.000 A 
ATOM     26  N   UNL     1       7.866   5.519  14.454  0.00  0.00    +0.000 NA
ATOM     27  N   UNL     1       8.367   5.808  13.200  0.00  0.00    +0.000 NA
ATOM     28  C   UNL     1       7.715   5.070  12.329  0.00  0.00    +0.000 A 
ATOM     29  N   UNL     1       6.803   4.296  12.984  0.00  0.00    +0.000 N 
ATOM     30  C   UNL     1       5.929   3.327  12.382  0.00  0.00    +0.000 C 
ENDBRANCH  24  25
ENDBRANCH  23  24
ENDBRANCH   1  23
TORSDOF 6
ENDMDL
MODEL 9
REMARK VINA RESULT:      -8.0      5.216      9.159
REMARK  Name = 
REMARK  8 active torsions:
REMARK  status: ('A' for Active; 'I' for Inactive)
REMARK    1  A    between atoms: C_1  and  C_2
REMARK    2  A    between atoms: C_2  and  S_3
REMARK    3  A    between atoms: C_2  and  C_10
REMARK    4  A    between atoms: S_3  and  C_4
REMARK    5  A    between atoms: N_8  and  C_9
REMARK    6  A    between atoms: C_15  and  N_16
REMARK    7  A    between atoms: C_17  and  C_19
REMARK    8  A    between atoms: C_23  and  C_24
REMARK                            x       y       z     vdW  Elec       q    Type
REMARK                         _______ _______ _______ _____ _____    ______ ____
ROOT
ATOM      1  C   UNL     1       4.547   5.702  18.482  0.00  0.00    +0.000 A 
ATOM      2  C   UNL     1       5.701   5.640  19.277  0.00  0.00    +0.000 A 
ATOM      3  C   UNL     1       6.878   5.088  18.773  0.00  0.00    +0.000 A 
ATOM      4  C   UNL     1       6.917   4.578  17.476  0.00  0.00    +0.000 A 
ATOM      5  F   UNL     1       8.111   4.161  17.033  0.00  0.00    +0.000 F 
ATOM      6  C   UNL     1       5.779   4.581  16.664  0.00  0.00    +0.000 A 
ATOM      7  C   UNL     1       4.604   5.155  17.180  0.00  0.00    +0.000 A 
ENDROOT
BRANCH   6   8
ATOM      8  N   UNL     1       5.705   4.063  15.350  0.00  0.00    +0.000 N 
ATOM      9  C   UNL     1       6.358   4.527  14.221  0.00  0.00    +0.000 C 
ATOM     10  O   UNL     1       7.144   5.460  14.150  0.00  0.00    +0.000 OA
ATOM     11  H   UNL     1       5.208   3.186  15.211  0.00  0.00    +0.000 HD
BRANCH   9  12
ATOM     12  C   UNL     1       6.090   3.720  12.983  0.00  0.00    +0.000 A 
ATOM     13  C   UNL     1       7.025   2.776  12.574  0.00  0.00    +0.000 A 
ATOM     14  C   UNL     1       6.731   1.987  11.471  0.00  0.00    +0.000 A 
ATOM     15  C   UNL     1       5.517   2.163  10.814  0.00  0.00    +0.000 A 
ATOM     16  C   UNL     1       4.618   3.134  11.273  0.00  0.00    +0.000 A 
ATOM     17  N   UNL     1       4.896   3.924  12.356  0.00  0.00    +0.000 NA
BRANCH  16  18
ATOM     18  C   UNL     1       3.280   3.304  10.560  0.00  0.00    +0.000 C 
ATOM     19  F   UNL     1       3.286   2.841   9.275  0.00  0.00    +0.000 F 
ATOM     20  F   UNL     1       2.265   2.639  11.182  0.00  0.00    +0.000 F 
ATOM     21  F   UNL     1       2.884   4.605  10.478  0.00  0.00    +0.000 F 
ENDBRANCH  16  18
ENDBRANCH   9  12
ENDBRANCH   6   8
BRANCH   1  23
ATOM     22  C   UNL     1       2.365   6.926  17.982  0.00  0.00    +0.000 C 
ATOM     23  C   UNL     1       3.277   6.328  19.060  0.00  0.00    +0.000 C 
BRANCH  23  24
ATOM     24  S   UNL     1       2.369   5.069  20.040  0.00  0.00    +0.000 S 
BRANCH  24  25
ATOM     25  C   UNL     1       2.389   3.701  18.983  0.00  0.00    +0.000 A 
ATOM     26  N   UNL     1       1.640   3.499  17.924  0.00  0.00    +0.000 NA
ATOM     27  N   UNL     1       2.011   2.287  17.376  0.00  0.00    +0.000 NA
ATOM     28  C   UNL     1       2.968   1.786  18.125  0.00  0.00    +0.000 A 
ATOM     29  N   UNL     1       3.240   2.647  19.147  0.00  0.00    +0.000 N 
ATOM     30  C   UNL     1       4.253   2.473  20.152  0.00  0.00    +0.000 C 
ENDBRANCH  24  25
ENDBRANCH  23  24
ENDBRANCH   1  23
TORSDOF 6
ENDMDL
