MODEL 1
REMARK VINA RESULT:      -8.5      0.000      0.000
REMARK  Name = 
REMARK  12 active torsions:
REMARK  status: ('A' for Active; 'I' for Inactive)
REMARK    1  A    between atoms: C_1  and  C_2
REMARK    2  A    between atoms: C_2  and  O_3
REMARK    3  A    between atoms: C_2  and  C_4
REMARK    4  A    between atoms: C_4  and  N_5
REMARK    5  A    between atoms: C_6  and  C_8
REMARK    6  A    between atoms: C_12  and  C_13
REMARK    7  A    between atoms: N_15  and  C_16
REMARK    8  A    between atoms: C_20  and  C_21
REMARK    9  A    between atoms: C_21  and  C_22
REMARK   10  A    between atoms: C_21  and  S_23
REMARK   11  A    between atoms: S_23  and  C_24
REMARK   12  A    between atoms: N_28  and  C_29
REMARK                            x       y       z     vdW  Elec       q    Type
REMARK                         _______ _______ _______ _____ _____    ______ ____
ROOT
ATOM      1  C   UNL     1       2.008   7.385  19.968  0.00  0.00    +0.000 C 
ATOM      2  O   UNL     1       2.125   8.139  19.008  0.00  0.00    +0.000 OA
ATOM      3  N   UNL     1       1.343   7.653  21.152  0.00  0.00    +0.000 N 
ATOM      4  H   UNL     1       1.459   6.957  21.884  0.00  0.00    +0.000 HD
ENDROOT
BRANCH   1   9
ATOM      5  C   UNL     1       4.479   4.712  19.103  0.00  0.00    +0.000 A 
ATOM      6  C   UNL     1       3.903   3.618  19.748  0.00  0.00    +0.000 A 
ATOM      7  C   UNL     1       2.735   3.820  20.466  0.00  0.00    +0.000 A 
ATOM      8  N   UNL     1       2.111   5.017  20.578  0.00  0.00    +0.000 NA
ATOM      9  C   UNL     1       2.681   6.053  19.905  0.00  0.00    +0.000 A 
ATOM     10  C   UNL     1       3.848   5.948  19.162  0.00  0.00    +0.000 A 
BRANCH   5  12
ATOM     11  N   UNL     1       5.585   4.238  16.993  0.00  0.00    +0.000 N 
ATOM     12  C   UNL     1       5.734   4.534  18.330  0.00  0.00    +0.000 C 
ATOM     13  O   UNL     1       6.818   4.676  18.880  0.00  0.00    +0.000 OA
ATOM     14  H   UNL     1       4.693   4.397  16.534  0.00  0.00    +0.000 HD
BRANCH  11  15
ATOM     15  C   UNL     1       6.733   4.074  16.121  0.00  0.00    +0.000 C 
BRANCH  15  17
ATOM     16  C   UNL     1       6.017   3.968  13.699  0.00  0.00    +0.000 C 
ATOM     17  C   UNL     1       6.548   4.856  14.814  0.00  0.00    +0.000 C 
BRANCH  17  18
ATOM     18  O   UNL     1       7.803   5.419  14.413  0.00  0.00    +0.000 OA
ATOM     19  H   UNL     1       7.836   5.408  13.440  0.00  0.00    +0.000 HD
ENDBRANCH  17  18
ENDBRANCH  15  17
ENDBRANCH  11  15
ENDBRANCH   5  12
ENDBRANCH   1   9
BRANCH   3  20
ATOM     20  C   UNL     1       0.629   8.833  21.446  0.00  0.00    +0.000 A 
ATOM     21  C   UNL     1       0.150   9.128  22.724  0.00  0.00    +0.000 A 
ATOM     22  C   UNL     1      -0.566  10.299  22.968  0.00  0.00    +0.000 A 
ATOM     23  C   UNL     1      -0.820  11.186  21.929  0.00  0.00    +0.000 A 
ATOM     24  C   UNL     1      -0.356  10.919  20.632  0.00  0.00    +0.000 A 
ATOM     25  C   UNL     1       0.391   9.744  20.408  0.00  0.00    +0.000 A 
BRANCH  24  26
ATOM     26  C   UNL     1      -0.715  11.888  19.517  0.00  0.00    +0.000 C 
ATOM     27  C   UNL     1      -0.140  13.278  19.808  0.00  0.00    +0.000 C 
BRANCH  26  28
ATOM     28  S   UNL     1      -2.511  12.053  19.248  0.00  0.00    +0.000 S 
BRANCH  28  29
ATOM     29  C   UNL     1      -2.718  11.232  17.745  0.00  0.00    +0.000 A 
ATOM     30  N   UNL     1      -1.840  10.504  17.094  0.00  0.00    +0.000 NA
ATOM     31  N   UNL     1      -2.462  10.012  15.964  0.00  0.00    +0.000 NA
ATOM     32  C   UNL     1      -3.695  10.470  15.958  0.00  0.00    +0.000 A 
ATOM     33  N   UNL     1      -3.890  11.266  17.046  0.00  0.00    +0.000 N 
ATOM     34  C   UNL     1      -5.094  11.980  17.374  0.00  0.00    +0.000 C 
ENDBRANCH  28  29
ENDBRANCH  26  28
ENDBRANCH  24  26
ENDBRANCH   3  20
TORSDOF 9
ENDMDL
MODEL 2
REMARK VINA RESULT:      -8.1      6.371      8.511
REMARK  Name = 
REMARK  12 active torsions:
REMARK  status: ('A' for Active; 'I' for Inactive)
REMARK    1  A    between atoms: C_1  and  C_2
REMARK    2  A    between atoms: C_2  and  O_3
REMARK    3  A    between atoms: C_2  and  C_4
REMARK    4  A    between atoms: C_4  and  N_5
REMARK    5  A    between atoms: C_6  and  C_8
REMARK    6  A    between atoms: C_12  and  C_13
REMARK    7  A    between atoms: N_15  and  C_16
REMARK    8  A    between atoms: C_20  and  C_21
REMARK    9  A    between atoms: C_21  and  C_22
REMARK   10  A    between atoms: C_21  and  S_23
REMARK   11  A    between atoms: S_23  and  C_24
REMARK   12  A    between atoms: N_28  and  C_29
REMARK                            x       y       z     vdW  Elec       q    Type
REMARK                         _______ _______ _______ _____ _____    ______ ____
ROOT
ATOM      1  C   UNL     1       7.888   7.589  18.068  0.00  0.00    +0.000 C 
ATOM      2  O   UNL     1       8.568   7.071  18.947  0.00  0.00    +0.000 OA
ATOM      3  N   UNL     1       7.840   8.934  17.747  0.00  0.00    +0.000 N 
ATOM      4  H   UNL     1       7.124   9.197  17.074  0.00  0.00    +0.000 HD
ENDROOT
BRANCH   1   9
ATOM      5  C   UNL     1       4.840   5.676  17.047  0.00  0.00    +0.000 A 
ATOM      6  C   UNL     1       5.293   5.088  15.867  0.00  0.00    +0.000 A 
ATOM      7  C   UNL     1       6.583   5.375  15.446  0.00  0.00    +0.000 A 
ATOM      8  N   UNL     1       7.436   6.189  16.112  0.00  0.00    +0.000 NA
ATOM      9  C   UNL     1       6.971   6.714  17.278  0.00  0.00    +0.000 A 
ATOM     10  C   UNL     1       5.697   6.486  17.780  0.00  0.00    +0.000 A 
BRANCH   5  12
ATOM     11  N   UNL     1       3.023   4.099  17.383  0.00  0.00    +0.000 N 
ATOM     12  C   UNL     1       3.462   5.397  17.525  0.00  0.00    +0.000 C 
ATOM     13  O   UNL     1       2.796   6.290  18.033  0.00  0.00    +0.000 OA
ATOM     14  H   UNL     1       3.690   3.353  17.213  0.00  0.00    +0.000 HD
BRANCH  11  15
ATOM     15  C   UNL     1       1.709   3.690  17.843  0.00  0.00    +0.000 C 
BRANCH  15  17
ATOM     16  C   UNL     1       3.255   2.198  19.177  0.00  0.00    +0.000 C 
ATOM     17  C   UNL     1       1.818   2.651  18.968  0.00  0.00    +0.000 C 
BRANCH  17  18
ATOM     18  O   UNL     1       1.005   1.515  18.648  0.00  0.00    +0.000 OA
ATOM     19  H   UNL     1       0.554   1.234  19.463  0.00  0.00    +0.000 HD
ENDBRANCH  17  18
ENDBRANCH  15  17
ENDBRANCH  11  15
ENDBRANCH   5  12
ENDBRANCH   1   9
BRANCH   3  20
ATOM     20  C   UNL     1       8.614   9.951  18.344  0.00  0.00    +0.000 A 
ATOM     21  C   UNL     1       9.161   9.832  19.624  0.00  0.00    +0.000 A 
ATOM     22  C   UNL     1       9.906  10.868  20.184  0.00  0.00    +0.000 A 
ATOM     23  C   UNL     1      10.104  12.044  19.470  0.00  0.00    +0.000 A 
ATOM     24  C   UNL     1       9.566  12.198  18.184  0.00  0.00    +0.000 A 
ATOM     25  C   UNL     1       8.839  11.130  17.620  0.00  0.00    +0.000 A 
BRANCH  24  26
ATOM     26  C   UNL     1       9.757  13.527  17.469  0.00  0.00    +0.000 C 
ATOM     27  C   UNL     1      11.207  13.683  17.002  0.00  0.00    +0.000 C 
BRANCH  26  28
ATOM     28  S   UNL     1       9.325  14.972  18.496  0.00  0.00    +0.000 S 
BRANCH  28  29
ATOM     29  C   UNL     1       7.602  14.939  18.441  0.00  0.00    +0.000 A 
ATOM     30  N   UNL     1       6.832  14.458  17.492  0.00  0.00    +0.000 NA
ATOM     31  N   UNL     1       5.522  14.611  17.900  0.00  0.00    +0.000 NA
ATOM     32  C   UNL     1       5.538  15.193  19.079  0.00  0.00    +0.000 A 
ATOM     33  N   UNL     1       6.826  15.443  19.445  0.00  0.00    +0.000 N 
ATOM     34  C   UNL     1       7.257  16.101  20.649  0.00  0.00    +0.000 C 
ENDBRANCH  28  29
ENDBRANCH  26  28
ENDBRANCH  24  26
ENDBRANCH   3  20
TORSDOF 9
ENDMDL
MODEL 3
REMARK VINA RESULT:      -8.1      1.805      2.297
REMARK  Name = 
REMARK  12 active torsions:
REMARK  status: ('A' for Active; 'I' for Inactive)
REMARK    1  A    between atoms: C_1  and  C_2
REMARK    2  A    between atoms: C_2  and  O_3
REMARK    3  A    between atoms: C_2  and  C_4
REMARK    4  A    between atoms: C_4  and  N_5
REMARK    5  A    between atoms: C_6  and  C_8
REMARK    6  A    between atoms: C_12  and  C_13
REMARK    7  A    between atoms: N_15  and  C_16
REMARK    8  A    between atoms: C_20  and  C_21
REMARK    9  A    between atoms: C_21  and  C_22
REMARK   10  A    between atoms: C_21  and  S_23
REMARK   11  A    between atoms: S_23  and  C_24
REMARK   12  A    between atoms: N_28  and  C_29
REMARK                            x       y       z     vdW  Elec       q    Type
REMARK                         _______ _______ _______ _____ _____    ______ ____
ROOT
ATOM      1  C   UNL     1       2.344   5.696  19.299  0.00  0.00    +0.000 C 
ATOM      2  O   UNL     1       1.654   5.216  20.192  0.00  0.00    +0.000 OA
ATOM      3  N   UNL     1       2.435   7.034  18.956  0.00  0.00    +0.000 N 
ATOM      4  H   UNL     1       2.959   7.233  18.107  0.00  0.00    +0.000 HD
ENDROOT
BRANCH   1   9
ATOM      5  C   UNL     1       4.640   4.452  16.620  0.00  0.00    +0.000 A 
ATOM      6  C   UNL     1       4.574   3.078  16.848  0.00  0.00    +0.000 A 
ATOM      7  C   UNL     1       3.793   2.626  17.900  0.00  0.00    +0.000 A 
ATOM      8  N   UNL     1       3.082   3.435  18.721  0.00  0.00    +0.000 NA
ATOM      9  C   UNL     1       3.141   4.766  18.444  0.00  0.00    +0.000 A 
ATOM     10  C   UNL     1       3.895   5.313  17.415  0.00  0.00    +0.000 A 
BRANCH   5  12
ATOM     11  N   UNL     1       5.878   4.049  14.569  0.00  0.00    +0.000 N 
ATOM     12  C   UNL     1       5.472   4.974  15.506  0.00  0.00    +0.000 C 
ATOM     13  O   UNL     1       5.739   6.167  15.447  0.00  0.00    +0.000 OA
ATOM     14  H   UNL     1       5.416   3.147  14.513  0.00  0.00    +0.000 HD
BRANCH  11  15
ATOM     15  C   UNL     1       6.666   4.438  13.414  0.00  0.00    +0.000 C 
BRANCH  15  17
ATOM     16  C   UNL     1       4.722   3.412  12.163  0.00  0.00    +0.000 C 
ATOM     17  C   UNL     1       6.221   3.672  12.161  0.00  0.00    +0.000 C 
BRANCH  17  18
ATOM     18  O   UNL     1       6.918   2.423  12.093  0.00  0.00    +0.000 OA
ATOM     19  H   UNL     1       6.252   1.714  12.048  0.00  0.00    +0.000 HD
ENDBRANCH  17  18
ENDBRANCH  15  17
ENDBRANCH  11  15
ENDBRANCH   5  12
ENDBRANCH   1   9
BRANCH   3  20
ATOM     20  C   UNL     1       1.785   8.099  19.615  0.00  0.00    +0.000 A 
ATOM     21  C   UNL     1       1.531   8.095  20.988  0.00  0.00    +0.000 A 
ATOM     22  C   UNL     1       0.871   9.161  21.597  0.00  0.00    +0.000 A 
ATOM     23  C   UNL     1       0.447  10.242  20.834  0.00  0.00    +0.000 A 
ATOM     24  C   UNL     1       0.683  10.276  19.451  0.00  0.00    +0.000 A 
ATOM     25  C   UNL     1       1.377   9.203  18.855  0.00  0.00    +0.000 A 
BRANCH  24  26
ATOM     26  C   UNL     1       0.144  11.450  18.650  0.00  0.00    +0.000 C 
ATOM     27  C   UNL     1       1.106  12.640  18.726  0.00  0.00    +0.000 C 
BRANCH  26  28
ATOM     28  S   UNL     1      -1.504  12.008  19.197  0.00  0.00    +0.000 S 
BRANCH  28  29
ATOM     29  C   UNL     1      -2.489  11.567  17.851  0.00  0.00    +0.000 A 
ATOM     30  N   UNL     1      -2.100  11.175  16.659  0.00  0.00    +0.000 NA
ATOM     31  N   UNL     1      -3.233  10.889  15.924  0.00  0.00    +0.000 NA
ATOM     32  C   UNL     1      -4.275  11.131  16.690  0.00  0.00    +0.000 A 
ATOM     33  N   UNL     1      -3.852  11.587  17.902  0.00  0.00    +0.000 N 
ATOM     34  C   UNL     1      -4.690  11.995  18.997  0.00  0.00    +0.000 C 
ENDBRANCH  28  29
ENDBRANCH  26  28
ENDBRANCH  24  26
ENDBRANCH   3  20
TORSDOF 9
ENDMDL
MODEL 4
REMARK VINA RESULT:      -8.1      2.715      3.894
REMARK  Name = 
REMARK  12 active torsions:
REMARK  status: ('A' for Active; 'I' for Inactive)
REMARK    1  A    between atoms: C_1  and  C_2
REMARK    2  A    between atoms: C_2  and  O_3
REMARK    3  A    between atoms: C_2  and  C_4
REMARK    4  A    between atoms: C_4  and  N_5
REMARK    5  A    between atoms: C_6  and  C_8
REMARK    6  A    between atoms: C_12  and  C_13
REMARK    7  A    between atoms: N_15  and  C_16
REMARK    8  A    between atoms: C_20  and  C_21
REMARK    9  A    between atoms: C_21  and  C_22
REMARK   10  A    between atoms: C_21  and  S_23
REMARK   11  A    between atoms: S_23  and  C_24
REMARK   12  A    between atoms: N_28  and  C_29
REMARK                            x       y       z     vdW  Elec       q    Type
REMARK                         _______ _______ _______ _____ _____    ______ ____
ROOT
ATOM      1  C   UNL     1       1.441   8.402  20.089  0.00  0.00    +0.000 C 
ATOM      2  O   UNL     1       1.086   8.593  21.247  0.00  0.00    +0.000 OA
ATOM      3  N   UNL     1       1.239   9.250  19.014  0.00  0.00    +0.000 N 
ATOM      4  H   UNL     1       1.489   8.870  18.105  0.00  0.00    +0.000 HD
ENDROOT
BRANCH   1   9
ATOM      5  C   UNL     1       3.550   5.871  18.317  0.00  0.00    +0.000 A 
ATOM      6  C   UNL     1       3.340   4.755  19.128  0.00  0.00    +0.000 A 
ATOM      7  C   UNL     1       2.531   4.899  20.244  0.00  0.00    +0.000 A 
ATOM      8  N   UNL     1       1.924   6.057  20.597  0.00  0.00    +0.000 NA
ATOM      9  C   UNL     1       2.121   7.113  19.762  0.00  0.00    +0.000 A 
ATOM     10  C   UNL     1       2.914   7.066  18.624  0.00  0.00    +0.000 A 
BRANCH   5  12
ATOM     11  N   UNL     1       4.900   4.496  16.838  0.00  0.00    +0.000 N 
ATOM     12  C   UNL     1       4.416   5.755  17.117  0.00  0.00    +0.000 C 
ATOM     13  O   UNL     1       4.644   6.741  16.428  0.00  0.00    +0.000 OA
ATOM     14  H   UNL     1       4.473   3.682  17.268  0.00  0.00    +0.000 HD
BRANCH  11  15
ATOM     15  C   UNL     1       5.729   4.245  15.674  0.00  0.00    +0.000 C 
BRANCH  15  17
ATOM     16  C   UNL     1       7.517   4.504  17.443  0.00  0.00    +0.000 C 
ATOM     17  C   UNL     1       7.197   4.588  15.958  0.00  0.00    +0.000 C 
BRANCH  17  18
ATOM     18  O   UNL     1       7.477   5.912  15.488  0.00  0.00    +0.000 OA
ATOM     19  H   UNL     1       7.740   5.845  14.553  0.00  0.00    +0.000 HD
ENDBRANCH  17  18
ENDBRANCH  15  17
ENDBRANCH  11  15
ENDBRANCH   5  12
ENDBRANCH   1   9
BRANCH   3  20
ATOM     20  C   UNL     1       0.629  10.520  19.071  0.00  0.00    +0.000 A 
ATOM     21  C   UNL     1       1.340  11.710  18.895  0.00  0.00    +0.000 A 
ATOM     22  C   UNL     1       0.702  12.945  18.976  0.00  0.00    +0.000 A 
ATOM     23  C   UNL     1      -0.661  13.006  19.245  0.00  0.00    +0.000 A 
ATOM     24  C   UNL     1      -1.405  11.831  19.430  0.00  0.00    +0.000 A 
ATOM     25  C   UNL     1      -0.749  10.588  19.317  0.00  0.00    +0.000 A 
BRANCH  24  26
ATOM     26  C   UNL     1      -2.879  11.951  19.784  0.00  0.00    +0.000 C 
ATOM     27  C   UNL     1      -3.747  11.798  18.532  0.00  0.00    +0.000 C 
BRANCH  26  28
ATOM     28  S   UNL     1      -3.305  13.532  20.590  0.00  0.00    +0.000 S 
BRANCH  28  29
ATOM     29  C   UNL     1      -3.849  13.001  22.138  0.00  0.00    +0.000 A 
ATOM     30  N   UNL     1      -5.046  12.577  22.473  0.00  0.00    +0.000 NA
ATOM     31  N   UNL     1      -5.004  12.220  23.806  0.00  0.00    +0.000 NA
ATOM     32  C   UNL     1      -3.785  12.451  24.241  0.00  0.00    +0.000 A 
ATOM     33  N   UNL     1      -3.033  12.971  23.231  0.00  0.00    +0.000 N 
ATOM     34  C   UNL     1      -1.660  13.390  23.321  0.00  0.00    +0.000 C 
ENDBRANCH  28  29
ENDBRANCH  26  28
ENDBRANCH  24  26
ENDBRANCH   3  20
TORSDOF 9
ENDMDL
MODEL 5
REMARK VINA RESULT:      -8.0      3.124      3.935
REMARK  Name = 
REMARK  12 active torsions:
REMARK  status: ('A' for Active; 'I' for Inactive)
REMARK    1  A    between atoms: C_1  and  C_2
REMARK    2  A    between atoms: C_2  and  O_3
REMARK    3  A    between atoms: C_2  and  C_4
REMARK    4  A    between atoms: C_4  and  N_5
REMARK    5  A    between atoms: C_6  and  C_8
REMARK    6  A    between atoms: C_12  and  C_13
REMARK    7  A    between atoms: N_15  and  C_16
REMARK    8  A    between atoms: C_20  and  C_21
REMARK    9  A    between atoms: C_21  and  C_22
REMARK   10  A    between atoms: C_21  and  S_23
REMARK   11  A    between atoms: S_23  and  C_24
REMARK   12  A    between atoms: N_28  and  C_29
REMARK                            x       y       z     vdW  Elec       q    Type
REMARK                         _______ _______ _______ _____ _____    ______ ____
ROOT
ATOM      1  C   UNL     1       1.560   8.453  20.334  0.00  0.00    +0.000 C 
ATOM      2  O   UNL     1       1.443   8.683  21.534  0.00  0.00    +0.000 OA
ATOM      3  N   UNL     1       1.189   9.288  19.295  0.00  0.00    +0.000 N 
ATOM      4  H   UNL     1       1.244   8.878  18.366  0.00  0.00    +0.000 HD
ENDROOT
BRANCH   1   9
ATOM      5  C   UNL     1       3.439   5.854  18.409  0.00  0.00    +0.000 A 
ATOM      6  C   UNL     1       3.092   4.708  19.125  0.00  0.00    +0.000 A 
ATOM      7  C   UNL     1       2.272   4.852  20.233  0.00  0.00    +0.000 A 
ATOM      8  N   UNL     1       1.780   6.038  20.665  0.00  0.00    +0.000 NA
ATOM      9  C   UNL     1       2.109   7.128  19.920  0.00  0.00    +0.000 A 
ATOM     10  C   UNL     1       2.924   7.084  18.797  0.00  0.00    +0.000 A 
BRANCH   5  12
ATOM     11  N   UNL     1       4.857   4.493  16.983  0.00  0.00    +0.000 N 
ATOM     12  C   UNL     1       4.321   5.739  17.221  0.00  0.00    +0.000 C 
ATOM     13  O   UNL     1       4.516   6.713  16.505  0.00  0.00    +0.000 OA
ATOM     14  H   UNL     1       4.460   3.675  17.433  0.00  0.00    +0.000 HD
BRANCH  11  15
ATOM     15  C   UNL     1       5.707   4.241  15.833  0.00  0.00    +0.000 C 
BRANCH  15  17
ATOM     16  C   UNL     1       7.461   4.561  17.626  0.00  0.00    +0.000 C 
ATOM     17  C   UNL     1       7.166   4.611  16.134  0.00  0.00    +0.000 C 
BRANCH  17  18
ATOM     18  O   UNL     1       7.434   5.929  15.642  0.00  0.00    +0.000 OA
ATOM     19  H   UNL     1       6.971   6.562  16.219  0.00  0.00    +0.000 HD
ENDBRANCH  17  18
ENDBRANCH  15  17
ENDBRANCH  11  15
ENDBRANCH   5  12
ENDBRANCH   1   9
BRANCH   3  20
ATOM     20  C   UNL     1       0.655  10.586  19.432  0.00  0.00    +0.000 A 
ATOM     21  C   UNL     1       1.370  11.737  19.094  0.00  0.00    +0.000 A 
ATOM     22  C   UNL     1       0.811  13.003  19.260  0.00  0.00    +0.000 A 
ATOM     23  C   UNL     1      -0.472  13.131  19.779  0.00  0.00    +0.000 A 
ATOM     24  C   UNL     1      -1.218  11.996  20.131  0.00  0.00    +0.000 A 
ATOM     25  C   UNL     1      -0.648  10.722  19.930  0.00  0.00    +0.000 A 
BRANCH  24  26
ATOM     26  C   UNL     1      -2.591  12.191  20.753  0.00  0.00    +0.000 C 
ATOM     27  C   UNL     1      -3.637  12.467  19.669  0.00  0.00    +0.000 C 
BRANCH  26  28
ATOM     28  S   UNL     1      -2.652  13.549  21.969  0.00  0.00    +0.000 S 
BRANCH  28  29
ATOM     29  C   UNL     1      -3.888  13.005  23.042  0.00  0.00    +0.000 A 
ATOM     30  N   UNL     1      -3.796  12.097  23.987  0.00  0.00    +0.000 NA
ATOM     31  N   UNL     1      -5.024  12.023  24.614  0.00  0.00    +0.000 NA
ATOM     32  C   UNL     1      -5.826  12.879  24.020  0.00  0.00    +0.000 A 
ATOM     33  N   UNL     1      -5.160  13.498  23.006  0.00  0.00    +0.000 N 
ATOM     34  C   UNL     1      -5.704  14.472  22.099  0.00  0.00    +0.000 C 
ENDBRANCH  28  29
ENDBRANCH  26  28
ENDBRANCH  24  26
ENDBRANCH   3  20
TORSDOF 9
ENDMDL
MODEL 6
REMARK VINA RESULT:      -8.0      3.249      4.814
REMARK  Name = 
REMARK  12 active torsions:
REMARK  status: ('A' for Active; 'I' for Inactive)
REMARK    1  A    between atoms: C_1  and  C_2
REMARK    2  A    between atoms: C_2  and  O_3
REMARK    3  A    between atoms: C_2  and  C_4
REMARK    4  A    between atoms: C_4  and  N_5
REMARK    5  A    between atoms: C_6  and  C_8
REMARK    6  A    between atoms: C_12  and  C_13
REMARK    7  A    between atoms: N_15  and  C_16
REMARK    8  A    between atoms: C_20  and  C_21
REMARK    9  A    between atoms: C_21  and  C_22
REMARK   10  A    between atoms: C_21  and  S_23
REMARK   11  A    between atoms: S_23  and  C_24
REMARK   12  A    between atoms: N_28  and  C_29
REMARK                            x       y       z     vdW  Elec       q    Type
REMARK                         _______ _______ _______ _____ _____    ______ ____
ROOT
ATOM      1  C   UNL     1       1.929   8.924  18.254  0.00  0.00    +0.000 C 
ATOM      2  O   UNL     1       2.144   9.548  17.221  0.00  0.00    +0.000 OA
ATOM      3  N   UNL     1       1.083   9.299  19.284  0.00  0.00    +0.000 N 
ATOM      4  H   UNL     1       1.128   8.720  20.118  0.00  0.00    +0.000 HD
ENDROOT
BRANCH   1   9
ATOM      5  C   UNL     1       4.406   6.156  17.808  0.00  0.00    +0.000 A 
ATOM      6  C   UNL     1       4.028   5.309  18.850  0.00  0.00    +0.000 A 
ATOM      7  C   UNL     1       2.986   5.706  19.673  0.00  0.00    +0.000 A 
ATOM      8  N   UNL     1       2.304   6.868  19.527  0.00  0.00    +0.000 NA
ATOM      9  C   UNL     1       2.676   7.651  18.478  0.00  0.00    +0.000 A 
ATOM     10  C   UNL     1       3.706   7.338  17.602  0.00  0.00    +0.000 A 
BRANCH   5  12
ATOM     11  N   UNL     1       5.539   4.451  16.502  0.00  0.00    +0.000 N 
ATOM     12  C   UNL     1       5.522   5.766  16.911  0.00  0.00    +0.000 C 
ATOM     13  O   UNL     1       6.345   6.600  16.557  0.00  0.00    +0.000 OA
ATOM     14  H   UNL     1       4.706   3.879  16.597  0.00  0.00    +0.000 HD
BRANCH  11  15
ATOM     15  C   UNL     1       6.558   3.953  15.596  0.00  0.00    +0.000 C 
BRANCH  15  17
ATOM     16  C   UNL     1       6.286   3.724  13.092  0.00  0.00    +0.000 C 
ATOM     17  C   UNL     1       6.504   4.687  14.250  0.00  0.00    +0.000 C 
BRANCH  17  18
ATOM     18  O   UNL     1       7.729   5.402  14.047  0.00  0.00    +0.000 OA
ATOM     19  H   UNL     1       8.455   4.846  14.381  0.00  0.00    +0.000 HD
ENDBRANCH  17  18
ENDBRANCH  15  17
ENDBRANCH  11  15
ENDBRANCH   5  12
ENDBRANCH   1   9
BRANCH   3  20
ATOM     20  C   UNL     1       0.270  10.451  19.302  0.00  0.00    +0.000 A 
ATOM     21  C   UNL     1      -1.118  10.399  19.148  0.00  0.00    +0.000 A 
ATOM     22  C   UNL     1      -1.883  11.564  19.156  0.00  0.00    +0.000 A 
ATOM     23  C   UNL     1      -1.265  12.799  19.309  0.00  0.00    +0.000 A 
ATOM     24  C   UNL     1       0.126  12.888  19.464  0.00  0.00    +0.000 A 
ATOM     25  C   UNL     1       0.883  11.698  19.482  0.00  0.00    +0.000 A 
BRANCH  24  26
ATOM     26  C   UNL     1       0.762  14.265  19.565  0.00  0.00    +0.000 C 
ATOM     27  C   UNL     1      -0.100  15.308  18.847  0.00  0.00    +0.000 C 
BRANCH  26  28
ATOM     28  S   UNL     1       2.449  14.339  18.875  0.00  0.00    +0.000 S 
BRANCH  28  29
ATOM     29  C   UNL     1       3.414  14.316  20.304  0.00  0.00    +0.000 A 
ATOM     30  N   UNL     1       3.170  13.695  21.435  0.00  0.00    +0.000 NA
ATOM     31  N   UNL     1       4.239  13.927  22.278  0.00  0.00    +0.000 NA
ATOM     32  C   UNL     1       5.092  14.694  21.635  0.00  0.00    +0.000 A 
ATOM     33  N   UNL     1       4.599  14.987  20.399  0.00  0.00    +0.000 N 
ATOM     34  C   UNL     1       5.220  15.828  19.413  0.00  0.00    +0.000 C 
ENDBRANCH  28  29
ENDBRANCH  26  28
ENDBRANCH  24  26
ENDBRANCH   3  20
TORSDOF 9
ENDMDL
MODEL 7
REMARK VINA RESULT:      -7.9      2.731      3.801
REMARK  Name = 
REMARK  12 active torsions:
REMARK  status: ('A' for Active; 'I' for Inactive)
REMARK    1  A    between atoms: C_1  and  C_2
REMARK    2  A    between atoms: C_2  and  O_3
REMARK    3  A    between atoms: C_2  and  C_4
REMARK    4  A    between atoms: C_4  and  N_5
REMARK    5  A    between atoms: C_6  and  C_8
REMARK    6  A    between atoms: C_12  and  C_13
REMARK    7  A    between atoms: N_15  and  C_16
REMARK    8  A    between atoms: C_20  and  C_21
REMARK    9  A    between atoms: C_21  and  C_22
REMARK   10  A    between atoms: C_21  and  S_23
REMARK   11  A    between atoms: S_23  and  C_24
REMARK   12  A    between atoms: N_28  and  C_29
REMARK                            x       y       z     vdW  Elec       q    Type
REMARK                         _______ _______ _______ _____ _____    ______ ____
ROOT
ATOM      1  C   UNL     1       3.058   7.195  18.401  0.00  0.00    +0.000 C 
ATOM      2  O   UNL     1       3.386   8.254  17.876  0.00  0.00    +0.000 OA
ATOM      3  N   UNL     1       2.251   7.042  19.515  0.00  0.00    +0.000 N 
ATOM      4  H   UNL     1       2.192   6.097  19.884  0.00  0.00    +0.000 HD
ENDROOT
BRANCH   1   9
ATOM      5  C   UNL     1       5.086   4.844  16.314  0.00  0.00    +0.000 A 
ATOM      6  C   UNL     1       4.595   3.619  16.764  0.00  0.00    +0.000 A 
ATOM      7  C   UNL     1       3.632   3.626  17.762  0.00  0.00    +0.000 A 
ATOM      8  N   UNL     1       3.132   4.750  18.327  0.00  0.00    +0.000 NA
ATOM      9  C   UNL     1       3.607   5.927  17.836  0.00  0.00    +0.000 A 
ATOM     10  C   UNL     1       4.570   6.021  16.841  0.00  0.00    +0.000 A 
BRANCH   5  12
ATOM     11  N   UNL     1       5.821   4.196  14.092  0.00  0.00    +0.000 N 
ATOM     12  C   UNL     1       6.122   4.876  15.252  0.00  0.00    +0.000 C 
ATOM     13  O   UNL     1       7.160   5.501  15.425  0.00  0.00    +0.000 OA
ATOM     14  H   UNL     1       4.862   3.931  13.894  0.00  0.00    +0.000 HD
BRANCH  11  15
ATOM     15  C   UNL     1       6.735   4.181  12.965  0.00  0.00    +0.000 C 
BRANCH  15  17
ATOM     16  C   UNL     1       4.646   3.255  11.881  0.00  0.00    +0.000 C 
ATOM     17  C   UNL     1       6.162   3.360  11.802  0.00  0.00    +0.000 C 
BRANCH  17  18
ATOM     18  O   UNL     1       6.728   2.044  11.821  0.00  0.00    +0.000 OA
ATOM     19  H   UNL     1       6.396   1.567  11.041  0.00  0.00    +0.000 HD
ENDBRANCH  17  18
ENDBRANCH  15  17
ENDBRANCH  11  15
ENDBRANCH   5  12
ENDBRANCH   1   9
BRANCH   3  20
ATOM     20  C   UNL     1       1.613   8.085  20.219  0.00  0.00    +0.000 A 
ATOM     21  C   UNL     1       1.568   8.139  21.614  0.00  0.00    +0.000 A 
ATOM     22  C   UNL     1       0.912   9.179  22.270  0.00  0.00    +0.000 A 
ATOM     23  C   UNL     1       0.282  10.175  21.534  0.00  0.00    +0.000 A 
ATOM     24  C   UNL     1       0.305  10.151  20.131  0.00  0.00    +0.000 A 
ATOM     25  C   UNL     1       0.998   9.107  19.483  0.00  0.00    +0.000 A 
BRANCH  24  26
ATOM     26  C   UNL     1      -0.451  11.228  19.371  0.00  0.00    +0.000 C 
ATOM     27  C   UNL     1      -1.191  10.623  18.174  0.00  0.00    +0.000 C 
BRANCH  26  28
ATOM     28  S   UNL     1       0.618  12.576  18.765  0.00  0.00    +0.000 S 
BRANCH  28  29
ATOM     29  C   UNL     1       0.950  13.442  20.219  0.00  0.00    +0.000 A 
ATOM     30  N   UNL     1       2.007  13.348  20.993  0.00  0.00    +0.000 NA
ATOM     31  N   UNL     1       1.856  14.261  22.017  0.00  0.00    +0.000 NA
ATOM     32  C   UNL     1       0.705  14.871  21.840  0.00  0.00    +0.000 A 
ATOM     33  N   UNL     1       0.089  14.366  20.735  0.00  0.00    +0.000 N 
ATOM     34  C   UNL     1      -1.204  14.747  20.233  0.00  0.00    +0.000 C 
ENDBRANCH  28  29
ENDBRANCH  26  28
ENDBRANCH  24  26
ENDBRANCH   3  20
TORSDOF 9
ENDMDL
MODEL 8
REMARK VINA RESULT:      -7.9      2.823      3.832
REMARK  Name = 
REMARK  12 active torsions:
REMARK  status: ('A' for Active; 'I' for Inactive)
REMARK    1  A    between atoms: C_1  and  C_2
REMARK    2  A    between atoms: C_2  and  O_3
REMARK    3  A    between atoms: C_2  and  C_4
REMARK    4  A    between atoms: C_4  and  N_5
REMARK    5  A    between atoms: C_6  and  C_8
REMARK    6  A    between atoms: C_12  and  C_13
REMARK    7  A    between atoms: N_15  and  C_16
REMARK    8  A    between atoms: C_20  and  C_21
REMARK    9  A    between atoms: C_21  and  C_22
REMARK   10  A    between atoms: C_21  and  S_23
REMARK   11  A    between atoms: S_23  and  C_24
REMARK   12  A    between atoms: N_28  and  C_29
REMARK                            x       y       z     vdW  Elec       q    Type
REMARK                         _______ _______ _______ _____ _____    ______ ____
ROOT
ATOM      1  C   UNL     1       1.771   8.793  18.355  0.00  0.00    +0.000 C 
ATOM      2  O   UNL     1       2.089   9.463  17.378  0.00  0.00    +0.000 OA
ATOM      3  N   UNL     1       0.777   9.090  19.271  0.00  0.00    +0.000 N 
ATOM      4  H   UNL     1       0.740   8.484  20.086  0.00  0.00    +0.000 HD
ENDROOT
BRANCH   1   9
ATOM      5  C   UNL     1       4.314   6.067  18.048  0.00  0.00    +0.000 A 
ATOM      6  C   UNL     1       3.952   5.260  19.126  0.00  0.00    +0.000 A 
ATOM      7  C   UNL     1       2.897   5.671  19.926  0.00  0.00    +0.000 A 
ATOM      8  N   UNL     1       2.189   6.808  19.724  0.00  0.00    +0.000 NA
ATOM      9  C   UNL     1       2.547   7.549  18.641  0.00  0.00    +0.000 A 
ATOM     10  C   UNL     1       3.588   7.221  17.784  0.00  0.00    +0.000 A 
BRANCH   5  12
ATOM     11  N   UNL     1       5.342   4.417  16.591  0.00  0.00    +0.000 N 
ATOM     12  C   UNL     1       5.443   5.662  17.173  0.00  0.00    +0.000 C 
ATOM     13  O   UNL     1       6.380   6.428  16.986  0.00  0.00    +0.000 OA
ATOM     14  H   UNL     1       4.445   3.944  16.558  0.00  0.00    +0.000 HD
BRANCH  11  15
ATOM     15  C   UNL     1       6.363   3.919  15.688  0.00  0.00    +0.000 C 
BRANCH  15  17
ATOM     16  C   UNL     1       6.249   3.749  13.167  0.00  0.00    +0.000 C 
ATOM     17  C   UNL     1       6.346   4.688  14.360  0.00  0.00    +0.000 C 
BRANCH  17  18
ATOM     18  O   UNL     1       7.540   5.473  14.248  0.00  0.00    +0.000 OA
ATOM     19  H   UNL     1       8.076   5.311  15.044  0.00  0.00    +0.000 HD
ENDBRANCH  17  18
ENDBRANCH  15  17
ENDBRANCH  11  15
ENDBRANCH   5  12
ENDBRANCH   1   9
BRANCH   3  20
ATOM     20  C   UNL     1      -0.091  10.200  19.213  0.00  0.00    +0.000 A 
ATOM     21  C   UNL     1      -0.978  10.412  18.155  0.00  0.00    +0.000 A 
ATOM     22  C   UNL     1      -1.807  11.532  18.128  0.00  0.00    +0.000 A 
ATOM     23  C   UNL     1      -1.750  12.462  19.159  0.00  0.00    +0.000 A 
ATOM     24  C   UNL     1      -0.869  12.282  20.236  0.00  0.00    +0.000 A 
ATOM     25  C   UNL     1      -0.057  11.129  20.262  0.00  0.00    +0.000 A 
BRANCH  24  26
ATOM     26  C   UNL     1      -0.798  13.358  21.307  0.00  0.00    +0.000 C 
ATOM     27  C   UNL     1       0.603  13.973  21.360  0.00  0.00    +0.000 C 
BRANCH  26  28
ATOM     28  S   UNL     1      -1.224  12.752  22.975  0.00  0.00    +0.000 S 
BRANCH  28  29
ATOM     29  C   UNL     1      -2.933  12.981  23.006  0.00  0.00    +0.000 A 
ATOM     30  N   UNL     1      -3.862  12.213  22.484  0.00  0.00    +0.000 NA
ATOM     31  N   UNL     1      -5.086  12.770  22.794  0.00  0.00    +0.000 NA
ATOM     32  C   UNL     1      -4.861  13.867  23.483  0.00  0.00    +0.000 A 
ATOM     33  N   UNL     1      -3.518  14.053  23.615  0.00  0.00    +0.000 N 
ATOM     34  C   UNL     1      -2.872  15.159  24.270  0.00  0.00    +0.000 C 
ENDBRANCH  28  29
ENDBRANCH  26  28
ENDBRANCH  24  26
ENDBRANCH   3  20
TORSDOF 9
ENDMDL
MODEL 9
REMARK VINA RESULT:      -7.9      2.340      3.440
REMARK  Name = 
REMARK  12 active torsions:
REMARK  status: ('A' for Active; 'I' for Inactive)
REMARK    1  A    between atoms: C_1  and  C_2
REMARK    2  A    between atoms: C_2  and  O_3
REMARK    3  A    between atoms: C_2  and  C_4
REMARK    4  A    between atoms: C_4  and  N_5
REMARK    5  A    between atoms: C_6  and  C_8
REMARK    6  A    between atoms: C_12  and  C_13
REMARK    7  A    between atoms: N_15  and  C_16
REMARK    8  A    between atoms: C_20  and  C_21
REMARK    9  A    between atoms: C_21  and  C_22
REMARK   10  A    between atoms: C_21  and  S_23
REMARK   11  A    between atoms: S_23  and  C_24
REMARK   12  A    between atoms: N_28  and  C_29
REMARK                            x       y       z     vdW  Elec       q    Type
REMARK                         _______ _______ _______ _____ _____    ______ ____
ROOT
ATOM      1  C   UNL     1       2.020   8.570  18.223  0.00  0.00    +0.000 C 
ATOM      2  O   UNL     1       2.437   9.105  17.201  0.00  0.00    +0.000 OA
ATOM      3  N   UNL     1       1.032   9.055  19.062  0.00  0.00    +0.000 N 
ATOM      4  H   UNL     1       0.906   8.541  19.930  0.00  0.00    +0.000 HD
ENDROOT
BRANCH   1   9
ATOM      5  C   UNL     1       4.253   5.570  18.270  0.00  0.00    +0.000 A 
ATOM      6  C   UNL     1       3.797   4.933  19.424  0.00  0.00    +0.000 A 
ATOM      7  C   UNL     1       2.787   5.542  20.152  0.00  0.00    +0.000 A 
ATOM      8  N   UNL     1       2.209   6.719  19.812  0.00  0.00    +0.000 NA
ATOM      9  C   UNL     1       2.653   7.291  18.660  0.00  0.00    +0.000 A 
ATOM     10  C   UNL     1       3.659   6.758  17.865  0.00  0.00    +0.000 A 
BRANCH   5  12
ATOM     11  N   UNL     1       4.943   4.276  16.334  0.00  0.00    +0.000 N 
ATOM     12  C   UNL     1       5.338   4.951  17.468  0.00  0.00    +0.000 C 
ATOM     13  O   UNL     1       6.506   5.075  17.815  0.00  0.00    +0.000 OA
ATOM     14  H   UNL     1       4.016   4.428  15.950  0.00  0.00    +0.000 HD
BRANCH  11  15
ATOM     15  C   UNL     1       5.910   3.657  15.446  0.00  0.00    +0.000 C 
BRANCH  15  17
ATOM     16  C   UNL     1       6.566   3.932  13.020  0.00  0.00    +0.000 C 
ATOM     17  C   UNL     1       6.361   4.635  14.353  0.00  0.00    +0.000 C 
BRANCH  17  18
ATOM     18  O   UNL     1       7.585   5.264  14.751  0.00  0.00    +0.000 OA
ATOM     19  H   UNL     1       8.108   4.608  15.245  0.00  0.00    +0.000 HD
ENDBRANCH  17  18
ENDBRANCH  15  17
ENDBRANCH  11  15
ENDBRANCH   5  12
ENDBRANCH   1   9
BRANCH   3  20
ATOM     20  C   UNL     1       0.285  10.235  18.860  0.00  0.00    +0.000 A 
ATOM     21  C   UNL     1      -0.897  10.263  18.116  0.00  0.00    +0.000 A 
ATOM     22  C   UNL     1      -1.595  11.454  17.927  0.00  0.00    +0.000 A 
ATOM     23  C   UNL     1      -1.111  12.637  18.474  0.00  0.00    +0.000 A 
ATOM     24  C   UNL     1       0.074  12.644  19.224  0.00  0.00    +0.000 A 
ATOM     25  C   UNL     1       0.754  11.426  19.430  0.00  0.00    +0.000 A 
BRANCH  24  26
ATOM     26  C   UNL     1       0.596  13.973  19.748  0.00  0.00    +0.000 C 
ATOM     27  C   UNL     1       1.995  13.802  20.348  0.00  0.00    +0.000 C 
BRANCH  26  28
ATOM     28  S   UNL     1      -0.482  14.730  21.009  0.00  0.00    +0.000 S 
BRANCH  28  29
ATOM     29  C   UNL     1      -0.971  13.353  21.926  0.00  0.00    +0.000 A 
ATOM     30  N   UNL     1      -0.223  12.570  22.669  0.00  0.00    +0.000 NA
ATOM     31  N   UNL     1      -1.051  11.627  23.245  0.00  0.00    +0.000 NA
ATOM     32  C   UNL     1      -2.274  11.861  22.822  0.00  0.00    +0.000 A 
ATOM     33  N   UNL     1      -2.265  12.921  21.967  0.00  0.00    +0.000 N 
ATOM     34  C   UNL     1      -3.399  13.460  21.267  0.00  0.00    +0.000 C 
ENDBRANCH  28  29
ENDBRANCH  26  28
ENDBRANCH  24  26
ENDBRANCH   3  20
TORSDOF 9
ENDMDL
