MODEL 1
REMARK VINA RESULT:      -9.3      0.000      0.000
REMARK  Name = 
REMARK  9 active torsions:
REMARK  status: ('A' for Active; 'I' for Inactive)
REMARK    1  A    between atoms: C_1  and  N_2
REMARK    2  A    between atoms: C_6  and  C_7
REMARK    3  A    between atoms: C_7  and  C_8
REMARK    4  A    between atoms: C_8  and  C_9
REMARK    5  A    between atoms: C_13  and  N_14
REMARK    6  A    between atoms: C_15  and  C_17
REMARK    7  A    between atoms: C_19  and  C_20
REMARK    8  A    between atoms: C_20  and  N_21
REMARK    9  A    between atoms: C_29  and  C_30
REMARK                            x       y       z     vdW  Elec       q    Type
REMARK                         _______ _______ _______ _____ _____    ______ ____
ROOT
ATOM      1  N   UNL     1       2.021   8.031  19.544  0.00  0.00    +0.000 N 
ATOM      2  C   UNL     1       2.519   8.132  18.257  0.00  0.00    +0.000 C 
ATOM      3  O   UNL     1       2.287   9.021  17.447  0.00  0.00    +0.000 OA
ATOM      4  H   UNL     1       2.217   7.142  20.003  0.00  0.00    +0.000 HD
ENDROOT
BRANCH   1   9
ATOM      5  C   UNL     1      -0.638  10.614  19.773  0.00  0.00    +0.000 A 
ATOM      6  C   UNL     1      -0.637  10.839  21.163  0.00  0.00    +0.000 A 
ATOM      7  C   UNL     1       0.199  10.129  22.022  0.00  0.00    +0.000 A 
ATOM      8  C   UNL     1       1.079   9.182  21.505  0.00  0.00    +0.000 A 
ATOM      9  C   UNL     1       1.111   8.920  20.139  0.00  0.00    +0.000 A 
ATOM     10  C   UNL     1       0.225   9.597  19.297  0.00  0.00    +0.000 A 
BRANCH   5  11
ATOM     11  C   UNL     1      -1.519  11.499  18.768  0.00  0.00    +0.000 C 
ATOM     12  C   UNL     1      -2.884  12.016  19.307  0.00  0.00    +0.000 C 
ATOM     13  O   UNL     1      -3.629  11.292  18.307  0.00  0.00    +0.000 OA
ATOM     14  C   UNL     1      -2.425  10.709  17.776  0.00  0.00    +0.000 C 
BRANCH  11  15
ATOM     15  C   UNL     1      -0.648  12.508  18.003  0.00  0.00    +0.000 C 
BRANCH  15  21
ATOM     16  C   UNL     1       2.525  12.437  18.213  0.00  0.00    +0.000 C 
ATOM     17  N   UNL     1       1.620  13.351  18.853  0.00  0.00    +0.000 N 
ATOM     18  C   UNL     1       1.997  14.428  19.596  0.00  0.00    +0.000 A 
ATOM     19  N   UNL     1       0.935  15.037  20.063  0.00  0.00    +0.000 NA
ATOM     20  N   UNL     1      -0.165  14.364  19.594  0.00  0.00    +0.000 NA
ATOM     21  C   UNL     1       0.244  13.366  18.835  0.00  0.00    +0.000 A 
ENDBRANCH  15  21
ENDBRANCH  11  15
ENDBRANCH   5  11
ENDBRANCH   1   9
BRANCH   2  22
ATOM     22  C   UNL     1       3.382   6.979  17.851  0.00  0.00    +0.000 A 
ATOM     23  C   UNL     1       2.786   5.752  17.613  0.00  0.00    +0.000 A 
ATOM     24  C   UNL     1       3.595   4.671  17.273  0.00  0.00    +0.000 A 
ATOM     25  C   UNL     1       4.972   4.893  17.157  0.00  0.00    +0.000 A 
ATOM     26  C   UNL     1       5.504   6.171  17.379  0.00  0.00    +0.000 A 
ATOM     27  N   UNL     1       4.715   7.212  17.752  0.00  0.00    +0.000 NA
BRANCH  26  28
ATOM     28  C   UNL     1       6.980   6.446  17.199  0.00  0.00    +0.000 C 
ATOM     29  C   UNL     1       7.569   7.790  17.562  0.00  0.00    +0.000 C 
ATOM     30  C   UNL     1       7.846   6.602  18.433  0.00  0.00    +0.000 C 
ENDBRANCH  26  28
BRANCH  24  31
ATOM     31  C   UNL     1       2.966   3.319  17.025  0.00  0.00    +0.000 C 
BRANCH  31  32
ATOM     32  N   UNL     1       2.416   2.658  18.219  0.00  0.00    +0.000 NA
ATOM     33  C   UNL     1       0.996   3.026  18.383  0.00  0.00    +0.000 C 
ATOM     34  C   UNL     1       0.712   2.932  19.874  0.00  0.00    +0.000 C 
ATOM     35  C   UNL     1       2.032   3.278  20.477  0.00  0.00    +0.000 C 
ATOM     36  C   UNL     1       2.272   3.067  21.956  0.00  0.00    +0.000 C 
ATOM     37  C   UNL     1       2.169   4.462  21.415  0.00  0.00    +0.000 C 
ATOM     38  C   UNL     1       3.116   3.013  19.468  0.00  0.00    +0.000 C 
ENDBRANCH  31  32
ENDBRANCH  24  31
ENDBRANCH   2  22
TORSDOF 8
ENDMDL
MODEL 2
REMARK VINA RESULT:      -9.3      1.097      1.384
REMARK  Name = 
REMARK  9 active torsions:
REMARK  status: ('A' for Active; 'I' for Inactive)
REMARK    1  A    between atoms: C_1  and  N_2
REMARK    2  A    between atoms: C_6  and  C_7
REMARK    3  A    between atoms: C_7  and  C_8
REMARK    4  A    between atoms: C_8  and  C_9
REMARK    5  A    between atoms: C_13  and  N_14
REMARK    6  A    between atoms: C_15  and  C_17
REMARK    7  A    between atoms: C_19  and  C_20
REMARK    8  A    between atoms: C_20  and  N_21
REMARK    9  A    between atoms: C_29  and  C_30
REMARK                            x       y       z     vdW  Elec       q    Type
REMARK                         _______ _______ _______ _____ _____    ______ ____
ROOT
ATOM      1  N   UNL     1       2.200   7.685  19.752  0.00  0.00    +0.000 N 
ATOM      2  C   UNL     1       2.546   7.768  18.415  0.00  0.00    +0.000 C 
ATOM      3  O   UNL     1       2.146   8.594  17.602  0.00  0.00    +0.000 OA
ATOM      4  H   UNL     1       2.525   6.840  20.220  0.00  0.00    +0.000 HD
ENDROOT
BRANCH   1   9
ATOM      5  C   UNL     1       0.099  10.678  20.402  0.00  0.00    +0.000 A 
ATOM      6  C   UNL     1      -0.407  10.346  21.673  0.00  0.00    +0.000 A 
ATOM      7  C   UNL     1      -0.093   9.142  22.298  0.00  0.00    +0.000 A 
ATOM      8  C   UNL     1       0.760   8.239  21.670  0.00  0.00    +0.000 A 
ATOM      9  C   UNL     1       1.281   8.518  20.410  0.00  0.00    +0.000 A 
ATOM     10  C   UNL     1       0.909   9.704  19.770  0.00  0.00    +0.000 A 
BRANCH   5  11
ATOM     11  C   UNL     1      -0.172  12.105  19.723  0.00  0.00    +0.000 C 
ATOM     12  C   UNL     1      -1.149  13.058  20.470  0.00  0.00    +0.000 C 
ATOM     13  O   UNL     1      -2.080  13.074  19.368  0.00  0.00    +0.000 OA
ATOM     14  C   UNL     1      -1.276  12.141  18.624  0.00  0.00    +0.000 C 
BRANCH  11  15
ATOM     15  C   UNL     1       1.130  12.725  19.189  0.00  0.00    +0.000 C 
BRANCH  15  21
ATOM     16  C   UNL     1       2.116  15.717  18.741  0.00  0.00    +0.000 C 
ATOM     17  N   UNL     1       2.225  14.921  19.933  0.00  0.00    +0.000 N 
ATOM     18  C   UNL     1       2.694  15.373  21.129  0.00  0.00    +0.000 A 
ATOM     19  N   UNL     1       2.693  14.396  22.002  0.00  0.00    +0.000 NA
ATOM     20  N   UNL     1       2.185  13.285  21.376  0.00  0.00    +0.000 NA
ATOM     21  C   UNL     1       1.870  13.608  20.137  0.00  0.00    +0.000 A 
ENDBRANCH  15  21
ENDBRANCH  11  15
ENDBRANCH   5  11
ENDBRANCH   1   9
BRANCH   2  22
ATOM     22  C   UNL     1       3.463   6.678  17.959  0.00  0.00    +0.000 A 
ATOM     23  C   UNL     1       2.935   5.422  17.713  0.00  0.00    +0.000 A 
ATOM     24  C   UNL     1       3.795   4.399  17.326  0.00  0.00    +0.000 A 
ATOM     25  C   UNL     1       5.152   4.705  17.174  0.00  0.00    +0.000 A 
ATOM     26  C   UNL     1       5.614   6.009  17.408  0.00  0.00    +0.000 A 
ATOM     27  N   UNL     1       4.776   6.992  17.826  0.00  0.00    +0.000 NA
BRANCH  26  28
ATOM     28  C   UNL     1       7.065   6.375  17.191  0.00  0.00    +0.000 C 
ATOM     29  C   UNL     1       7.565   7.771  17.483  0.00  0.00    +0.000 C 
ATOM     30  C   UNL     1       7.935   6.647  18.401  0.00  0.00    +0.000 C 
ENDBRANCH  26  28
BRANCH  24  31
ATOM     31  C   UNL     1       3.240   3.016  17.068  0.00  0.00    +0.000 C 
BRANCH  31  32
ATOM     32  N   UNL     1       2.563   2.391  18.214  0.00  0.00    +0.000 NA
ATOM     33  C   UNL     1       1.159   2.842  18.269  0.00  0.00    +0.000 C 
ATOM     34  C   UNL     1       0.756   2.768  19.734  0.00  0.00    +0.000 C 
ATOM     35  C   UNL     1       2.044   3.037  20.438  0.00  0.00    +0.000 C 
ATOM     36  C   UNL     1       2.157   2.816  21.930  0.00  0.00    +0.000 C 
ATOM     37  C   UNL     1       2.178   4.213  21.387  0.00  0.00    +0.000 C 
ATOM     38  C   UNL     1       3.185   2.707  19.514  0.00  0.00    +0.000 C 
ENDBRANCH  31  32
ENDBRANCH  24  31
ENDBRANCH   2  22
TORSDOF 8
ENDMDL
MODEL 3
REMARK VINA RESULT:      -9.3      1.811      2.718
REMARK  Name = 
REMARK  9 active torsions:
REMARK  status: ('A' for Active; 'I' for Inactive)
REMARK    1  A    between atoms: C_1  and  N_2
REMARK    2  A    between atoms: C_6  and  C_7
REMARK    3  A    between atoms: C_7  and  C_8
REMARK    4  A    between atoms: C_8  and  C_9
REMARK    5  A    between atoms: C_13  and  N_14
REMARK    6  A    between atoms: C_15  and  C_17
REMARK    7  A    between atoms: C_19  and  C_20
REMARK    8  A    between atoms: C_20  and  N_21
REMARK    9  A    between atoms: C_29  and  C_30
REMARK                            x       y       z     vdW  Elec       q    Type
REMARK                         _______ _______ _______ _____ _____    ______ ____
ROOT
ATOM      1  N   UNL     1       2.199   7.682  19.732  0.00  0.00    +0.000 N 
ATOM      2  C   UNL     1       2.531   7.741  18.390  0.00  0.00    +0.000 C 
ATOM      3  O   UNL     1       2.108   8.539  17.562  0.00  0.00    +0.000 OA
ATOM      4  H   UNL     1       2.545   6.855  20.216  0.00  0.00    +0.000 HD
ENDROOT
BRANCH   1   9
ATOM      5  C   UNL     1       0.360  10.790  20.602  0.00  0.00    +0.000 A 
ATOM      6  C   UNL     1      -0.413  10.318  21.680  0.00  0.00    +0.000 A 
ATOM      7  C   UNL     1      -0.362   8.991  22.098  0.00  0.00    +0.000 A 
ATOM      8  C   UNL     1       0.490   8.097  21.454  0.00  0.00    +0.000 A 
ATOM      9  C   UNL     1       1.270   8.512  20.379  0.00  0.00    +0.000 A 
ATOM     10  C   UNL     1       1.162   9.833  19.934  0.00  0.00    +0.000 A 
BRANCH   5  11
ATOM     11  C   UNL     1       0.385  12.337  20.184  0.00  0.00    +0.000 C 
ATOM     12  C   UNL     1       1.710  13.109  20.447  0.00  0.00    +0.000 C 
ATOM     13  O   UNL     1       1.072  14.026  21.359  0.00  0.00    +0.000 OA
ATOM     14  C   UNL     1      -0.186  13.339  21.232  0.00  0.00    +0.000 C 
BRANCH  11  15
ATOM     15  C   UNL     1      -0.287  12.557  18.819  0.00  0.00    +0.000 C 
BRANCH  15  21
ATOM     16  C   UNL     1      -3.283  12.591  19.889  0.00  0.00    +0.000 C 
ATOM     17  N   UNL     1      -2.705  11.708  18.913  0.00  0.00    +0.000 N 
ATOM     18  C   UNL     1      -3.398  10.781  18.196  0.00  0.00    +0.000 A 
ATOM     19  N   UNL     1      -2.577  10.122  17.416  0.00  0.00    +0.000 NA
ATOM     20  N   UNL     1      -1.322  10.645  17.603  0.00  0.00    +0.000 NA
ATOM     21  C   UNL     1      -1.401  11.625  18.480  0.00  0.00    +0.000 A 
ENDBRANCH  15  21
ENDBRANCH  11  15
ENDBRANCH   5  11
ENDBRANCH   1   9
BRANCH   2  22
ATOM     22  C   UNL     1       3.465   6.658  17.951  0.00  0.00    +0.000 A 
ATOM     23  C   UNL     1       2.956   5.392  17.720  0.00  0.00    +0.000 A 
ATOM     24  C   UNL     1       3.832   4.376  17.349  0.00  0.00    +0.000 A 
ATOM     25  C   UNL     1       5.185   4.700  17.197  0.00  0.00    +0.000 A 
ATOM     26  C   UNL     1       5.627   6.013  17.414  0.00  0.00    +0.000 A 
ATOM     27  N   UNL     1       4.774   6.989  17.817  0.00  0.00    +0.000 NA
BRANCH  26  28
ATOM     28  C   UNL     1       7.073   6.397  17.197  0.00  0.00    +0.000 C 
ATOM     29  C   UNL     1       7.560   7.795  17.507  0.00  0.00    +0.000 C 
ATOM     30  C   UNL     1       7.946   6.661  18.407  0.00  0.00    +0.000 C 
ENDBRANCH  26  28
BRANCH  24  31
ATOM     31  C   UNL     1       3.298   2.982  17.107  0.00  0.00    +0.000 C 
BRANCH  31  32
ATOM     32  N   UNL     1       2.591   2.378  18.247  0.00  0.00    +0.000 NA
ATOM     33  C   UNL     1       1.191   2.846  18.269  0.00  0.00    +0.000 C 
ATOM     34  C   UNL     1       0.758   2.794  19.726  0.00  0.00    +0.000 C 
ATOM     35  C   UNL     1       2.035   3.056  20.452  0.00  0.00    +0.000 C 
ATOM     36  C   UNL     1       2.116   2.851  21.949  0.00  0.00    +0.000 C 
ATOM     37  C   UNL     1       2.164   4.242  21.390  0.00  0.00    +0.000 C 
ATOM     38  C   UNL     1       3.190   2.702  19.556  0.00  0.00    +0.000 C 
ENDBRANCH  31  32
ENDBRANCH  24  31
ENDBRANCH   2  22
TORSDOF 8
ENDMDL
MODEL 4
REMARK VINA RESULT:      -9.2      2.274      3.331
REMARK  Name = 
REMARK  9 active torsions:
REMARK  status: ('A' for Active; 'I' for Inactive)
REMARK    1  A    between atoms: C_1  and  N_2
REMARK    2  A    between atoms: C_6  and  C_7
REMARK    3  A    between atoms: C_7  and  C_8
REMARK    4  A    between atoms: C_8  and  C_9
REMARK    5  A    between atoms: C_13  and  N_14
REMARK    6  A    between atoms: C_15  and  C_17
REMARK    7  A    between atoms: C_19  and  C_20
REMARK    8  A    between atoms: C_20  and  N_21
REMARK    9  A    between atoms: C_29  and  C_30
REMARK                            x       y       z     vdW  Elec       q    Type
REMARK                         _______ _______ _______ _____ _____    ______ ____
ROOT
ATOM      1  N   UNL     1       1.983   8.491  17.758  0.00  0.00    +0.000 N 
ATOM      2  C   UNL     1       2.424   7.554  18.677  0.00  0.00    +0.000 C 
ATOM      3  O   UNL     1       2.096   7.469  19.854  0.00  0.00    +0.000 OA
ATOM      4  H   UNL     1       2.487   8.482  16.872  0.00  0.00    +0.000 HD
ENDROOT
BRANCH   1   9
ATOM      5  C   UNL     1      -1.152  10.482  17.714  0.00  0.00    +0.000 A 
ATOM      6  C   UNL     1      -0.706  11.649  18.361  0.00  0.00    +0.000 A 
ATOM      7  C   UNL     1       0.596  11.774  18.839  0.00  0.00    +0.000 A 
ATOM      8  C   UNL     1       1.500  10.730  18.661  0.00  0.00    +0.000 A 
ATOM      9  C   UNL     1       1.106   9.553  18.032  0.00  0.00    +0.000 A 
ATOM     10  C   UNL     1      -0.220   9.420  17.612  0.00  0.00    +0.000 A 
BRANCH   5  11
ATOM     11  C   UNL     1      -2.615  10.372  17.069  0.00  0.00    +0.000 C 
ATOM     12  C   UNL     1      -2.734   9.568  15.741  0.00  0.00    +0.000 C 
ATOM     13  O   UNL     1      -3.195  10.720  15.008  0.00  0.00    +0.000 OA
ATOM     14  C   UNL     1      -3.057  11.563  16.166  0.00  0.00    +0.000 C 
BRANCH  11  15
ATOM     15  C   UNL     1      -3.680  10.097  18.143  0.00  0.00    +0.000 C 
BRANCH  15  21
ATOM     16  C   UNL     1      -3.817  12.614  20.084  0.00  0.00    +0.000 C 
ATOM     17  N   UNL     1      -4.761  12.229  19.071  0.00  0.00    +0.000 N 
ATOM     18  C   UNL     1      -5.849  12.962  18.703  0.00  0.00    +0.000 A 
ATOM     19  N   UNL     1      -6.519  12.322  17.777  0.00  0.00    +0.000 NA
ATOM     20  N   UNL     1      -5.844  11.157  17.509  0.00  0.00    +0.000 NA
ATOM     21  C   UNL     1      -4.764  11.115  18.264  0.00  0.00    +0.000 A 
ENDBRANCH  15  21
ENDBRANCH  11  15
ENDBRANCH   5  11
ENDBRANCH   1   9
BRANCH   2  22
ATOM     22  C   UNL     1       3.445   6.608  18.131  0.00  0.00    +0.000 A 
ATOM     23  C   UNL     1       3.070   5.301  17.870  0.00  0.00    +0.000 A 
ATOM     24  C   UNL     1       4.031   4.411  17.399  0.00  0.00    +0.000 A 
ATOM     25  C   UNL     1       5.325   4.898  17.181  0.00  0.00    +0.000 A 
ATOM     26  C   UNL     1       5.627   6.244  17.435  0.00  0.00    +0.000 A 
ATOM     27  N   UNL     1       4.695   7.096  17.935  0.00  0.00    +0.000 NA
BRANCH  26  28
ATOM     28  C   UNL     1       7.002   6.804  17.149  0.00  0.00    +0.000 C 
ATOM     29  C   UNL     1       7.396   8.180  17.637  0.00  0.00    +0.000 C 
ATOM     30  C   UNL     1       7.975   6.966  18.299  0.00  0.00    +0.000 C 
ENDBRANCH  26  28
BRANCH  24  31
ATOM     31  C   UNL     1       3.646   2.975  17.123  0.00  0.00    +0.000 C 
BRANCH  31  32
ATOM     32  N   UNL     1       2.894   2.313  18.199  0.00  0.00    +0.000 NA
ATOM     33  C   UNL     1       1.472   2.701  18.124  0.00  0.00    +0.000 C 
ATOM     34  C   UNL     1       0.938   2.599  19.545  0.00  0.00    +0.000 C 
ATOM     35  C   UNL     1       2.141   2.920  20.367  0.00  0.00    +0.000 C 
ATOM     36  C   UNL     1       2.125   2.694  21.862  0.00  0.00    +0.000 C 
ATOM     37  C   UNL     1       2.134   4.095  21.327  0.00  0.00    +0.000 C 
ATOM     38  C   UNL     1       3.377   2.647  19.553  0.00  0.00    +0.000 C 
ENDBRANCH  31  32
ENDBRANCH  24  31
ENDBRANCH   2  22
TORSDOF 8
ENDMDL
MODEL 5
REMARK VINA RESULT:      -9.1      1.819      2.733
REMARK  Name = 
REMARK  9 active torsions:
REMARK  status: ('A' for Active; 'I' for Inactive)
REMARK    1  A    between atoms: C_1  and  N_2
REMARK    2  A    between atoms: C_6  and  C_7
REMARK    3  A    between atoms: C_7  and  C_8
REMARK    4  A    between atoms: C_8  and  C_9
REMARK    5  A    between atoms: C_13  and  N_14
REMARK    6  A    between atoms: C_15  and  C_17
REMARK    7  A    between atoms: C_19  and  C_20
REMARK    8  A    between atoms: C_20  and  N_21
REMARK    9  A    between atoms: C_29  and  C_30
REMARK                            x       y       z     vdW  Elec       q    Type
REMARK                         _______ _______ _______ _____ _____    ______ ____
ROOT
ATOM      1  N   UNL     1       2.177   7.824  19.595  0.00  0.00    +0.000 N 
ATOM      2  C   UNL     1       2.594   7.876  18.277  0.00  0.00    +0.000 C 
ATOM      3  O   UNL     1       2.261   8.698  17.432  0.00  0.00    +0.000 OA
ATOM      4  H   UNL     1       2.453   6.979  20.092  0.00  0.00    +0.000 HD
ENDROOT
BRANCH   1   9
ATOM      5  C   UNL     1      -0.176  10.682  19.907  0.00  0.00    +0.000 A 
ATOM      6  C   UNL     1      -0.487  10.590  21.277  0.00  0.00    +0.000 A 
ATOM      7  C   UNL     1       0.038   9.584  22.085  0.00  0.00    +0.000 A 
ATOM      8  C   UNL     1       0.914   8.648  21.541  0.00  0.00    +0.000 A 
ATOM      9  C   UNL     1       1.247   8.693  20.191  0.00  0.00    +0.000 A 
ATOM     10  C   UNL     1       0.666   9.672  19.381  0.00  0.00    +0.000 A 
BRANCH   5  11
ATOM     11  C   UNL     1      -0.692  11.895  18.996  0.00  0.00    +0.000 C 
ATOM     12  C   UNL     1       0.295  13.082  18.790  0.00  0.00    +0.000 C 
ATOM     13  O   UNL     1      -0.597  14.020  19.424  0.00  0.00    +0.000 OA
ATOM     14  C   UNL     1      -1.546  12.980  19.719  0.00  0.00    +0.000 C 
BRANCH  11  15
ATOM     15  C   UNL     1      -1.430  11.383  17.749  0.00  0.00    +0.000 C 
BRANCH  15  21
ATOM     16  C   UNL     1      -3.487  10.943  15.362  0.00  0.00    +0.000 C 
ATOM     17  N   UNL     1      -3.783  11.241  16.737  0.00  0.00    +0.000 N 
ATOM     18  C   UNL     1      -5.034  11.285  17.272  0.00  0.00    +0.000 A 
ATOM     19  N   UNL     1      -4.961  11.612  18.539  0.00  0.00    +0.000 NA
ATOM     20  N   UNL     1      -3.633  11.759  18.851  0.00  0.00    +0.000 NA
ATOM     21  C   UNL     1      -2.917  11.502  17.774  0.00  0.00    +0.000 A 
ENDBRANCH  15  21
ENDBRANCH  11  15
ENDBRANCH   5  11
ENDBRANCH   1   9
BRANCH   2  22
ATOM     22  C   UNL     1       3.503   6.754  17.888  0.00  0.00    +0.000 A 
ATOM     23  C   UNL     1       2.957   5.503  17.657  0.00  0.00    +0.000 A 
ATOM     24  C   UNL     1       3.809   4.451  17.332  0.00  0.00    +0.000 A 
ATOM     25  C   UNL     1       5.177   4.724  17.223  0.00  0.00    +0.000 A 
ATOM     26  C   UNL     1       5.658   6.024  17.436  0.00  0.00    +0.000 A 
ATOM     27  N   UNL     1       4.827   7.036  17.794  0.00  0.00    +0.000 NA
BRANCH  26  28
ATOM     28  C   UNL     1       7.124   6.353  17.264  0.00  0.00    +0.000 C 
ATOM     29  C   UNL     1       7.647   7.741  17.557  0.00  0.00    +0.000 C 
ATOM     30  C   UNL     1       7.960   6.618  18.499  0.00  0.00    +0.000 C 
ENDBRANCH  26  28
BRANCH  24  31
ATOM     31  C   UNL     1       3.234   3.073  17.093  0.00  0.00    +0.000 C 
BRANCH  31  32
ATOM     32  N   UNL     1       2.559   2.469  18.252  0.00  0.00    +0.000 NA
ATOM     33  C   UNL     1       1.154   2.917  18.299  0.00  0.00    +0.000 C 
ATOM     34  C   UNL     1       0.752   2.870  19.766  0.00  0.00    +0.000 C 
ATOM     35  C   UNL     1       2.039   3.156  20.463  0.00  0.00    +0.000 C 
ATOM     36  C   UNL     1       2.154   2.964  21.959  0.00  0.00    +0.000 C 
ATOM     37  C   UNL     1       2.172   4.351  21.389  0.00  0.00    +0.000 C 
ATOM     38  C   UNL     1       3.181   2.810  19.545  0.00  0.00    +0.000 C 
ENDBRANCH  31  32
ENDBRANCH  24  31
ENDBRANCH   2  22
TORSDOF 8
ENDMDL
MODEL 6
REMARK VINA RESULT:      -9.0      1.174      1.694
REMARK  Name = 
REMARK  9 active torsions:
REMARK  status: ('A' for Active; 'I' for Inactive)
REMARK    1  A    between atoms: C_1  and  N_2
REMARK    2  A    between atoms: C_6  and  C_7
REMARK    3  A    between atoms: C_7  and  C_8
REMARK    4  A    between atoms: C_8  and  C_9
REMARK    5  A    between atoms: C_13  and  N_14
REMARK    6  A    between atoms: C_15  and  C_17
REMARK    7  A    between atoms: C_19  and  C_20
REMARK    8  A    between atoms: C_20  and  N_21
REMARK    9  A    between atoms: C_29  and  C_30
REMARK                            x       y       z     vdW  Elec       q    Type
REMARK                         _______ _______ _______ _____ _____    ______ ____
ROOT
ATOM      1  N   UNL     1       2.150   7.715  19.750  0.00  0.00    +0.000 N 
ATOM      2  C   UNL     1       2.415   7.751  18.392  0.00  0.00    +0.000 C 
ATOM      3  O   UNL     1       1.946   8.532  17.572  0.00  0.00    +0.000 OA
ATOM      4  H   UNL     1       2.525   6.899  20.231  0.00  0.00    +0.000 HD
ENDROOT
BRANCH   1   9
ATOM      5  C   UNL     1       0.307  10.819  20.626  0.00  0.00    +0.000 A 
ATOM      6  C   UNL     1      -0.381  10.375  21.772  0.00  0.00    +0.000 A 
ATOM      7  C   UNL     1      -0.273   9.066  22.234  0.00  0.00    +0.000 A 
ATOM      8  C   UNL     1       0.553   8.164  21.568  0.00  0.00    +0.000 A 
ATOM      9  C   UNL     1       1.249   8.552  20.428  0.00  0.00    +0.000 A 
ATOM     10  C   UNL     1       1.083   9.852  19.941  0.00  0.00    +0.000 A 
BRANCH   5  11
ATOM     11  C   UNL     1       0.270  12.348  20.149  0.00  0.00    +0.000 C 
ATOM     12  C   UNL     1      -1.046  13.133  20.424  0.00  0.00    +0.000 C 
ATOM     13  O   UNL     1      -1.284  13.357  19.020  0.00  0.00    +0.000 OA
ATOM     14  C   UNL     1      -0.119  12.592  18.660  0.00  0.00    +0.000 C 
BRANCH  11  15
ATOM     15  C   UNL     1       1.588  13.068  20.478  0.00  0.00    +0.000 C 
BRANCH  15  21
ATOM     16  C   UNL     1       0.966  16.154  20.016  0.00  0.00    +0.000 C 
ATOM     17  N   UNL     1       1.880  15.320  19.285  0.00  0.00    +0.000 N 
ATOM     18  C   UNL     1       2.726  15.758  18.312  0.00  0.00    +0.000 A 
ATOM     19  N   UNL     1       3.403  14.747  17.826  0.00  0.00    +0.000 NA
ATOM     20  N   UNL     1       3.015  13.624  18.512  0.00  0.00    +0.000 NA
ATOM     21  C   UNL     1       2.121  13.971  19.417  0.00  0.00    +0.000 A 
ENDBRANCH  15  21
ENDBRANCH  11  15
ENDBRANCH   5  11
ENDBRANCH   1   9
BRANCH   2  22
ATOM     22  C   UNL     1       3.333   6.665  17.927  0.00  0.00    +0.000 A 
ATOM     23  C   UNL     1       2.811   5.403  17.701  0.00  0.00    +0.000 A 
ATOM     24  C   UNL     1       3.673   4.384  17.306  0.00  0.00    +0.000 A 
ATOM     25  C   UNL     1       5.024   4.702  17.125  0.00  0.00    +0.000 A 
ATOM     26  C   UNL     1       5.479   6.012  17.338  0.00  0.00    +0.000 A 
ATOM     27  N   UNL     1       4.640   6.990  17.765  0.00  0.00    +0.000 NA
BRANCH  26  28
ATOM     28  C   UNL     1       6.921   6.389  17.089  0.00  0.00    +0.000 C 
ATOM     29  C   UNL     1       7.437   7.764  17.451  0.00  0.00    +0.000 C 
ATOM     30  C   UNL     1       7.838   6.582  18.280  0.00  0.00    +0.000 C 
ENDBRANCH  26  28
BRANCH  24  31
ATOM     31  C   UNL     1       3.127   2.994  17.070  0.00  0.00    +0.000 C 
BRANCH  31  32
ATOM     32  N   UNL     1       2.467   2.378  18.231  0.00  0.00    +0.000 NA
ATOM     33  C   UNL     1       1.075   2.859  18.327  0.00  0.00    +0.000 C 
ATOM     34  C   UNL     1       0.711   2.785  19.802  0.00  0.00    +0.000 C 
ATOM     35  C   UNL     1       2.023   3.022  20.472  0.00  0.00    +0.000 C 
ATOM     36  C   UNL     1       2.172   2.789  21.959  0.00  0.00    +0.000 C 
ATOM     37  C   UNL     1       2.209   4.189  21.423  0.00  0.00    +0.000 C 
ATOM     38  C   UNL     1       3.131   2.672  19.515  0.00  0.00    +0.000 C 
ENDBRANCH  31  32
ENDBRANCH  24  31
ENDBRANCH   2  22
TORSDOF 8
ENDMDL
MODEL 7
REMARK VINA RESULT:      -9.0      2.028      2.786
REMARK  Name = 
REMARK  9 active torsions:
REMARK  status: ('A' for Active; 'I' for Inactive)
REMARK    1  A    between atoms: C_1  and  N_2
REMARK    2  A    between atoms: C_6  and  C_7
REMARK    3  A    between atoms: C_7  and  C_8
REMARK    4  A    between atoms: C_8  and  C_9
REMARK    5  A    between atoms: C_13  and  N_14
REMARK    6  A    between atoms: C_15  and  C_17
REMARK    7  A    between atoms: C_19  and  C_20
REMARK    8  A    between atoms: C_20  and  N_21
REMARK    9  A    between atoms: C_29  and  C_30
REMARK                            x       y       z     vdW  Elec       q    Type
REMARK                         _______ _______ _______ _____ _____    ______ ____
ROOT
ATOM      1  N   UNL     1       1.912   8.578  17.727  0.00  0.00    +0.000 N 
ATOM      2  C   UNL     1       2.391   7.687  18.672  0.00  0.00    +0.000 C 
ATOM      3  O   UNL     1       2.159   7.697  19.875  0.00  0.00    +0.000 OA
ATOM      4  H   UNL     1       2.339   8.485  16.807  0.00  0.00    +0.000 HD
ENDROOT
BRANCH   1   9
ATOM      5  C   UNL     1       1.018  12.025  18.783  0.00  0.00    +0.000 A 
ATOM      6  C   UNL     1      -0.385  11.941  18.716  0.00  0.00    +0.000 A 
ATOM      7  C   UNL     1      -1.034  10.782  18.297  0.00  0.00    +0.000 A 
ATOM      8  C   UNL     1      -0.287   9.659  17.951  0.00  0.00    +0.000 A 
ATOM      9  C   UNL     1       1.103   9.694  17.995  0.00  0.00    +0.000 A 
ATOM     10  C   UNL     1       1.740  10.882  18.360  0.00  0.00    +0.000 A 
BRANCH   5  11
ATOM     11  C   UNL     1       1.768  13.317  19.363  0.00  0.00    +0.000 C 
ATOM     12  C   UNL     1       1.889  13.417  20.912  0.00  0.00    +0.000 C 
ATOM     13  O   UNL     1       1.117  14.634  20.960  0.00  0.00    +0.000 OA
ATOM     14  C   UNL     1       0.893  14.595  19.539  0.00  0.00    +0.000 C 
BRANCH  11  15
ATOM     15  C   UNL     1       3.028  13.646  18.546  0.00  0.00    +0.000 C 
BRANCH  15  21
ATOM     16  C   UNL     1       5.081  14.935  20.606  0.00  0.00    +0.000 C 
ATOM     17  N   UNL     1       4.444  15.568  19.484  0.00  0.00    +0.000 N 
ATOM     18  C   UNL     1       4.704  16.833  19.053  0.00  0.00    +0.000 A 
ATOM     19  N   UNL     1       3.937  17.117  18.029  0.00  0.00    +0.000 NA
ATOM     20  N   UNL     1       3.176  16.007  17.764  0.00  0.00    +0.000 NA
ATOM     21  C   UNL     1       3.504  15.058  18.618  0.00  0.00    +0.000 A 
ENDBRANCH  15  21
ENDBRANCH  11  15
ENDBRANCH   5  11
ENDBRANCH   1   9
BRANCH   2  22
ATOM     22  C   UNL     1       3.325   6.660  18.115  0.00  0.00    +0.000 A 
ATOM     23  C   UNL     1       2.837   5.395  17.838  0.00  0.00    +0.000 A 
ATOM     24  C   UNL     1       3.716   4.429  17.356  0.00  0.00    +0.000 A 
ATOM     25  C   UNL     1       5.048   4.802  17.144  0.00  0.00    +0.000 A 
ATOM     26  C   UNL     1       5.467   6.114  17.413  0.00  0.00    +0.000 A 
ATOM     27  N   UNL     1       4.614   7.038  17.924  0.00  0.00    +0.000 NA
BRANCH  26  28
ATOM     28  C   UNL     1       6.886   6.553  17.134  0.00  0.00    +0.000 C 
ATOM     29  C   UNL     1       7.367   7.927  17.543  0.00  0.00    +0.000 C 
ATOM     30  C   UNL     1       7.838   6.723  18.301  0.00  0.00    +0.000 C 
ENDBRANCH  26  28
BRANCH  24  31
ATOM     31  C   UNL     1       3.206   3.036  17.063  0.00  0.00    +0.000 C 
BRANCH  31  32
ATOM     32  N   UNL     1       2.531   2.370  18.187  0.00  0.00    +0.000 NA
ATOM     33  C   UNL     1       1.129   2.826  18.268  0.00  0.00    +0.000 C 
ATOM     34  C   UNL     1       0.733   2.695  19.731  0.00  0.00    +0.000 C 
ATOM     35  C   UNL     1       2.026   2.929  20.438  0.00  0.00    +0.000 C 
ATOM     36  C   UNL     1       2.146   2.648  21.919  0.00  0.00    +0.000 C 
ATOM     37  C   UNL     1       2.172   4.066  21.432  0.00  0.00    +0.000 C 
ATOM     38  C   UNL     1       3.161   2.630  19.496  0.00  0.00    +0.000 C 
ENDBRANCH  31  32
ENDBRANCH  24  31
ENDBRANCH   2  22
TORSDOF 8
ENDMDL
MODEL 8
REMARK VINA RESULT:      -9.0      1.804      2.884
REMARK  Name = 
REMARK  9 active torsions:
REMARK  status: ('A' for Active; 'I' for Inactive)
REMARK    1  A    between atoms: C_1  and  N_2
REMARK    2  A    between atoms: C_6  and  C_7
REMARK    3  A    between atoms: C_7  and  C_8
REMARK    4  A    between atoms: C_8  and  C_9
REMARK    5  A    between atoms: C_13  and  N_14
REMARK    6  A    between atoms: C_15  and  C_17
REMARK    7  A    between atoms: C_19  and  C_20
REMARK    8  A    between atoms: C_20  and  N_21
REMARK    9  A    between atoms: C_29  and  C_30
REMARK                            x       y       z     vdW  Elec       q    Type
REMARK                         _______ _______ _______ _____ _____    ______ ____
ROOT
ATOM      1  N   UNL     1       1.812   8.626  17.658  0.00  0.00    +0.000 N 
ATOM      2  C   UNL     1       2.330   7.771  18.615  0.00  0.00    +0.000 C 
ATOM      3  O   UNL     1       2.108   7.795  19.820  0.00  0.00    +0.000 OA
ATOM      4  H   UNL     1       2.234   8.532  16.736  0.00  0.00    +0.000 HD
ENDROOT
BRANCH   1   9
ATOM      5  C   UNL     1       0.776  12.008  18.793  0.00  0.00    +0.000 A 
ATOM      6  C   UNL     1      -0.616  11.906  18.616  0.00  0.00    +0.000 A 
ATOM      7  C   UNL     1      -1.210  10.757  18.098  0.00  0.00    +0.000 A 
ATOM      8  C   UNL     1      -0.419   9.662  17.761  0.00  0.00    +0.000 A 
ATOM      9  C   UNL     1       0.963   9.716  17.912  0.00  0.00    +0.000 A 
ATOM     10  C   UNL     1       1.549  10.897  18.376  0.00  0.00    +0.000 A 
BRANCH   5  11
ATOM     11  C   UNL     1       1.456  13.284  19.485  0.00  0.00    +0.000 C 
ATOM     12  C   UNL     1       0.999  14.681  18.973  0.00  0.00    +0.000 C 
ATOM     13  O   UNL     1       2.325  15.022  18.519  0.00  0.00    +0.000 OA
ATOM     14  C   UNL     1       2.830  13.729  18.900  0.00  0.00    +0.000 C 
BRANCH  11  15
ATOM     15  C   UNL     1       1.561  13.104  21.008  0.00  0.00    +0.000 C 
BRANCH  15  21
ATOM     16  C   UNL     1       0.232  10.353  21.895  0.00  0.00    +0.000 C 
ATOM     17  N   UNL     1      -0.240  11.685  22.157  0.00  0.00    +0.000 N 
ATOM     18  C   UNL     1      -1.313  11.991  22.937  0.00  0.00    +0.000 A 
ATOM     19  N   UNL     1      -1.496  13.289  22.949  0.00  0.00    +0.000 NA
ATOM     20  N   UNL     1      -0.506  13.851  22.183  0.00  0.00    +0.000 NA
ATOM     21  C   UNL     1       0.274  12.889  21.731  0.00  0.00    +0.000 A 
ENDBRANCH  15  21
ENDBRANCH  11  15
ENDBRANCH   5  11
ENDBRANCH   1   9
BRANCH   2  22
ATOM     22  C   UNL     1       3.297   6.769  18.070  0.00  0.00    +0.000 A 
ATOM     23  C   UNL     1       2.849   5.487  17.801  0.00  0.00    +0.000 A 
ATOM     24  C   UNL     1       3.758   4.545  17.329  0.00  0.00    +0.000 A 
ATOM     25  C   UNL     1       5.079   4.957  17.119  0.00  0.00    +0.000 A 
ATOM     26  C   UNL     1       5.457   6.283  17.380  0.00  0.00    +0.000 A 
ATOM     27  N   UNL     1       4.575   7.185  17.880  0.00  0.00    +0.000 NA
BRANCH  26  28
ATOM     28  C   UNL     1       6.863   6.764  17.102  0.00  0.00    +0.000 C 
ATOM     29  C   UNL     1       7.374   8.056  17.699  0.00  0.00    +0.000 C 
ATOM     30  C   UNL     1       7.875   6.747  18.230  0.00  0.00    +0.000 C 
ENDBRANCH  26  28
BRANCH  24  31
ATOM     31  C   UNL     1       3.292   3.135  17.046  0.00  0.00    +0.000 C 
BRANCH  31  32
ATOM     32  N   UNL     1       2.726   2.422  18.200  0.00  0.00    +0.000 NA
ATOM     33  C   UNL     1       1.270   2.657  18.266  0.00  0.00    +0.000 C 
ATOM     34  C   UNL     1       0.894   2.530  19.734  0.00  0.00    +0.000 C 
ATOM     35  C   UNL     1       2.133   2.992  20.426  0.00  0.00    +0.000 C 
ATOM     36  C   UNL     1       2.290   2.798  21.918  0.00  0.00    +0.000 C 
ATOM     37  C   UNL     1       2.097   4.180  21.369  0.00  0.00    +0.000 C 
ATOM     38  C   UNL     1       3.303   2.833  19.494  0.00  0.00    +0.000 C 
ENDBRANCH  31  32
ENDBRANCH  24  31
ENDBRANCH   2  22
TORSDOF 8
ENDMDL
MODEL 9
REMARK VINA RESULT:      -8.9      2.055      3.215
REMARK  Name = 
REMARK  9 active torsions:
REMARK  status: ('A' for Active; 'I' for Inactive)
REMARK    1  A    between atoms: C_1  and  N_2
REMARK    2  A    between atoms: C_6  and  C_7
REMARK    3  A    between atoms: C_7  and  C_8
REMARK    4  A    between atoms: C_8  and  C_9
REMARK    5  A    between atoms: C_13  and  N_14
REMARK    6  A    between atoms: C_15  and  C_17
REMARK    7  A    between atoms: C_19  and  C_20
REMARK    8  A    between atoms: C_20  and  N_21
REMARK    9  A    between atoms: C_29  and  C_30
REMARK                            x       y       z     vdW  Elec       q    Type
REMARK                         _______ _______ _______ _____ _____    ______ ____
ROOT
ATOM      1  N   UNL     1       1.847   8.680  17.896  0.00  0.00    +0.000 N 
ATOM      2  C   UNL     1       2.334   7.741  18.790  0.00  0.00    +0.000 C 
ATOM      3  O   UNL     1       2.139   7.708  19.999  0.00  0.00    +0.000 OA
ATOM      4  H   UNL     1       2.244   8.615  16.960  0.00  0.00    +0.000 HD
ENDROOT
BRANCH   1   9
ATOM      5  C   UNL     1      -1.148  10.863  18.143  0.00  0.00    +0.000 A 
ATOM      6  C   UNL     1      -0.560  12.017  18.695  0.00  0.00    +0.000 A 
ATOM      7  C   UNL     1       0.794  12.071  19.016  0.00  0.00    +0.000 A 
ATOM      8  C   UNL     1       1.607  10.968  18.771  0.00  0.00    +0.000 A 
ATOM      9  C   UNL     1       1.073   9.801  18.233  0.00  0.00    +0.000 A 
ATOM     10  C   UNL     1      -0.299   9.742  17.971  0.00  0.00    +0.000 A 
BRANCH   5  11
ATOM     11  C   UNL     1      -2.679  10.828  17.674  0.00  0.00    +0.000 C 
ATOM     12  C   UNL     1      -3.477   9.529  17.989  0.00  0.00    +0.000 C 
ATOM     13  O   UNL     1      -3.710   9.254  16.593  0.00  0.00    +0.000 OA
ATOM     14  C   UNL     1      -2.934  10.400  16.197  0.00  0.00    +0.000 C 
BRANCH  11  15
ATOM     15  C   UNL     1      -3.384  12.163  17.967  0.00  0.00    +0.000 C 
BRANCH  15  21
ATOM     16  C   UNL     1      -6.505  11.547  17.935  0.00  0.00    +0.000 C 
ATOM     17  N   UNL     1      -5.673  11.825  19.073  0.00  0.00    +0.000 N 
ATOM     18  C   UNL     1      -6.085  11.767  20.370  0.00  0.00    +0.000 A 
ATOM     19  N   UNL     1      -5.097  12.104  21.162  0.00  0.00    +0.000 NA
ATOM     20  N   UNL     1      -4.004  12.360  20.373  0.00  0.00    +0.000 NA
ATOM     21  C   UNL     1      -4.339  12.159  19.113  0.00  0.00    +0.000 A 
ENDBRANCH  15  21
ENDBRANCH  11  15
ENDBRANCH   5  11
ENDBRANCH   1   9
BRANCH   2  22
ATOM     22  C   UNL     1       3.226   6.717  18.164  0.00  0.00    +0.000 A 
ATOM     23  C   UNL     1       2.709   5.465  17.880  0.00  0.00    +0.000 A 
ATOM     24  C   UNL     1       3.551   4.501  17.333  0.00  0.00    +0.000 A 
ATOM     25  C   UNL     1       4.876   4.863  17.066  0.00  0.00    +0.000 A 
ATOM     26  C   UNL     1       5.325   6.162  17.347  0.00  0.00    +0.000 A 
ATOM     27  N   UNL     1       4.510   7.084  17.920  0.00  0.00    +0.000 NA
BRANCH  26  28
ATOM     28  C   UNL     1       6.735   6.592  17.011  0.00  0.00    +0.000 C 
ATOM     29  C   UNL     1       7.303   7.883  17.554  0.00  0.00    +0.000 C 
ATOM     30  C   UNL     1       7.782   6.575  18.106  0.00  0.00    +0.000 C 
ENDBRANCH  26  28
BRANCH  24  31
ATOM     31  C   UNL     1       3.009   3.122  17.031  0.00  0.00    +0.000 C 
BRANCH  31  32
ATOM     32  N   UNL     1       2.424   2.417  18.181  0.00  0.00    +0.000 NA
ATOM     33  C   UNL     1       1.011   2.814  18.343  0.00  0.00    +0.000 C 
ATOM     34  C   UNL     1       0.701   2.651  19.824  0.00  0.00    +0.000 C 
ATOM     35  C   UNL     1       2.020   2.930  20.463  0.00  0.00    +0.000 C 
ATOM     36  C   UNL     1       2.231   2.638  21.932  0.00  0.00    +0.000 C 
ATOM     37  C   UNL     1       2.173   4.062  21.463  0.00  0.00    +0.000 C 
ATOM     38  C   UNL     1       3.113   2.688  19.457  0.00  0.00    +0.000 C 
ENDBRANCH  31  32
ENDBRANCH  24  31
ENDBRANCH   2  22
TORSDOF 8
ENDMDL
