MODEL 1
REMARK VINA RESULT:      -8.5      0.000      0.000
REMARK  Name = 
REMARK  8 active torsions:
REMARK  status: ('A' for Active; 'I' for Inactive)
REMARK    1  A    between atoms: C_1  and  C_2
REMARK    2  A    between atoms: C_4  and  C_5
REMARK    3  A    between atoms: N_7  and  C_8
REMARK    4  A    between atoms: C_12  and  C_13
REMARK    5  A    between atoms: C_13  and  C_14
REMARK    6  A    between atoms: C_14  and  C_15
REMARK    7  A    between atoms: N_19  and  C_20
REMARK    8  A    between atoms: C_26  and  C_27
REMARK                            x       y       z     vdW  Elec       q    Type
REMARK                         _______ _______ _______ _____ _____    ______ ____
ROOT
ATOM      1  C   UNL     1       3.058   6.140  19.233  0.00  0.00    +0.000 A 
ATOM      2  C   UNL     1       2.701   4.825  19.526  0.00  0.00    +0.000 A 
ATOM      3  C   UNL     1       3.604   3.791  19.332  0.00  0.00    +0.000 A 
ATOM      4  C   UNL     1       4.888   4.068  18.870  0.00  0.00    +0.000 A 
ATOM      5  C   UNL     1       5.304   5.384  18.580  0.00  0.00    +0.000 A 
ATOM      6  C   UNL     1       4.336   6.401  18.725  0.00  0.00    +0.000 A 
ENDROOT
BRANCH   1   9
ATOM      7  C   UNL     1       1.945   8.253  18.544  0.00  0.00    +0.000 C 
ATOM      8  O   UNL     1       2.425   8.363  17.417  0.00  0.00    +0.000 OA
ATOM      9  N   UNL     1       2.190   7.232  19.447  0.00  0.00    +0.000 N 
ATOM     10  H   UNL     1       1.597   7.236  20.276  0.00  0.00    +0.000 HD
BRANCH   7  14
ATOM     11  C   UNL     1      -1.606  11.589  17.519  0.00  0.00    +0.000 C 
ATOM     12  C   UNL     1      -0.728  10.880  18.504  0.00  0.00    +0.000 A 
ATOM     13  C   UNL     1       0.165   9.911  18.069  0.00  0.00    +0.000 A 
ATOM     14  C   UNL     1       0.964   9.277  19.009  0.00  0.00    +0.000 A 
ATOM     15  N   UNL     1       0.922   9.532  20.343  0.00  0.00    +0.000 NA
ATOM     16  C   UNL     1       0.054  10.483  20.774  0.00  0.00    +0.000 A 
ATOM     17  C   UNL     1      -0.773  11.171  19.873  0.00  0.00    +0.000 A 
BRANCH  16  18
ATOM     18  C   UNL     1       0.048  10.793  22.252  0.00  0.00    +0.000 C 
ATOM     19  C   UNL     1      -1.224  11.002  23.036  0.00  0.00    +0.000 C 
ATOM     20  C   UNL     1      -0.459   9.723  23.195  0.00  0.00    +0.000 C 
ENDBRANCH  16  18
ENDBRANCH   7  14
ENDBRANCH   1   9
BRANCH   5  21
ATOM     21  C   UNL     1       6.821   5.696  18.175  0.00  0.00    +0.000 C 
ATOM     22  C   UNL     1       7.192   7.126  17.685  0.00  0.00    +0.000 C 
ATOM     23  O   UNL     1       8.353   7.149  18.566  0.00  0.00    +0.000 OA
ATOM     24  C   UNL     1       7.748   6.100  19.362  0.00  0.00    +0.000 C 
BRANCH  21  25
ATOM     25  C   UNL     1       7.436   4.571  17.323  0.00  0.00    +0.000 C 
BRANCH  25  26
ATOM     26  C   UNL     1       7.089   4.675  15.876  0.00  0.00    +0.000 A 
ATOM     27  N   UNL     1       7.697   5.440  14.988  0.00  0.00    +0.000 NA
ATOM     28  N   UNL     1       7.106   5.237  13.765  0.00  0.00    +0.000 NA
ATOM     29  C   UNL     1       6.154   4.351  13.927  0.00  0.00    +0.000 A 
ATOM     30  N   UNL     1       6.097   3.978  15.235  0.00  0.00    +0.000 N 
ATOM     31  C   UNL     1       5.173   3.026  15.788  0.00  0.00    +0.000 C 
ENDBRANCH  25  26
ENDBRANCH  21  25
ENDBRANCH   5  21
TORSDOF 6
ENDMDL
MODEL 2
REMARK VINA RESULT:      -8.4      0.952      2.359
REMARK  Name = 
REMARK  8 active torsions:
REMARK  status: ('A' for Active; 'I' for Inactive)
REMARK    1  A    between atoms: C_1  and  C_2
REMARK    2  A    between atoms: C_4  and  C_5
REMARK    3  A    between atoms: N_7  and  C_8
REMARK    4  A    between atoms: C_12  and  C_13
REMARK    5  A    between atoms: C_13  and  C_14
REMARK    6  A    between atoms: C_14  and  C_15
REMARK    7  A    between atoms: N_19  and  C_20
REMARK    8  A    between atoms: C_26  and  C_27
REMARK                            x       y       z     vdW  Elec       q    Type
REMARK                         _______ _______ _______ _____ _____    ______ ____
ROOT
ATOM      1  C   UNL     1       2.987   6.272  19.258  0.00  0.00    +0.000 A 
ATOM      2  C   UNL     1       2.617   5.000  19.694  0.00  0.00    +0.000 A 
ATOM      3  C   UNL     1       3.509   3.942  19.616  0.00  0.00    +0.000 A 
ATOM      4  C   UNL     1       4.795   4.153  19.126  0.00  0.00    +0.000 A 
ATOM      5  C   UNL     1       5.225   5.425  18.693  0.00  0.00    +0.000 A 
ATOM      6  C   UNL     1       4.267   6.462  18.725  0.00  0.00    +0.000 A 
ENDROOT
BRANCH   1   9
ATOM      7  C   UNL     1       1.953   8.349  18.369  0.00  0.00    +0.000 C 
ATOM      8  O   UNL     1       2.493   8.374  17.265  0.00  0.00    +0.000 OA
ATOM      9  N   UNL     1       2.130   7.389  19.351  0.00  0.00    +0.000 N 
ATOM     10  H   UNL     1       1.494   7.459  20.144  0.00  0.00    +0.000 HD
BRANCH   7  14
ATOM     11  C   UNL     1       0.337  11.874  21.491  0.00  0.00    +0.000 C 
ATOM     12  C   UNL     1       0.198  11.096  20.219  0.00  0.00    +0.000 A 
ATOM     13  C   UNL     1       1.130  10.121  19.895  0.00  0.00    +0.000 A 
ATOM     14  C   UNL     1       0.968   9.418  18.710  0.00  0.00    +0.000 A 
ATOM     15  N   UNL     1      -0.044   9.630  17.829  0.00  0.00    +0.000 NA
ATOM     16  C   UNL     1      -0.962  10.579  18.144  0.00  0.00    +0.000 A 
ATOM     17  C   UNL     1      -0.864  11.317  19.333  0.00  0.00    +0.000 A 
BRANCH  16  18
ATOM     18  C   UNL     1      -2.110  10.775  17.181  0.00  0.00    +0.000 C 
ATOM     19  C   UNL     1      -2.527   9.721  16.184  0.00  0.00    +0.000 C 
ATOM     20  C   UNL     1      -3.365   9.958  17.404  0.00  0.00    +0.000 C 
ENDBRANCH  16  18
ENDBRANCH   7  14
ENDBRANCH   1   9
BRANCH   5  21
ATOM     21  C   UNL     1       6.745   5.676  18.258  0.00  0.00    +0.000 C 
ATOM     22  C   UNL     1       7.159   7.084  17.741  0.00  0.00    +0.000 C 
ATOM     23  O   UNL     1       8.336   7.076  18.600  0.00  0.00    +0.000 OA
ATOM     24  C   UNL     1       7.708   6.061  19.421  0.00  0.00    +0.000 C 
BRANCH  21  25
ATOM     25  C   UNL     1       7.301   4.518  17.410  0.00  0.00    +0.000 C 
BRANCH  25  26
ATOM     26  C   UNL     1       6.966   4.637  15.961  0.00  0.00    +0.000 A 
ATOM     27  N   UNL     1       7.669   5.292  15.056  0.00  0.00    +0.000 NA
ATOM     28  N   UNL     1       7.051   5.145  13.838  0.00  0.00    +0.000 NA
ATOM     29  C   UNL     1       5.988   4.401  14.021  0.00  0.00    +0.000 A 
ATOM     30  N   UNL     1       5.886   4.068  15.337  0.00  0.00    +0.000 N 
ATOM     31  C   UNL     1       4.843   3.263  15.912  0.00  0.00    +0.000 C 
ENDBRANCH  25  26
ENDBRANCH  21  25
ENDBRANCH   5  21
TORSDOF 6
ENDMDL
MODEL 3
REMARK VINA RESULT:      -8.3      0.935      2.142
REMARK  Name = 
REMARK  8 active torsions:
REMARK  status: ('A' for Active; 'I' for Inactive)
REMARK    1  A    between atoms: C_1  and  C_2
REMARK    2  A    between atoms: C_4  and  C_5
REMARK    3  A    between atoms: N_7  and  C_8
REMARK    4  A    between atoms: C_12  and  C_13
REMARK    5  A    between atoms: C_13  and  C_14
REMARK    6  A    between atoms: C_14  and  C_15
REMARK    7  A    between atoms: N_19  and  C_20
REMARK    8  A    between atoms: C_26  and  C_27
REMARK                            x       y       z     vdW  Elec       q    Type
REMARK                         _______ _______ _______ _____ _____    ______ ____
ROOT
ATOM      1  C   UNL     1       3.175   6.030  19.553  0.00  0.00    +0.000 A 
ATOM      2  C   UNL     1       2.753   4.707  19.680  0.00  0.00    +0.000 A 
ATOM      3  C   UNL     1       3.585   3.664  19.305  0.00  0.00    +0.000 A 
ATOM      4  C   UNL     1       4.864   3.934  18.825  0.00  0.00    +0.000 A 
ATOM      5  C   UNL     1       5.345   5.253  18.697  0.00  0.00    +0.000 A 
ATOM      6  C   UNL     1       4.446   6.291  19.026  0.00  0.00    +0.000 A 
ENDROOT
BRANCH   1   9
ATOM      7  C   UNL     1       1.856   8.089  19.111  0.00  0.00    +0.000 C 
ATOM      8  O   UNL     1       1.977   8.135  17.888  0.00  0.00    +0.000 OA
ATOM      9  N   UNL     1       2.383   7.126  19.955  0.00  0.00    +0.000 N 
ATOM     10  H   UNL     1       2.062   7.175  20.921  0.00  0.00    +0.000 HD
BRANCH   7  14
ATOM     11  C   UNL     1      -0.488   9.748  23.178  0.00  0.00    +0.000 C 
ATOM     12  C   UNL     1      -0.098   9.909  21.741  0.00  0.00    +0.000 A 
ATOM     13  C   UNL     1       0.691   8.950  21.122  0.00  0.00    +0.000 A 
ATOM     14  C   UNL     1       1.031   9.131  19.790  0.00  0.00    +0.000 A 
ATOM     15  N   UNL     1       0.653  10.203  19.044  0.00  0.00    +0.000 NA
ATOM     16  C   UNL     1      -0.124  11.142  19.644  0.00  0.00    +0.000 A 
ATOM     17  C   UNL     1      -0.513  11.012  20.985  0.00  0.00    +0.000 A 
BRANCH  16  18
ATOM     18  C   UNL     1      -0.578  12.305  18.794  0.00  0.00    +0.000 C 
ATOM     19  C   UNL     1      -0.896  13.663  19.373  0.00  0.00    +0.000 C 
ATOM     20  C   UNL     1       0.380  13.463  18.613  0.00  0.00    +0.000 C 
ENDBRANCH  16  18
ENDBRANCH   7  14
ENDBRANCH   1   9
BRANCH   5  21
ATOM     21  C   UNL     1       6.861   5.537  18.269  0.00  0.00    +0.000 C 
ATOM     22  C   UNL     1       7.259   6.970  17.810  0.00  0.00    +0.000 C 
ATOM     23  O   UNL     1       8.439   6.939  18.665  0.00  0.00    +0.000 OA
ATOM     24  C   UNL     1       7.824   5.884  19.445  0.00  0.00    +0.000 C 
BRANCH  21  25
ATOM     25  C   UNL     1       7.427   4.421  17.373  0.00  0.00    +0.000 C 
BRANCH  25  26
ATOM     26  C   UNL     1       7.082   4.594  15.932  0.00  0.00    +0.000 A 
ATOM     27  N   UNL     1       7.673   5.420  15.089  0.00  0.00    +0.000 NA
ATOM     28  N   UNL     1       7.091   5.267  13.854  0.00  0.00    +0.000 NA
ATOM     29  C   UNL     1       6.162   4.350  13.964  0.00  0.00    +0.000 A 
ATOM     30  N   UNL     1       6.111   3.906  15.250  0.00  0.00    +0.000 N 
ATOM     31  C   UNL     1       5.210   2.902  15.748  0.00  0.00    +0.000 C 
ENDBRANCH  25  26
ENDBRANCH  21  25
ENDBRANCH   5  21
TORSDOF 6
ENDMDL
MODEL 4
REMARK VINA RESULT:      -8.3      2.571      8.944
REMARK  Name = 
REMARK  8 active torsions:
REMARK  status: ('A' for Active; 'I' for Inactive)
REMARK    1  A    between atoms: C_1  and  C_2
REMARK    2  A    between atoms: C_4  and  C_5
REMARK    3  A    between atoms: N_7  and  C_8
REMARK    4  A    between atoms: C_12  and  C_13
REMARK    5  A    between atoms: C_13  and  C_14
REMARK    6  A    between atoms: C_14  and  C_15
REMARK    7  A    between atoms: N_19  and  C_20
REMARK    8  A    between atoms: C_26  and  C_27
REMARK                            x       y       z     vdW  Elec       q    Type
REMARK                         _______ _______ _______ _____ _____    ______ ____
ROOT
ATOM      1  C   UNL     1       1.124   8.811  20.420  0.00  0.00    +0.000 A 
ATOM      2  C   UNL     1       1.005   8.872  21.808  0.00  0.00    +0.000 A 
ATOM      3  C   UNL     1       0.220   9.846  22.404  0.00  0.00    +0.000 A 
ATOM      4  C   UNL     1      -0.482  10.753  21.614  0.00  0.00    +0.000 A 
ATOM      5  C   UNL     1      -0.412  10.719  20.206  0.00  0.00    +0.000 A 
ATOM      6  C   UNL     1       0.451   9.757  19.637  0.00  0.00    +0.000 A 
ENDROOT
BRANCH   1   9
ATOM      7  C   UNL     1       2.386   7.913  18.476  0.00  0.00    +0.000 C 
ATOM      8  O   UNL     1       2.276   8.873  17.716  0.00  0.00    +0.000 OA
ATOM      9  N   UNL     1       1.880   7.818  19.762  0.00  0.00    +0.000 N 
ATOM     10  H   UNL     1       2.190   7.003  20.289  0.00  0.00    +0.000 HD
BRANCH   7  14
ATOM     11  C   UNL     1       2.627   3.052  17.429  0.00  0.00    +0.000 C 
ATOM     12  C   UNL     1       3.279   4.396  17.538  0.00  0.00    +0.000 A 
ATOM     13  C   UNL     1       2.536   5.499  17.933  0.00  0.00    +0.000 A 
ATOM     14  C   UNL     1       3.173   6.728  18.025  0.00  0.00    +0.000 A 
ATOM     15  N   UNL     1       4.486   6.931  17.738  0.00  0.00    +0.000 NA
ATOM     16  C   UNL     1       5.218   5.853  17.356  0.00  0.00    +0.000 A 
ATOM     17  C   UNL     1       4.638   4.580  17.255  0.00  0.00    +0.000 A 
BRANCH  16  18
ATOM     18  C   UNL     1       6.687   6.079  17.084  0.00  0.00    +0.000 C 
ATOM     19  C   UNL     1       7.413   7.331  17.516  0.00  0.00    +0.000 C 
ATOM     20  C   UNL     1       7.635   6.052  18.264  0.00  0.00    +0.000 C 
ENDBRANCH  16  18
ENDBRANCH   7  14
ENDBRANCH   1   9
BRANCH   5  21
ATOM     21  C   UNL     1      -1.326  11.684  19.313  0.00  0.00    +0.000 C 
ATOM     22  C   UNL     1      -2.468  11.063  18.459  0.00  0.00    +0.000 C 
ATOM     23  O   UNL     1      -3.401  12.079  18.930  0.00  0.00    +0.000 OA
ATOM     24  C   UNL     1      -2.532  12.326  20.063  0.00  0.00    +0.000 C 
BRANCH  21  25
ATOM     25  C   UNL     1      -0.491  12.735  18.560  0.00  0.00    +0.000 C 
BRANCH  25  26
ATOM     26  C   UNL     1       0.595  13.330  19.392  0.00  0.00    +0.000 A 
ATOM     27  N   UNL     1       0.424  14.083  20.462  0.00  0.00    +0.000 NA
ATOM     28  N   UNL     1       1.661  14.411  20.962  0.00  0.00    +0.000 NA
ATOM     29  C   UNL     1       2.561  13.848  20.194  0.00  0.00    +0.000 A 
ATOM     30  N   UNL     1       1.941  13.169  19.189  0.00  0.00    +0.000 N 
ATOM     31  C   UNL     1       2.607  12.431  18.151  0.00  0.00    +0.000 C 
ENDBRANCH  25  26
ENDBRANCH  21  25
ENDBRANCH   5  21
TORSDOF 6
ENDMDL
MODEL 5
REMARK VINA RESULT:      -8.3      2.873      9.333
REMARK  Name = 
REMARK  8 active torsions:
REMARK  status: ('A' for Active; 'I' for Inactive)
REMARK    1  A    between atoms: C_1  and  C_2
REMARK    2  A    between atoms: C_4  and  C_5
REMARK    3  A    between atoms: N_7  and  C_8
REMARK    4  A    between atoms: C_12  and  C_13
REMARK    5  A    between atoms: C_13  and  C_14
REMARK    6  A    between atoms: C_14  and  C_15
REMARK    7  A    between atoms: N_19  and  C_20
REMARK    8  A    between atoms: C_26  and  C_27
REMARK                            x       y       z     vdW  Elec       q    Type
REMARK                         _______ _______ _______ _____ _____    ______ ____
ROOT
ATOM      1  C   UNL     1       1.367   8.333  20.767  0.00  0.00    +0.000 A 
ATOM      2  C   UNL     1       0.867   8.289  22.068  0.00  0.00    +0.000 A 
ATOM      3  C   UNL     1      -0.002   9.269  22.522  0.00  0.00    +0.000 A 
ATOM      4  C   UNL     1      -0.405  10.290  21.666  0.00  0.00    +0.000 A 
ATOM      5  C   UNL     1       0.055  10.367  20.335  0.00  0.00    +0.000 A 
ATOM      6  C   UNL     1       0.990   9.391  19.930  0.00  0.00    +0.000 A 
ENDROOT
BRANCH   1   9
ATOM      7  C   UNL     1       1.981   5.977  20.267  0.00  0.00    +0.000 C 
ATOM      8  O   UNL     1       0.985   5.419  20.724  0.00  0.00    +0.000 OA
ATOM      9  N   UNL     1       2.223   7.341  20.244  0.00  0.00    +0.000 N 
ATOM     10  H   UNL     1       3.036   7.627  19.701  0.00  0.00    +0.000 HD
BRANCH   7  14
ATOM     11  C   UNL     1       3.363   1.748  18.034  0.00  0.00    +0.000 C 
ATOM     12  C   UNL     1       3.691   3.109  18.566  0.00  0.00    +0.000 A 
ATOM     13  C   UNL     1       2.698   3.889  19.140  0.00  0.00    +0.000 A 
ATOM     14  C   UNL     1       3.039   5.144  19.624  0.00  0.00    +0.000 A 
ATOM     15  N   UNL     1       4.289   5.673  19.561  0.00  0.00    +0.000 NA
ATOM     16  C   UNL     1       5.266   4.910  19.005  0.00  0.00    +0.000 A 
ATOM     17  C   UNL     1       4.990   3.628  18.508  0.00  0.00    +0.000 A 
BRANCH  16  18
ATOM     18  C   UNL     1       6.662   5.488  18.983  0.00  0.00    +0.000 C 
ATOM     19  C   UNL     1       7.738   4.983  18.053  0.00  0.00    +0.000 C 
ATOM     20  C   UNL     1       7.072   6.295  17.770  0.00  0.00    +0.000 C 
ENDBRANCH  16  18
ENDBRANCH   7  14
ENDBRANCH   1   9
BRANCH   5  21
ATOM     21  C   UNL     1      -0.520  11.472  19.329  0.00  0.00    +0.000 C 
ATOM     22  C   UNL     1      -1.393  11.013  18.124  0.00  0.00    +0.000 C 
ATOM     23  O   UNL     1      -2.378  12.047  18.417  0.00  0.00    +0.000 OA
ATOM     24  C   UNL     1      -1.864  12.128  19.770  0.00  0.00    +0.000 C 
BRANCH  21  25
ATOM     25  C   UNL     1       0.540  12.525  18.959  0.00  0.00    +0.000 C 
BRANCH  25  26
ATOM     26  C   UNL     1       0.862  13.452  20.082  0.00  0.00    +0.000 A 
ATOM     27  N   UNL     1       1.618  13.169  21.126  0.00  0.00    +0.000 NA
ATOM     28  N   UNL     1       1.696  14.287  21.920  0.00  0.00    +0.000 NA
ATOM     29  C   UNL     1       0.993  15.231  21.345  0.00  0.00    +0.000 A 
ATOM     30  N   UNL     1       0.442  14.753  20.196  0.00  0.00    +0.000 N 
ATOM     31  C   UNL     1      -0.397  15.503  19.301  0.00  0.00    +0.000 C 
ENDBRANCH  25  26
ENDBRANCH  21  25
ENDBRANCH   5  21
TORSDOF 6
ENDMDL
MODEL 6
REMARK VINA RESULT:      -8.2      1.674      2.516
REMARK  Name = 
REMARK  8 active torsions:
REMARK  status: ('A' for Active; 'I' for Inactive)
REMARK    1  A    between atoms: C_1  and  C_2
REMARK    2  A    between atoms: C_4  and  C_5
REMARK    3  A    between atoms: N_7  and  C_8
REMARK    4  A    between atoms: C_12  and  C_13
REMARK    5  A    between atoms: C_13  and  C_14
REMARK    6  A    between atoms: C_14  and  C_15
REMARK    7  A    between atoms: N_19  and  C_20
REMARK    8  A    between atoms: C_26  and  C_27
REMARK                            x       y       z     vdW  Elec       q    Type
REMARK                         _______ _______ _______ _____ _____    ______ ____
ROOT
ATOM      1  C   UNL     1       2.921   6.598  18.409  0.00  0.00    +0.000 A 
ATOM      2  C   UNL     1       2.442   5.382  18.896  0.00  0.00    +0.000 A 
ATOM      3  C   UNL     1       3.296   4.299  19.045  0.00  0.00    +0.000 A 
ATOM      4  C   UNL     1       4.646   4.432  18.734  0.00  0.00    +0.000 A 
ATOM      5  C   UNL     1       5.183   5.646  18.258  0.00  0.00    +0.000 A 
ATOM      6  C   UNL     1       4.271   6.705  18.056  0.00  0.00    +0.000 A 
ENDROOT
BRANCH   1   9
ATOM      7  C   UNL     1       1.617   8.508  19.320  0.00  0.00    +0.000 C 
ATOM      8  O   UNL     1       1.831   8.330  20.518  0.00  0.00    +0.000 OA
ATOM      9  N   UNL     1       2.103   7.740  18.275  0.00  0.00    +0.000 N 
ATOM     10  H   UNL     1       1.935   8.120  17.345  0.00  0.00    +0.000 HD
BRANCH   7  14
ATOM     11  C   UNL     1       0.933  13.435  19.122  0.00  0.00    +0.000 C 
ATOM     12  C   UNL     1       0.470  12.041  18.826  0.00  0.00    +0.000 A 
ATOM     13  C   UNL     1       1.253  10.956  19.193  0.00  0.00    +0.000 A 
ATOM     14  C   UNL     1       0.792   9.680  18.904  0.00  0.00    +0.000 A 
ATOM     15  N   UNL     1      -0.379   9.417  18.268  0.00  0.00    +0.000 NA
ATOM     16  C   UNL     1      -1.152  10.475  17.912  0.00  0.00    +0.000 A 
ATOM     17  C   UNL     1      -0.749  11.791  18.186  0.00  0.00    +0.000 A 
BRANCH  16  18
ATOM     18  C   UNL     1      -2.474  10.171  17.248  0.00  0.00    +0.000 C 
ATOM     19  C   UNL     1      -3.404  11.251  16.751  0.00  0.00    +0.000 C 
ATOM     20  C   UNL     1      -2.601  10.456  15.767  0.00  0.00    +0.000 C 
ENDBRANCH  16  18
ENDBRANCH   7  14
ENDBRANCH   1   9
BRANCH   5  21
ATOM     21  C   UNL     1       6.758   5.817  18.031  0.00  0.00    +0.000 C 
ATOM     22  C   UNL     1       7.311   7.202  17.588  0.00  0.00    +0.000 C 
ATOM     23  O   UNL     1       8.360   7.130  18.596  0.00  0.00    +0.000 OA
ATOM     24  C   UNL     1       7.576   6.148  19.317  0.00  0.00    +0.000 C 
BRANCH  21  25
ATOM     25  C   UNL     1       7.362   4.633  17.254  0.00  0.00    +0.000 C 
BRANCH  25  26
ATOM     26  C   UNL     1       7.065   4.677  15.793  0.00  0.00    +0.000 A 
ATOM     27  N   UNL     1       7.703   5.406  14.897  0.00  0.00    +0.000 NA
ATOM     28  N   UNL     1       7.155   5.152  13.663  0.00  0.00    +0.000 NA
ATOM     29  C   UNL     1       6.199   4.271  13.828  0.00  0.00    +0.000 A 
ATOM     30  N   UNL     1       6.096   3.952  15.148  0.00  0.00    +0.000 N 
ATOM     31  C   UNL     1       5.155   3.021  15.707  0.00  0.00    +0.000 C 
ENDBRANCH  25  26
ENDBRANCH  21  25
ENDBRANCH   5  21
TORSDOF 6
ENDMDL
MODEL 7
REMARK VINA RESULT:      -8.2      1.978      3.417
REMARK  Name = 
REMARK  8 active torsions:
REMARK  status: ('A' for Active; 'I' for Inactive)
REMARK    1  A    between atoms: C_1  and  C_2
REMARK    2  A    between atoms: C_4  and  C_5
REMARK    3  A    between atoms: N_7  and  C_8
REMARK    4  A    between atoms: C_12  and  C_13
REMARK    5  A    between atoms: C_13  and  C_14
REMARK    6  A    between atoms: C_14  and  C_15
REMARK    7  A    between atoms: N_19  and  C_20
REMARK    8  A    between atoms: C_26  and  C_27
REMARK                            x       y       z     vdW  Elec       q    Type
REMARK                         _______ _______ _______ _____ _____    ______ ____
ROOT
ATOM      1  C   UNL     1       3.016   5.700  19.455  0.00  0.00    +0.000 A 
ATOM      2  C   UNL     1       2.910   4.506  20.169  0.00  0.00    +0.000 A 
ATOM      3  C   UNL     1       3.566   3.365  19.732  0.00  0.00    +0.000 A 
ATOM      4  C   UNL     1       4.360   3.415  18.590  0.00  0.00    +0.000 A 
ATOM      5  C   UNL     1       4.516   4.603  17.845  0.00  0.00    +0.000 A 
ATOM      6  C   UNL     1       3.780   5.726  18.282  0.00  0.00    +0.000 A 
ENDROOT
BRANCH   1   9
ATOM      7  C   UNL     1       1.956   7.910  19.041  0.00  0.00    +0.000 C 
ATOM      8  O   UNL     1       2.011   7.921  17.813  0.00  0.00    +0.000 OA
ATOM      9  N   UNL     1       2.400   6.897  19.876  0.00  0.00    +0.000 N 
ATOM     10  H   UNL     1       2.145   7.003  20.857  0.00  0.00    +0.000 HD
BRANCH   7  14
ATOM     11  C   UNL     1      -0.234   9.808  23.089  0.00  0.00    +0.000 C 
ATOM     12  C   UNL     1       0.259   9.957  21.682  0.00  0.00    +0.000 A 
ATOM     13  C   UNL     1       0.875   8.889  21.045  0.00  0.00    +0.000 A 
ATOM     14  C   UNL     1       1.318   9.062  19.742  0.00  0.00    +0.000 A 
ATOM     15  N   UNL     1       1.201  10.222  19.043  0.00  0.00    +0.000 NA
ATOM     16  C   UNL     1       0.594  11.268  19.661  0.00  0.00    +0.000 A 
ATOM     17  C   UNL     1       0.113  11.156  20.974  0.00  0.00    +0.000 A 
BRANCH  16  18
ATOM     18  C   UNL     1       0.426  12.538  18.860  0.00  0.00    +0.000 C 
ATOM     19  C   UNL     1       0.685  13.908  19.440  0.00  0.00    +0.000 C 
ATOM     20  C   UNL     1       1.676  13.308  18.489  0.00  0.00    +0.000 C 
ENDBRANCH  16  18
ENDBRANCH   7  14
ENDBRANCH   1   9
BRANCH   5  21
ATOM     21  C   UNL     1       5.535   4.673  16.613  0.00  0.00    +0.000 C 
ATOM     22  C   UNL     1       5.280   3.772  15.370  0.00  0.00    +0.000 C 
ATOM     23  O   UNL     1       5.508   4.901  14.478  0.00  0.00    +0.000 OA
ATOM     24  C   UNL     1       5.241   5.803  15.580  0.00  0.00    +0.000 C 
BRANCH  21  25
ATOM     25  C   UNL     1       7.003   4.686  17.076  0.00  0.00    +0.000 C 
BRANCH  25  26
ATOM     26  C   UNL     1       7.485   6.043  17.462  0.00  0.00    +0.000 A 
ATOM     27  N   UNL     1       7.562   7.092  16.664  0.00  0.00    +0.000 NA
ATOM     28  N   UNL     1       8.026   8.159  17.393  0.00  0.00    +0.000 NA
ATOM     29  C   UNL     1       8.219   7.745  18.622  0.00  0.00    +0.000 A 
ATOM     30  N   UNL     1       7.905   6.423  18.711  0.00  0.00    +0.000 N 
ATOM     31  C   UNL     1       7.996   5.626  19.904  0.00  0.00    +0.000 C 
ENDBRANCH  25  26
ENDBRANCH  21  25
ENDBRANCH   5  21
TORSDOF 6
ENDMDL
MODEL 8
REMARK VINA RESULT:      -8.2      3.324     10.308
REMARK  Name = 
REMARK  8 active torsions:
REMARK  status: ('A' for Active; 'I' for Inactive)
REMARK    1  A    between atoms: C_1  and  C_2
REMARK    2  A    between atoms: C_4  and  C_5
REMARK    3  A    between atoms: N_7  and  C_8
REMARK    4  A    between atoms: C_12  and  C_13
REMARK    5  A    between atoms: C_13  and  C_14
REMARK    6  A    between atoms: C_14  and  C_15
REMARK    7  A    between atoms: N_19  and  C_20
REMARK    8  A    between atoms: C_26  and  C_27
REMARK                            x       y       z     vdW  Elec       q    Type
REMARK                         _______ _______ _______ _____ _____    ______ ____
ROOT
ATOM      1  C   UNL     1      -0.436   9.929  18.800  0.00  0.00    +0.000 A 
ATOM      2  C   UNL     1      -1.234  10.271  17.708  0.00  0.00    +0.000 A 
ATOM      3  C   UNL     1      -2.162  11.295  17.809  0.00  0.00    +0.000 A 
ATOM      4  C   UNL     1      -2.281  12.010  18.998  0.00  0.00    +0.000 A 
ATOM      5  C   UNL     1      -1.483  11.718  20.123  0.00  0.00    +0.000 A 
ATOM      6  C   UNL     1      -0.597  10.625  20.004  0.00  0.00    +0.000 A 
ENDROOT
BRANCH   1   9
ATOM      7  C   UNL     1       1.787   9.043  18.129  0.00  0.00    +0.000 C 
ATOM      8  O   UNL     1       2.229  10.042  17.566  0.00  0.00    +0.000 OA
ATOM      9  N   UNL     1       0.549   8.921  18.738  0.00  0.00    +0.000 N 
ATOM     10  H   UNL     1       0.413   8.064  19.273  0.00  0.00    +0.000 HD
BRANCH   7  14
ATOM     11  C   UNL     1       5.665   6.382  16.494  0.00  0.00    +0.000 C 
ATOM     12  C   UNL     1       4.507   6.561  17.427  0.00  0.00    +0.000 A 
ATOM     13  C   UNL     1       3.719   7.701  17.348  0.00  0.00    +0.000 A 
ATOM     14  C   UNL     1       2.654   7.832  18.227  0.00  0.00    +0.000 A 
ATOM     15  N   UNL     1       2.333   6.917  19.179  0.00  0.00    +0.000 NA
ATOM     16  C   UNL     1       3.096   5.797  19.256  0.00  0.00    +0.000 A 
ATOM     17  C   UNL     1       4.181   5.597  18.389  0.00  0.00    +0.000 A 
BRANCH  16  18
ATOM     18  C   UNL     1       2.703   4.764  20.286  0.00  0.00    +0.000 C 
ATOM     19  C   UNL     1       1.264   4.436  20.603  0.00  0.00    +0.000 C 
ATOM     20  C   UNL     1       2.080   3.476  19.792  0.00  0.00    +0.000 C 
ENDBRANCH  16  18
ENDBRANCH   7  14
ENDBRANCH   1   9
BRANCH   5  21
ATOM     21  C   UNL     1      -1.541  12.633  21.435  0.00  0.00    +0.000 C 
ATOM     22  C   UNL     1      -1.424  11.959  22.832  0.00  0.00    +0.000 C 
ATOM     23  O   UNL     1      -0.451  12.957  23.256  0.00  0.00    +0.000 OA
ATOM     24  C   UNL     1      -0.178  13.256  21.864  0.00  0.00    +0.000 C 
BRANCH  21  25
ATOM     25  C   UNL     1      -2.656  13.692  21.351  0.00  0.00    +0.000 C 
BRANCH  25  26
ATOM     26  C   UNL     1      -3.866  13.335  22.147  0.00  0.00    +0.000 A 
ATOM     27  N   UNL     1      -4.801  12.476  21.788  0.00  0.00    +0.000 NA
ATOM     28  N   UNL     1      -5.731  12.401  22.797  0.00  0.00    +0.000 NA
ATOM     29  C   UNL     1      -5.344  13.209  23.753  0.00  0.00    +0.000 A 
ATOM     30  N   UNL     1      -4.186  13.826  23.387  0.00  0.00    +0.000 N 
ATOM     31  C   UNL     1      -3.467  14.784  24.182  0.00  0.00    +0.000 C 
ENDBRANCH  25  26
ENDBRANCH  21  25
ENDBRANCH   5  21
TORSDOF 6
ENDMDL
MODEL 9
REMARK VINA RESULT:      -8.1      3.044      8.745
REMARK  Name = 
REMARK  8 active torsions:
REMARK  status: ('A' for Active; 'I' for Inactive)
REMARK    1  A    between atoms: C_1  and  C_2
REMARK    2  A    between atoms: C_4  and  C_5
REMARK    3  A    between atoms: N_7  and  C_8
REMARK    4  A    between atoms: C_12  and  C_13
REMARK    5  A    between atoms: C_13  and  C_14
REMARK    6  A    between atoms: C_14  and  C_15
REMARK    7  A    between atoms: N_19  and  C_20
REMARK    8  A    between atoms: C_26  and  C_27
REMARK                            x       y       z     vdW  Elec       q    Type
REMARK                         _______ _______ _______ _____ _____    ______ ____
ROOT
ATOM      1  C   UNL     1       0.670   9.044  21.158  0.00  0.00    +0.000 A 
ATOM      2  C   UNL     1       0.305   9.090  22.503  0.00  0.00    +0.000 A 
ATOM      3  C   UNL     1      -0.444  10.149  22.993  0.00  0.00    +0.000 A 
ATOM      4  C   UNL     1      -0.862  11.161  22.132  0.00  0.00    +0.000 A 
ATOM      5  C   UNL     1      -0.539  11.148  20.760  0.00  0.00    +0.000 A 
ATOM      6  C   UNL     1       0.282  10.090  20.312  0.00  0.00    +0.000 A 
ENDROOT
BRANCH   1   9
ATOM      7  C   UNL     1       1.966   7.955  19.338  0.00  0.00    +0.000 C 
ATOM      8  O   UNL     1       1.942   8.868  18.514  0.00  0.00    +0.000 OA
ATOM      9  N   UNL     1       1.398   7.972  20.602  0.00  0.00    +0.000 N 
ATOM     10  H   UNL     1       1.639   7.178  21.194  0.00  0.00    +0.000 HD
BRANCH   7  14
ATOM     11  C   UNL     1       5.049   5.455  16.334  0.00  0.00    +0.000 C 
ATOM     12  C   UNL     1       4.175   5.513  17.549  0.00  0.00    +0.000 A 
ATOM     13  C   UNL     1       3.509   6.687  17.871  0.00  0.00    +0.000 A 
ATOM     14  C   UNL     1       2.706   6.704  19.002  0.00  0.00    +0.000 A 
ATOM     15  N   UNL     1       2.535   5.642  19.832  0.00  0.00    +0.000 NA
ATOM     16  C   UNL     1       3.179   4.489  19.518  0.00  0.00    +0.000 A 
ATOM     17  C   UNL     1       3.997   4.402  18.382  0.00  0.00    +0.000 A 
BRANCH  16  18
ATOM     18  C   UNL     1       2.946   3.301  20.421  0.00  0.00    +0.000 C 
ATOM     19  C   UNL     1       1.825   3.252  21.432  0.00  0.00    +0.000 C 
ATOM     20  C   UNL     1       1.718   2.453  20.168  0.00  0.00    +0.000 C 
ENDBRANCH  16  18
ENDBRANCH   7  14
ENDBRANCH   1   9
BRANCH   5  21
ATOM     21  C   UNL     1      -1.138  12.248  19.763  0.00  0.00    +0.000 C 
ATOM     22  C   UNL     1      -0.908  13.755  20.075  0.00  0.00    +0.000 C 
ATOM     23  O   UNL     1      -0.514  14.003  18.695  0.00  0.00    +0.000 OA
ATOM     24  C   UNL     1      -0.235  12.589  18.539  0.00  0.00    +0.000 C 
BRANCH  21  25
ATOM     25  C   UNL     1      -2.581  11.918  19.339  0.00  0.00    +0.000 C 
BRANCH  25  26
ATOM     26  C   UNL     1      -2.658  11.178  18.047  0.00  0.00    +0.000 A 
ATOM     27  N   UNL     1      -1.736  10.364  17.566  0.00  0.00    +0.000 NA
ATOM     28  N   UNL     1      -2.186   9.857  16.371  0.00  0.00    +0.000 NA
ATOM     29  C   UNL     1      -3.373  10.366  16.147  0.00  0.00    +0.000 A 
ATOM     30  N   UNL     1      -3.706  11.209  17.163  0.00  0.00    +0.000 N 
ATOM     31  C   UNL     1      -4.933  11.951  17.259  0.00  0.00    +0.000 C 
ENDBRANCH  25  26
ENDBRANCH  21  25
ENDBRANCH   5  21
TORSDOF 6
ENDMDL
