MODEL 1
REMARK VINA RESULT:      -9.5      0.000      0.000
REMARK  Name = 
REMARK  8 active torsions:
REMARK  status: ('A' for Active; 'I' for Inactive)
REMARK    1  A    between atoms: C_1  and  C_2
REMARK    2  A    between atoms: C_2  and  C_3
REMARK    3  A    between atoms: C_2  and  C_11
REMARK    4  A    between atoms: C_3  and  C_4
REMARK    5  A    between atoms: C_8  and  C_9
REMARK    6  A    between atoms: C_9  and  O_10
REMARK    7  A    between atoms: C_15  and  N_16
REMARK    8  A    between atoms: C_23  and  C_24
REMARK                            x       y       z     vdW  Elec       q    Type
REMARK                         _______ _______ _______ _____ _____    ______ ____
ROOT
ATOM      1  C   UNL     1       4.600   5.034  17.757  0.00  0.00    +0.000 A 
ATOM      2  C   UNL     1       3.991   3.857  18.195  0.00  0.00    +0.000 A 
ATOM      3  C   UNL     1       2.793   3.899  18.923  0.00  0.00    +0.000 A 
ATOM      4  C   UNL     1       2.166   5.117  19.214  0.00  0.00    +0.000 A 
ATOM      5  C   UNL     1       2.748   6.313  18.806  0.00  0.00    +0.000 A 
ATOM      6  C   UNL     1       3.977   6.240  18.113  0.00  0.00    +0.000 A 
ENDROOT
BRANCH   5   7
ATOM      7  N   UNL     1       2.165   7.586  19.043  0.00  0.00    +0.000 N 
ATOM      8  C   UNL     1       1.562   7.864  20.331  0.00  0.00    +0.000 C 
ATOM      9  C   UNL     1       1.049   9.249  20.205  0.00  0.00    +0.000 A 
ATOM     10  C   UNL     1       1.401   9.764  18.959  0.00  0.00    +0.000 A 
ATOM     11  C   UNL     1       1.089  11.062  18.608  0.00  0.00    +0.000 A 
ATOM     12  C   UNL     1       0.403  11.843  19.546  0.00  0.00    +0.000 A 
ATOM     13  C   UNL     1       0.026  11.313  20.796  0.00  0.00    +0.000 A 
ATOM     14  C   UNL     1       0.341   9.990  21.146  0.00  0.00    +0.000 A 
ATOM     15  C   UNL     1       2.103   8.697  18.200  0.00  0.00    +0.000 C 
ATOM     16  O   UNL     1       2.515   8.855  17.065  0.00  0.00    +0.000 OA
BRANCH  14  17
ATOM     17  C   UNL     1      -0.082   9.408  22.471  0.00  0.00    +0.000 C 
ATOM     18  F   UNL     1      -0.870  10.241  23.209  0.00  0.00    +0.000 F 
ATOM     19  F   UNL     1      -0.794   8.259  22.334  0.00  0.00    +0.000 F 
ATOM     20  F   UNL     1       0.979   9.108  23.268  0.00  0.00    +0.000 F 
ENDBRANCH  14  17
ENDBRANCH   5   7
BRANCH   1  22
ATOM     21  C   UNL     1       7.153   4.741  17.743  0.00  0.00    +0.000 C 
ATOM     22  C   UNL     1       5.897   5.099  16.939  0.00  0.00    +0.000 C 
BRANCH  22  23
ATOM     23  C   UNL     1       5.789   4.214  15.665  0.00  0.00    +0.000 C 
BRANCH  23  24
ATOM     24  C   UNL     1       6.670   4.628  14.525  0.00  0.00    +0.000 A 
ATOM     25  N   UNL     1       7.660   5.510  14.715  0.00  0.00    +0.000 NA
ATOM     26  N   UNL     1       8.209   5.656  13.501  0.00  0.00    +0.000 N 
ATOM     27  C   UNL     1       7.604   4.905  12.539  0.00  0.00    +0.000 A 
ATOM     28  C   UNL     1       6.581   4.223  13.162  0.00  0.00    +0.000 A 
ATOM     29  H   UNL     1       8.994   6.292  13.400  0.00  0.00    +0.000 HD
BRANCH  28  30
ATOM     30  C   UNL     1       5.600   3.289  12.554  0.00  0.00    +0.000 C 
BRANCH  30  31
ATOM     31  O   UNL     1       6.248   2.198  11.911  0.00  0.00    +0.000 OA
ATOM     32  H   UNL     1       5.542   1.626  11.564  0.00  0.00    +0.000 HD
ENDBRANCH  30  31
ENDBRANCH  28  30
ENDBRANCH  23  24
ENDBRANCH  22  23
ENDBRANCH   1  22
TORSDOF 7
ENDMDL
MODEL 2
REMARK VINA RESULT:      -9.1      2.245      3.202
REMARK  Name = 
REMARK  8 active torsions:
REMARK  status: ('A' for Active; 'I' for Inactive)
REMARK    1  A    between atoms: C_1  and  C_2
REMARK    2  A    between atoms: C_2  and  C_3
REMARK    3  A    between atoms: C_2  and  C_11
REMARK    4  A    between atoms: C_3  and  C_4
REMARK    5  A    between atoms: C_8  and  C_9
REMARK    6  A    between atoms: C_9  and  O_10
REMARK    7  A    between atoms: C_15  and  N_16
REMARK    8  A    between atoms: C_23  and  C_24
REMARK                            x       y       z     vdW  Elec       q    Type
REMARK                         _______ _______ _______ _____ _____    ______ ____
ROOT
ATOM      1  C   UNL     1       4.470   4.859  17.651  0.00  0.00    +0.000 A 
ATOM      2  C   UNL     1       4.339   3.849  18.606  0.00  0.00    +0.000 A 
ATOM      3  C   UNL     1       3.551   4.045  19.750  0.00  0.00    +0.000 A 
ATOM      4  C   UNL     1       2.861   5.247  19.956  0.00  0.00    +0.000 A 
ATOM      5  C   UNL     1       2.977   6.281  19.033  0.00  0.00    +0.000 A 
ATOM      6  C   UNL     1       3.812   6.070  17.914  0.00  0.00    +0.000 A 
ENDROOT
BRANCH   5   7
ATOM      7  N   UNL     1       2.294   7.520  19.159  0.00  0.00    +0.000 N 
ATOM      8  C   UNL     1       1.643   7.850  20.411  0.00  0.00    +0.000 C 
ATOM      9  C   UNL     1       1.029   9.177  20.167  0.00  0.00    +0.000 A 
ATOM     10  C   UNL     1       1.369   9.619  18.890  0.00  0.00    +0.000 A 
ATOM     11  C   UNL     1       0.968  10.859  18.432  0.00  0.00    +0.000 A 
ATOM     12  C   UNL     1       0.203  11.654  19.295  0.00  0.00    +0.000 A 
ATOM     13  C   UNL     1      -0.160  11.195  20.576  0.00  0.00    +0.000 A 
ATOM     14  C   UNL     1       0.247   9.932  21.035  0.00  0.00    +0.000 A 
ATOM     15  C   UNL     1       2.167   8.554  18.229  0.00  0.00    +0.000 C 
ATOM     16  O   UNL     1       2.591   8.655  17.093  0.00  0.00    +0.000 OA
BRANCH  14  17
ATOM     17  C   UNL     1      -0.161   9.424  22.394  0.00  0.00    +0.000 C 
ATOM     18  F   UNL     1       0.892   9.156  23.218  0.00  0.00    +0.000 F 
ATOM     19  F   UNL     1      -0.938  10.309  23.073  0.00  0.00    +0.000 F 
ATOM     20  F   UNL     1      -0.872   8.266  22.323  0.00  0.00    +0.000 F 
ENDBRANCH  14  17
ENDBRANCH   5   7
BRANCH   1  22
ATOM     21  C   UNL     1       4.982   5.838  15.330  0.00  0.00    +0.000 C 
ATOM     22  C   UNL     1       5.289   4.741  16.358  0.00  0.00    +0.000 C 
BRANCH  22  23
ATOM     23  C   UNL     1       6.811   4.691  16.672  0.00  0.00    +0.000 C 
BRANCH  23  24
ATOM     24  C   UNL     1       7.364   5.913  17.341  0.00  0.00    +0.000 A 
ATOM     25  N   UNL     1       7.606   7.025  16.634  0.00  0.00    +0.000 NA
ATOM     26  N   UNL     1       8.105   7.885  17.535  0.00  0.00    +0.000 N 
ATOM     27  C   UNL     1       8.196   7.364  18.789  0.00  0.00    +0.000 A 
ATOM     28  C   UNL     1       7.732   6.068  18.709  0.00  0.00    +0.000 A 
ATOM     29  H   UNL     1       8.368   8.814  17.220  0.00  0.00    +0.000 HD
BRANCH  28  30
ATOM     30  C   UNL     1       7.646   5.057  19.792  0.00  0.00    +0.000 C 
BRANCH  30  31
ATOM     31  O   UNL     1       8.288   5.509  20.979  0.00  0.00    +0.000 OA
ATOM     32  H   UNL     1       8.352   6.477  20.905  0.00  0.00    +0.000 HD
ENDBRANCH  30  31
ENDBRANCH  28  30
ENDBRANCH  23  24
ENDBRANCH  22  23
ENDBRANCH   1  22
TORSDOF 7
ENDMDL
MODEL 3
REMARK VINA RESULT:      -8.8      2.480      3.201
REMARK  Name = 
REMARK  8 active torsions:
REMARK  status: ('A' for Active; 'I' for Inactive)
REMARK    1  A    between atoms: C_1  and  C_2
REMARK    2  A    between atoms: C_2  and  C_3
REMARK    3  A    between atoms: C_2  and  C_11
REMARK    4  A    between atoms: C_3  and  C_4
REMARK    5  A    between atoms: C_8  and  C_9
REMARK    6  A    between atoms: C_9  and  O_10
REMARK    7  A    between atoms: C_15  and  N_16
REMARK    8  A    between atoms: C_23  and  C_24
REMARK                            x       y       z     vdW  Elec       q    Type
REMARK                         _______ _______ _______ _____ _____    ______ ____
ROOT
ATOM      1  C   UNL     1       4.463   5.206  17.550  0.00  0.00    +0.000 A 
ATOM      2  C   UNL     1       4.460   4.188  18.506  0.00  0.00    +0.000 A 
ATOM      3  C   UNL     1       3.737   4.330  19.699  0.00  0.00    +0.000 A 
ATOM      4  C   UNL     1       2.985   5.483  19.957  0.00  0.00    +0.000 A 
ATOM      5  C   UNL     1       2.972   6.524  19.035  0.00  0.00    +0.000 A 
ATOM      6  C   UNL     1       3.744   6.371  17.862  0.00  0.00    +0.000 A 
ENDROOT
BRANCH   5   7
ATOM      7  N   UNL     1       2.218   7.714  19.212  0.00  0.00    +0.000 N 
ATOM      8  C   UNL     1       1.578   7.969  20.487  0.00  0.00    +0.000 C 
ATOM      9  C   UNL     1       0.880   9.262  20.296  0.00  0.00    +0.000 A 
ATOM     10  C   UNL     1       1.161   9.760  19.026  0.00  0.00    +0.000 A 
ATOM     11  C   UNL     1       0.676  10.985  18.614  0.00  0.00    +0.000 A 
ATOM     12  C   UNL     1      -0.115  11.708  19.516  0.00  0.00    +0.000 A 
ATOM     13  C   UNL     1      -0.419  11.192  20.791  0.00  0.00    +0.000 A 
ATOM     14  C   UNL     1       0.074   9.944  21.203  0.00  0.00    +0.000 A 
ATOM     15  C   UNL     1       2.007   8.765  18.316  0.00  0.00    +0.000 C 
ATOM     16  O   UNL     1       2.397   8.923  17.174  0.00  0.00    +0.000 OA
BRANCH  14  17
ATOM     17  C   UNL     1      -0.269   9.373  22.555  0.00  0.00    +0.000 C 
ATOM     18  F   UNL     1       0.819   9.126  23.339  0.00  0.00    +0.000 F 
ATOM     19  F   UNL     1      -1.064  10.199  23.286  0.00  0.00    +0.000 F 
ATOM     20  F   UNL     1      -0.930   8.187  22.466  0.00  0.00    +0.000 F 
ENDBRANCH  14  17
ENDBRANCH   5   7
BRANCH   1  22
ATOM     21  C   UNL     1       5.086   6.431  15.379  0.00  0.00    +0.000 C 
ATOM     22  C   UNL     1       5.201   5.144  16.206  0.00  0.00    +0.000 C 
BRANCH  22  23
ATOM     23  C   UNL     1       6.692   4.755  16.414  0.00  0.00    +0.000 C 
BRANCH  23  24
ATOM     24  C   UNL     1       7.315   5.272  17.676  0.00  0.00    +0.000 A 
ATOM     25  N   UNL     1       7.604   4.437  18.683  0.00  0.00    +0.000 NA
ATOM     26  N   UNL     1       8.117   5.233  19.633  0.00  0.00    +0.000 N 
ATOM     27  C   UNL     1       8.161   6.546  19.275  0.00  0.00    +0.000 A 
ATOM     28  C   UNL     1       7.635   6.621  18.003  0.00  0.00    +0.000 A 
ATOM     29  H   UNL     1       8.412   4.810  20.508  0.00  0.00    +0.000 HD
BRANCH  28  30
ATOM     30  C   UNL     1       7.433   7.830  17.166  0.00  0.00    +0.000 C 
BRANCH  30  31
ATOM     31  O   UNL     1       7.945   8.996  17.801  0.00  0.00    +0.000 OA
ATOM     32  H   UNL     1       7.733   9.743  17.215  0.00  0.00    +0.000 HD
ENDBRANCH  30  31
ENDBRANCH  28  30
ENDBRANCH  23  24
ENDBRANCH  22  23
ENDBRANCH   1  22
TORSDOF 7
ENDMDL
MODEL 4
REMARK VINA RESULT:      -8.8      4.288      8.830
REMARK  Name = 
REMARK  8 active torsions:
REMARK  status: ('A' for Active; 'I' for Inactive)
REMARK    1  A    between atoms: C_1  and  C_2
REMARK    2  A    between atoms: C_2  and  C_3
REMARK    3  A    between atoms: C_2  and  C_11
REMARK    4  A    between atoms: C_3  and  C_4
REMARK    5  A    between atoms: C_8  and  C_9
REMARK    6  A    between atoms: C_9  and  O_10
REMARK    7  A    between atoms: C_15  and  N_16
REMARK    8  A    between atoms: C_23  and  C_24
REMARK                            x       y       z     vdW  Elec       q    Type
REMARK                         _______ _______ _______ _____ _____    ______ ____
ROOT
ATOM      1  C   UNL     1      -0.623  10.832  20.760  0.00  0.00    +0.000 A 
ATOM      2  C   UNL     1      -0.644  10.902  22.154  0.00  0.00    +0.000 A 
ATOM      3  C   UNL     1       0.012   9.936  22.929  0.00  0.00    +0.000 A 
ATOM      4  C   UNL     1       0.722   8.887  22.329  0.00  0.00    +0.000 A 
ATOM      5  C   UNL     1       0.757   8.777  20.943  0.00  0.00    +0.000 A 
ATOM      6  C   UNL     1       0.050   9.740  20.191  0.00  0.00    +0.000 A 
ENDROOT
BRANCH   5   7
ATOM      7  N   UNL     1       1.472   7.757  20.259  0.00  0.00    +0.000 N 
ATOM      8  C   UNL     1       1.424   6.398  20.758  0.00  0.00    +0.000 C 
ATOM      9  C   UNL     1       2.286   5.634  19.825  0.00  0.00    +0.000 A 
ATOM     10  C   UNL     1       2.737   6.477  18.812  0.00  0.00    +0.000 A 
ATOM     11  C   UNL     1       3.517   5.999  17.778  0.00  0.00    +0.000 A 
ATOM     12  C   UNL     1       3.844   4.638  17.785  0.00  0.00    +0.000 A 
ATOM     13  C   UNL     1       3.409   3.792  18.824  0.00  0.00    +0.000 A 
ATOM     14  C   UNL     1       2.619   4.284  19.875  0.00  0.00    +0.000 A 
ATOM     15  C   UNL     1       2.232   7.847  19.091  0.00  0.00    +0.000 C 
ATOM     16  O   UNL     1       2.482   8.801  18.379  0.00  0.00    +0.000 OA
BRANCH  14  17
ATOM     17  C   UNL     1       2.172   3.390  21.004  0.00  0.00    +0.000 C 
ATOM     18  F   UNL     1       0.829   3.156  21.020  0.00  0.00    +0.000 F 
ATOM     19  F   UNL     1       2.755   2.163  20.963  0.00  0.00    +0.000 F 
ATOM     20  F   UNL     1       2.465   3.912  22.227  0.00  0.00    +0.000 F 
ENDBRANCH  14  17
ENDBRANCH   5   7
BRANCH   1  22
ATOM     21  C   UNL     1      -0.461  13.119  19.597  0.00  0.00    +0.000 C 
ATOM     22  C   UNL     1      -1.290  11.847  19.821  0.00  0.00    +0.000 C 
BRANCH  22  23
ATOM     23  C   UNL     1      -1.656  11.183  18.464  0.00  0.00    +0.000 C 
BRANCH  23  24
ATOM     24  C   UNL     1      -3.032  11.489  17.955  0.00  0.00    +0.000 A 
ATOM     25  N   UNL     1      -3.954  12.025  18.766  0.00  0.00    +0.000 NA
ATOM     26  N   UNL     1      -5.045  12.137  17.996  0.00  0.00    +0.000 N 
ATOM     27  C   UNL     1      -4.859  11.688  16.724  0.00  0.00    +0.000 A 
ATOM     28  C   UNL     1      -3.557  11.242  16.653  0.00  0.00    +0.000 A 
ATOM     29  H   UNL     1      -5.888  12.527  18.407  0.00  0.00    +0.000 HD
BRANCH  28  30
ATOM     30  C   UNL     1      -2.859  10.631  15.495  0.00  0.00    +0.000 C 
BRANCH  30  31
ATOM     31  O   UNL     1      -3.783  10.129  14.535  0.00  0.00    +0.000 OA
ATOM     32  H   UNL     1      -3.267   9.580  13.920  0.00  0.00    +0.000 HD
ENDBRANCH  30  31
ENDBRANCH  28  30
ENDBRANCH  23  24
ENDBRANCH  22  23
ENDBRANCH   1  22
TORSDOF 7
ENDMDL
MODEL 5
REMARK VINA RESULT:      -8.8      2.189      2.706
REMARK  Name = 
REMARK  8 active torsions:
REMARK  status: ('A' for Active; 'I' for Inactive)
REMARK    1  A    between atoms: C_1  and  C_2
REMARK    2  A    between atoms: C_2  and  C_3
REMARK    3  A    between atoms: C_2  and  C_11
REMARK    4  A    between atoms: C_3  and  C_4
REMARK    5  A    between atoms: C_8  and  C_9
REMARK    6  A    between atoms: C_9  and  O_10
REMARK    7  A    between atoms: C_15  and  N_16
REMARK    8  A    between atoms: C_23  and  C_24
REMARK                            x       y       z     vdW  Elec       q    Type
REMARK                         _______ _______ _______ _____ _____    ______ ____
ROOT
ATOM      1  C   UNL     1       4.581   4.547  16.989  0.00  0.00    +0.000 A 
ATOM      2  C   UNL     1       3.803   3.422  16.707  0.00  0.00    +0.000 A 
ATOM      3  C   UNL     1       2.515   3.291  17.244  0.00  0.00    +0.000 A 
ATOM      4  C   UNL     1       1.966   4.288  18.060  0.00  0.00    +0.000 A 
ATOM      5  C   UNL     1       2.714   5.418  18.374  0.00  0.00    +0.000 A 
ATOM      6  C   UNL     1       4.024   5.502  17.853  0.00  0.00    +0.000 A 
ENDROOT
BRANCH   5   7
ATOM      7  N   UNL     1       2.221   6.483  19.175  0.00  0.00    +0.000 N 
ATOM      8  C   UNL     1       1.916   7.757  18.557  0.00  0.00    +0.000 C 
ATOM      9  C   UNL     1       1.460   8.610  19.680  0.00  0.00    +0.000 A 
ATOM     10  C   UNL     1       1.427   7.858  20.852  0.00  0.00    +0.000 A 
ATOM     11  C   UNL     1       0.983   8.404  22.040  0.00  0.00    +0.000 A 
ATOM     12  C   UNL     1       0.570   9.742  22.026  0.00  0.00    +0.000 A 
ATOM     13  C   UNL     1       0.627  10.508  20.845  0.00  0.00    +0.000 A 
ATOM     14  C   UNL     1       1.084   9.949  19.642  0.00  0.00    +0.000 A 
ATOM     15  C   UNL     1       1.931   6.495  20.541  0.00  0.00    +0.000 C 
ATOM     16  O   UNL     1       2.031   5.620  21.381  0.00  0.00    +0.000 OA
BRANCH  14  17
ATOM     17  C   UNL     1       1.172  10.771  18.380  0.00  0.00    +0.000 C 
ATOM     18  F   UNL     1       0.943  12.101  18.575  0.00  0.00    +0.000 F 
ATOM     19  F   UNL     1       2.395  10.694  17.790  0.00  0.00    +0.000 F 
ATOM     20  F   UNL     1       0.269  10.379  17.441  0.00  0.00    +0.000 F 
ENDBRANCH  14  17
ENDBRANCH   5   7
BRANCH   1  22
ATOM     21  C   UNL     1       7.090   4.747  17.507  0.00  0.00    +0.000 C 
ATOM     22  C   UNL     1       5.991   4.798  16.437  0.00  0.00    +0.000 C 
BRANCH  22  23
ATOM     23  C   UNL     1       6.310   3.819  15.273  0.00  0.00    +0.000 C 
BRANCH  23  24
ATOM     24  C   UNL     1       6.940   4.447  14.066  0.00  0.00    +0.000 A 
ATOM     25  N   UNL     1       7.843   5.428  14.203  0.00  0.00    +0.000 NA
ATOM     26  N   UNL     1       8.165   5.756  12.943  0.00  0.00    +0.000 N 
ATOM     27  C   UNL     1       7.499   5.026  12.006  0.00  0.00    +0.000 A 
ATOM     28  C   UNL     1       6.675   4.163  12.696  0.00  0.00    +0.000 A 
ATOM     29  H   UNL     1       8.847   6.494  12.797  0.00  0.00    +0.000 HD
BRANCH  28  30
ATOM     30  C   UNL     1       5.719   3.172  12.142  0.00  0.00    +0.000 C 
BRANCH  30  31
ATOM     31  O   UNL     1       6.366   1.945  11.822  0.00  0.00    +0.000 OA
ATOM     32  H   UNL     1       7.303   2.060  12.057  0.00  0.00    +0.000 HD
ENDBRANCH  30  31
ENDBRANCH  28  30
ENDBRANCH  23  24
ENDBRANCH  22  23
ENDBRANCH   1  22
TORSDOF 7
ENDMDL
MODEL 6
REMARK VINA RESULT:      -8.7      2.005      2.798
REMARK  Name = 
REMARK  8 active torsions:
REMARK  status: ('A' for Active; 'I' for Inactive)
REMARK    1  A    between atoms: C_1  and  C_2
REMARK    2  A    between atoms: C_2  and  C_3
REMARK    3  A    between atoms: C_2  and  C_11
REMARK    4  A    between atoms: C_3  and  C_4
REMARK    5  A    between atoms: C_8  and  C_9
REMARK    6  A    between atoms: C_9  and  O_10
REMARK    7  A    between atoms: C_15  and  N_16
REMARK    8  A    between atoms: C_23  and  C_24
REMARK                            x       y       z     vdW  Elec       q    Type
REMARK                         _______ _______ _______ _____ _____    ______ ____
ROOT
ATOM      1  C   UNL     1       4.030   5.062  17.712  0.00  0.00    +0.000 A 
ATOM      2  C   UNL     1       3.439   3.925  18.266  0.00  0.00    +0.000 A 
ATOM      3  C   UNL     1       2.350   4.040  19.140  0.00  0.00    +0.000 A 
ATOM      4  C   UNL     1       1.812   5.291  19.467  0.00  0.00    +0.000 A 
ATOM      5  C   UNL     1       2.381   6.448  18.945  0.00  0.00    +0.000 A 
ATOM      6  C   UNL     1       3.504   6.304  18.101  0.00  0.00    +0.000 A 
ENDROOT
BRANCH   5   7
ATOM      7  N   UNL     1       1.882   7.752  19.210  0.00  0.00    +0.000 N 
ATOM      8  C   UNL     1       1.352   8.058  20.523  0.00  0.00    +0.000 C 
ATOM      9  C   UNL     1       0.914   9.470  20.422  0.00  0.00    +0.000 A 
ATOM     10  C   UNL     1       1.240   9.970  19.163  0.00  0.00    +0.000 A 
ATOM     11  C   UNL     1       0.988  11.286  18.829  0.00  0.00    +0.000 A 
ATOM     12  C   UNL     1       0.389  12.100  19.798  0.00  0.00    +0.000 A 
ATOM     13  C   UNL     1       0.037  11.586  21.062  0.00  0.00    +0.000 A 
ATOM     14  C   UNL     1       0.291  10.246  21.395  0.00  0.00    +0.000 A 
ATOM     15  C   UNL     1       1.847   8.868  18.372  0.00  0.00    +0.000 C 
ATOM     16  O   UNL     1       2.217   9.008  17.221  0.00  0.00    +0.000 OA
BRANCH  14  17
ATOM     17  C   UNL     1      -0.107   9.683  22.736  0.00  0.00    +0.000 C 
ATOM     18  F   UNL     1      -0.782  10.567  23.524  0.00  0.00    +0.000 F 
ATOM     19  F   UNL     1      -0.918   8.598  22.628  0.00  0.00    +0.000 F 
ATOM     20  F   UNL     1       0.967   9.286  23.471  0.00  0.00    +0.000 F 
ENDBRANCH  14  17
ENDBRANCH   5   7
BRANCH   1  22
ATOM     21  C   UNL     1       4.942   4.240  15.454  0.00  0.00    +0.000 C 
ATOM     22  C   UNL     1       5.211   5.047  16.731  0.00  0.00    +0.000 C 
BRANCH  22  23
ATOM     23  C   UNL     1       5.656   6.496  16.383  0.00  0.00    +0.000 C 
BRANCH  23  24
ATOM     24  C   UNL     1       6.752   7.050  17.243  0.00  0.00    +0.000 A 
ATOM     25  N   UNL     1       7.113   8.336  17.141  0.00  0.00    +0.000 NA
ATOM     26  N   UNL     1       8.113   8.468  18.024  0.00  0.00    +0.000 N 
ATOM     27  C   UNL     1       8.411   7.314  18.682  0.00  0.00    +0.000 A 
ATOM     28  C   UNL     1       7.551   6.353  18.195  0.00  0.00    +0.000 A 
ATOM     29  H   UNL     1       8.553   9.378  18.121  0.00  0.00    +0.000 HD
BRANCH  28  30
ATOM     30  C   UNL     1       7.479   4.917  18.563  0.00  0.00    +0.000 C 
BRANCH  30  31
ATOM     31  O   UNL     1       8.301   4.120  17.718  0.00  0.00    +0.000 OA
ATOM     32  H   UNL     1       8.168   4.452  16.814  0.00  0.00    +0.000 HD
ENDBRANCH  30  31
ENDBRANCH  28  30
ENDBRANCH  23  24
ENDBRANCH  22  23
ENDBRANCH   1  22
TORSDOF 7
ENDMDL
MODEL 7
REMARK VINA RESULT:      -8.6      4.463      8.926
REMARK  Name = 
REMARK  8 active torsions:
REMARK  status: ('A' for Active; 'I' for Inactive)
REMARK    1  A    between atoms: C_1  and  C_2
REMARK    2  A    between atoms: C_2  and  C_3
REMARK    3  A    between atoms: C_2  and  C_11
REMARK    4  A    between atoms: C_3  and  C_4
REMARK    5  A    between atoms: C_8  and  C_9
REMARK    6  A    between atoms: C_9  and  O_10
REMARK    7  A    between atoms: C_15  and  N_16
REMARK    8  A    between atoms: C_23  and  C_24
REMARK                            x       y       z     vdW  Elec       q    Type
REMARK                         _______ _______ _______ _____ _____    ______ ____
ROOT
ATOM      1  C   UNL     1       0.375  10.192  20.091  0.00  0.00    +0.000 A 
ATOM      2  C   UNL     1       0.439  10.325  21.479  0.00  0.00    +0.000 A 
ATOM      3  C   UNL     1       1.049   9.335  22.264  0.00  0.00    +0.000 A 
ATOM      4  C   UNL     1       1.625   8.201  21.679  0.00  0.00    +0.000 A 
ATOM      5  C   UNL     1       1.571   8.027  20.300  0.00  0.00    +0.000 A 
ATOM      6  C   UNL     1       0.912   9.018  19.540  0.00  0.00    +0.000 A 
ENDROOT
BRANCH   5   7
ATOM      7  N   UNL     1       2.150   6.917  19.630  0.00  0.00    +0.000 N 
ATOM      8  C   UNL     1       3.152   7.145  18.609  0.00  0.00    +0.000 C 
ATOM      9  C   UNL     1       3.502   5.788  18.127  0.00  0.00    +0.000 A 
ATOM     10  C   UNL     1       2.808   4.836  18.872  0.00  0.00    +0.000 A 
ATOM     11  C   UNL     1       2.997   3.485  18.660  0.00  0.00    +0.000 A 
ATOM     12  C   UNL     1       3.907   3.103  17.666  0.00  0.00    +0.000 A 
ATOM     13  C   UNL     1       4.588   4.067  16.896  0.00  0.00    +0.000 A 
ATOM     14  C   UNL     1       4.389   5.439  17.113  0.00  0.00    +0.000 A 
ATOM     15  C   UNL     1       1.926   5.553  19.829  0.00  0.00    +0.000 C 
ATOM     16  O   UNL     1       1.185   4.976  20.604  0.00  0.00    +0.000 OA
BRANCH  14  17
ATOM     17  C   UNL     1       5.095   6.475  16.275  0.00  0.00    +0.000 C 
ATOM     18  F   UNL     1       4.250   7.357  15.668  0.00  0.00    +0.000 F 
ATOM     19  F   UNL     1       5.957   7.236  17.000  0.00  0.00    +0.000 F 
ATOM     20  F   UNL     1       5.826   5.920  15.271  0.00  0.00    +0.000 F 
ENDBRANCH  14  17
ENDBRANCH   5   7
BRANCH   1  22
ATOM     21  C   UNL     1       0.767  12.194  18.528  0.00  0.00    +0.000 C 
ATOM     22  C   UNL     1      -0.250  11.223  19.140  0.00  0.00    +0.000 C 
BRANCH  22  23
ATOM     23  C   UNL     1      -1.074  10.516  18.027  0.00  0.00    +0.000 C 
BRANCH  23  24
ATOM     24  C   UNL     1      -2.446  11.076  17.797  0.00  0.00    +0.000 A 
ATOM     25  N   UNL     1      -3.126  11.644  18.802  0.00  0.00    +0.000 NA
ATOM     26  N   UNL     1      -4.294  12.002  18.248  0.00  0.00    +0.000 N 
ATOM     27  C   UNL     1      -4.389  11.680  16.928  0.00  0.00    +0.000 A 
ATOM     28  C   UNL     1      -3.204  11.061  16.591  0.00  0.00    +0.000 A 
ATOM     29  H   UNL     1      -4.985  12.459  18.834  0.00  0.00    +0.000 HD
BRANCH  28  30
ATOM     30  C   UNL     1      -2.810  10.493  15.278  0.00  0.00    +0.000 C 
BRANCH  30  31
ATOM     31  O   UNL     1      -3.935   9.987  14.569  0.00  0.00    +0.000 OA
ATOM     32  H   UNL     1      -4.199   9.168  15.024  0.00  0.00    +0.000 HD
ENDBRANCH  30  31
ENDBRANCH  28  30
ENDBRANCH  23  24
ENDBRANCH  22  23
ENDBRANCH   1  22
TORSDOF 7
ENDMDL
MODEL 8
REMARK VINA RESULT:      -8.6      1.249      1.907
REMARK  Name = 
REMARK  8 active torsions:
REMARK  status: ('A' for Active; 'I' for Inactive)
REMARK    1  A    between atoms: C_1  and  C_2
REMARK    2  A    between atoms: C_2  and  C_3
REMARK    3  A    between atoms: C_2  and  C_11
REMARK    4  A    between atoms: C_3  and  C_4
REMARK    5  A    between atoms: C_8  and  C_9
REMARK    6  A    between atoms: C_9  and  O_10
REMARK    7  A    between atoms: C_15  and  N_16
REMARK    8  A    between atoms: C_23  and  C_24
REMARK                            x       y       z     vdW  Elec       q    Type
REMARK                         _______ _______ _______ _____ _____    ______ ____
ROOT
ATOM      1  C   UNL     1       3.462   3.675  19.058  0.00  0.00    +0.000 A 
ATOM      2  C   UNL     1       3.102   2.918  20.175  0.00  0.00    +0.000 A 
ATOM      3  C   UNL     1       2.373   3.495  21.225  0.00  0.00    +0.000 A 
ATOM      4  C   UNL     1       1.971   4.836  21.176  0.00  0.00    +0.000 A 
ATOM      5  C   UNL     1       2.321   5.626  20.086  0.00  0.00    +0.000 A 
ATOM      6  C   UNL     1       3.092   5.029  19.064  0.00  0.00    +0.000 A 
ENDROOT
BRANCH   5   7
ATOM      7  N   UNL     1       1.933   6.986  19.952  0.00  0.00    +0.000 N 
ATOM      8  C   UNL     1       1.341   7.673  21.082  0.00  0.00    +0.000 C 
ATOM      9  C   UNL     1       1.052   9.034  20.573  0.00  0.00    +0.000 A 
ATOM     10  C   UNL     1       1.517   9.152  19.265  0.00  0.00    +0.000 A 
ATOM     11  C   UNL     1       1.420  10.344  18.576  0.00  0.00    +0.000 A 
ATOM     12  C   UNL     1       0.834  11.431  19.236  0.00  0.00    +0.000 A 
ATOM     13  C   UNL     1       0.341  11.304  20.550  0.00  0.00    +0.000 A 
ATOM     14  C   UNL     1       0.438  10.088  21.244  0.00  0.00    +0.000 A 
ATOM     15  C   UNL     1       2.070   7.836  18.852  0.00  0.00    +0.000 C 
ATOM     16  O   UNL     1       2.536   7.633  17.746  0.00  0.00    +0.000 OA
BRANCH  14  17
ATOM     17  C   UNL     1      -0.110   9.937  22.640  0.00  0.00    +0.000 C 
ATOM     18  F   UNL     1      -1.106   9.011  22.742  0.00  0.00    +0.000 F 
ATOM     19  F   UNL     1       0.837   9.554  23.537  0.00  0.00    +0.000 F 
ATOM     20  F   UNL     1      -0.642  11.096  23.117  0.00  0.00    +0.000 F 
ENDBRANCH  14  17
ENDBRANCH   5   7
BRANCH   1  22
ATOM     21  C   UNL     1       3.811   1.729  17.416  0.00  0.00    +0.000 C 
ATOM     22  C   UNL     1       4.238   3.138  17.848  0.00  0.00    +0.000 C 
BRANCH  22  23
ATOM     23  C   UNL     1       4.152   4.130  16.654  0.00  0.00    +0.000 C 
BRANCH  23  24
ATOM     24  C   UNL     1       5.470   4.623  16.138  0.00  0.00    +0.000 A 
ATOM     25  N   UNL     1       6.298   5.312  16.935  0.00  0.00    +0.000 NA
ATOM     26  N   UNL     1       7.345   5.603  16.150  0.00  0.00    +0.000 N 
ATOM     27  C   UNL     1       7.216   5.132  14.878  0.00  0.00    +0.000 A 
ATOM     28  C   UNL     1       5.996   4.492  14.821  0.00  0.00    +0.000 A 
ATOM     29  H   UNL     1       8.114   6.133  16.548  0.00  0.00    +0.000 HD
BRANCH  28  30
ATOM     30  C   UNL     1       5.365   3.828  13.653  0.00  0.00    +0.000 C 
BRANCH  30  31
ATOM     31  O   UNL     1       6.295   3.013  12.950  0.00  0.00    +0.000 OA
ATOM     32  H   UNL     1       5.800   2.234  12.644  0.00  0.00    +0.000 HD
ENDBRANCH  30  31
ENDBRANCH  28  30
ENDBRANCH  23  24
ENDBRANCH  22  23
ENDBRANCH   1  22
TORSDOF 7
ENDMDL
MODEL 9
REMARK VINA RESULT:      -8.6      3.754      9.654
REMARK  Name = 
REMARK  8 active torsions:
REMARK  status: ('A' for Active; 'I' for Inactive)
REMARK    1  A    between atoms: C_1  and  C_2
REMARK    2  A    between atoms: C_2  and  C_3
REMARK    3  A    between atoms: C_2  and  C_11
REMARK    4  A    between atoms: C_3  and  C_4
REMARK    5  A    between atoms: C_8  and  C_9
REMARK    6  A    between atoms: C_9  and  O_10
REMARK    7  A    between atoms: C_15  and  N_16
REMARK    8  A    between atoms: C_23  and  C_24
REMARK                            x       y       z     vdW  Elec       q    Type
REMARK                         _______ _______ _______ _____ _____    ______ ____
ROOT
ATOM      1  C   UNL     1       0.300  10.066  20.745  0.00  0.00    +0.000 A 
ATOM      2  C   UNL     1       0.352  11.054  19.759  0.00  0.00    +0.000 A 
ATOM      3  C   UNL     1       1.063  10.840  18.570  0.00  0.00    +0.000 A 
ATOM      4  C   UNL     1       1.723   9.629  18.329  0.00  0.00    +0.000 A 
ATOM      5  C   UNL     1       1.705   8.625  19.291  0.00  0.00    +0.000 A 
ATOM      6  C   UNL     1       1.017   8.885  20.497  0.00  0.00    +0.000 A 
ENDROOT
BRANCH   5   7
ATOM      7  N   UNL     1       2.330   7.362  19.114  0.00  0.00    +0.000 N 
ATOM      8  C   UNL     1       1.983   6.265  19.995  0.00  0.00    +0.000 C 
ATOM      9  C   UNL     1       2.831   5.141  19.534  0.00  0.00    +0.000 A 
ATOM     10  C   UNL     1       3.560   5.536  18.415  0.00  0.00    +0.000 A 
ATOM     11  C   UNL     1       4.391   4.653  17.754  0.00  0.00    +0.000 A 
ATOM     12  C   UNL     1       4.480   3.348  18.252  0.00  0.00    +0.000 A 
ATOM     13  C   UNL     1       3.762   2.957  19.399  0.00  0.00    +0.000 A 
ATOM     14  C   UNL     1       2.922   3.859  20.069  0.00  0.00    +0.000 A 
ATOM     15  C   UNL     1       3.257   6.966  18.147  0.00  0.00    +0.000 C 
ATOM     16  O   UNL     1       3.765   7.590  17.234  0.00  0.00    +0.000 OA
BRANCH  14  17
ATOM     17  C   UNL     1       2.171   3.456  21.313  0.00  0.00    +0.000 C 
ATOM     18  F   UNL     1       2.378   4.288  22.373  0.00  0.00    +0.000 F 
ATOM     19  F   UNL     1       0.825   3.430  21.127  0.00  0.00    +0.000 F 
ATOM     20  F   UNL     1       2.520   2.215  21.750  0.00  0.00    +0.000 F 
ENDBRANCH  14  17
ENDBRANCH   5   7
BRANCH   1  22
ATOM     21  C   UNL     1       0.182   9.421  23.230  0.00  0.00    +0.000 C 
ATOM     22  C   UNL     1      -0.465  10.189  22.070  0.00  0.00    +0.000 C 
BRANCH  22  23
ATOM     23  C   UNL     1      -0.676  11.682  22.448  0.00  0.00    +0.000 C 
BRANCH  23  24
ATOM     24  C   UNL     1      -2.105  12.099  22.625  0.00  0.00    +0.000 A 
ATOM     25  N   UNL     1      -2.828  11.630  23.652  0.00  0.00    +0.000 NA
ATOM     26  N   UNL     1      -4.037  12.185  23.483  0.00  0.00    +0.000 N 
ATOM     27  C   UNL     1      -4.117  12.986  22.384  0.00  0.00    +0.000 A 
ATOM     28  C   UNL     1      -2.876  12.951  21.783  0.00  0.00    +0.000 A 
ATOM     29  H   UNL     1      -4.765  11.968  24.156  0.00  0.00    +0.000 HD
BRANCH  28  30
ATOM     30  C   UNL     1      -2.443  13.632  20.538  0.00  0.00    +0.000 C 
BRANCH  30  31
ATOM     31  O   UNL     1      -2.686  12.826  19.391  0.00  0.00    +0.000 OA
ATOM     32  H   UNL     1      -3.558  12.417  19.524  0.00  0.00    +0.000 HD
ENDBRANCH  30  31
ENDBRANCH  28  30
ENDBRANCH  23  24
ENDBRANCH  22  23
ENDBRANCH   1  22
TORSDOF 7
ENDMDL
