MODEL 1
REMARK VINA RESULT:      -8.3      0.000      0.000
REMARK  Name = 
REMARK  8 active torsions:
REMARK  status: ('A' for Active; 'I' for Inactive)
REMARK    1  A    between atoms: C_1  and  C_2
REMARK    2  A    between atoms: C_2  and  S_3
REMARK    3  A    between atoms: C_2  and  C_10
REMARK    4  A    between atoms: S_3  and  C_4
REMARK    5  A    between atoms: N_8  and  C_9
REMARK    6  A    between atoms: C_14  and  N_15
REMARK    7  A    between atoms: C_16  and  C_18
REMARK    8  A    between atoms: C_23  and  C_24
REMARK                            x       y       z     vdW  Elec       q    Type
REMARK                         _______ _______ _______ _____ _____    ______ ____
ROOT
ATOM      1  C   UNL     1      -0.082  10.980  19.830  0.00  0.00    +0.000 A 
ATOM      2  C   UNL     1      -0.281  10.966  21.220  0.00  0.00    +0.000 A 
ATOM      3  C   UNL     1       0.316   9.997  22.021  0.00  0.00    +0.000 A 
ATOM      4  C   UNL     1       1.097   9.000  21.449  0.00  0.00    +0.000 A 
ATOM      5  C   UNL     1       1.311   8.967  20.071  0.00  0.00    +0.000 A 
ATOM      6  C   UNL     1       0.759   9.984  19.275  0.00  0.00    +0.000 A 
ENDROOT
BRANCH   5   7
ATOM      7  N   UNL     1       2.034   7.932  19.440  0.00  0.00    +0.000 N 
ATOM      8  C   UNL     1       2.078   6.605  19.840  0.00  0.00    +0.000 C 
ATOM      9  O   UNL     1       1.518   6.112  20.815  0.00  0.00    +0.000 OA
ATOM     10  H   UNL     1       2.477   8.132  18.546  0.00  0.00    +0.000 HD
BRANCH   8  11
ATOM     11  C   UNL     1       2.860   5.700  18.941  0.00  0.00    +0.000 A 
ATOM     12  C   UNL     1       3.588   6.253  17.900  0.00  0.00    +0.000 A 
ATOM     13  C   UNL     1       4.330   5.395  17.109  0.00  0.00    +0.000 A 
ATOM     14 CL   UNL     1       5.275   6.026  15.818  0.00  0.00    +0.000 Cl
ATOM     15  C   UNL     1       4.332   4.029  17.362  0.00  0.00    +0.000 A 
ATOM     16  C   UNL     1       3.573   3.541  18.425  0.00  0.00    +0.000 A 
ATOM     17  N   UNL     1       2.829   4.367  19.221  0.00  0.00    +0.000 NA
BRANCH  16  18
ATOM     18  C   UNL     1       3.578   2.044  18.724  0.00  0.00    +0.000 C 
ATOM     19  F   UNL     1       3.910   1.280  17.641  0.00  0.00    +0.000 F 
ATOM     20  F   UNL     1       4.468   1.706  19.696  0.00  0.00    +0.000 F 
ATOM     21  F   UNL     1       2.365   1.583  19.139  0.00  0.00    +0.000 F 
ENDBRANCH  16  18
ENDBRANCH   8  11
ENDBRANCH   5   7
BRANCH   1  23
ATOM     22  C   UNL     1      -0.470  13.470  19.303  0.00  0.00    +0.000 C 
ATOM     23  C   UNL     1      -0.768  12.008  18.920  0.00  0.00    +0.000 C 
BRANCH  23  24
ATOM     24  S   UNL     1      -2.594  11.724  18.959  0.00  0.00    +0.000 S 
BRANCH  24  25
ATOM     25  C   UNL     1      -2.888  10.986  17.428  0.00  0.00    +0.000 A 
ATOM     26  N   UNL     1      -2.091  10.181  16.765  0.00  0.00    +0.000 NA
ATOM     27  N   UNL     1      -2.676   9.930  15.541  0.00  0.00    +0.000 NA
ATOM     28  C   UNL     1      -3.823  10.572  15.511  0.00  0.00    +0.000 A 
ATOM     29  N   UNL     1      -4.015  11.220  16.695  0.00  0.00    +0.000 N 
ATOM     30  C   UNL     1      -5.171  11.990  17.063  0.00  0.00    +0.000 C 
ENDBRANCH  24  25
ENDBRANCH  23  24
ENDBRANCH   1  23
TORSDOF 6
ENDMDL
MODEL 2
REMARK VINA RESULT:      -8.3      5.062      9.004
REMARK  Name = 
REMARK  8 active torsions:
REMARK  status: ('A' for Active; 'I' for Inactive)
REMARK    1  A    between atoms: C_1  and  C_2
REMARK    2  A    between atoms: C_2  and  S_3
REMARK    3  A    between atoms: C_2  and  C_10
REMARK    4  A    between atoms: S_3  and  C_4
REMARK    5  A    between atoms: N_8  and  C_9
REMARK    6  A    between atoms: C_14  and  N_15
REMARK    7  A    between atoms: C_16  and  C_18
REMARK    8  A    between atoms: C_23  and  C_24
REMARK                            x       y       z     vdW  Elec       q    Type
REMARK                         _______ _______ _______ _____ _____    ______ ____
ROOT
ATOM      1  C   UNL     1       4.292   4.818  17.142  0.00  0.00    +0.000 A 
ATOM      2  C   UNL     1       3.866   3.573  17.634  0.00  0.00    +0.000 A 
ATOM      3  C   UNL     1       2.867   3.485  18.598  0.00  0.00    +0.000 A 
ATOM      4  C   UNL     1       2.294   4.639  19.119  0.00  0.00    +0.000 A 
ATOM      5  C   UNL     1       2.695   5.898  18.669  0.00  0.00    +0.000 A 
ATOM      6  C   UNL     1       3.659   5.978  17.650  0.00  0.00    +0.000 A 
ENDROOT
BRANCH   5   7
ATOM      7  N   UNL     1       2.194   7.096  19.222  0.00  0.00    +0.000 N 
ATOM      8  C   UNL     1       1.986   8.285  18.539  0.00  0.00    +0.000 C 
ATOM      9  O   UNL     1       2.219   8.504  17.354  0.00  0.00    +0.000 OA
ATOM     10  H   UNL     1       1.843   7.074  20.176  0.00  0.00    +0.000 HD
BRANCH   8  11
ATOM     11  C   UNL     1       1.369   9.380  19.352  0.00  0.00    +0.000 A 
ATOM     12  C   UNL     1       1.262  10.646  18.801  0.00  0.00    +0.000 A 
ATOM     13  C   UNL     1       0.653  11.627  19.561  0.00  0.00    +0.000 A 
ATOM     14 CL   UNL     1       0.469  13.213  18.921  0.00  0.00    +0.000 Cl
ATOM     15  C   UNL     1       0.173  11.336  20.832  0.00  0.00    +0.000 A 
ATOM     16  C   UNL     1       0.317  10.040  21.325  0.00  0.00    +0.000 A 
ATOM     17  N   UNL     1       0.916   9.052  20.594  0.00  0.00    +0.000 NA
BRANCH  16  18
ATOM     18  C   UNL     1      -0.220   9.703  22.714  0.00  0.00    +0.000 C 
ATOM     19  F   UNL     1      -0.992  10.695  23.248  0.00  0.00    +0.000 F 
ATOM     20  F   UNL     1      -1.001   8.589  22.718  0.00  0.00    +0.000 F 
ATOM     21  F   UNL     1       0.769   9.480  23.623  0.00  0.00    +0.000 F 
ENDBRANCH  16  18
ENDBRANCH   8  11
ENDBRANCH   5   7
BRANCH   1  23
ATOM     22  C   UNL     1       5.289   3.976  14.922  0.00  0.00    +0.000 C 
ATOM     23  C   UNL     1       5.426   4.942  16.115  0.00  0.00    +0.000 C 
BRANCH  23  24
ATOM     24  S   UNL     1       7.042   4.646  16.962  0.00  0.00    +0.000 S 
BRANCH  24  25
ATOM     25  C   UNL     1       7.498   6.235  17.458  0.00  0.00    +0.000 A 
ATOM     26  N   UNL     1       7.572   7.312  16.712  0.00  0.00    +0.000 NA
ATOM     27  N   UNL     1       8.090   8.324  17.493  0.00  0.00    +0.000 NA
ATOM     28  C   UNL     1       8.290   7.834  18.696  0.00  0.00    +0.000 A 
ATOM     29  N   UNL     1       7.894   6.530  18.729  0.00  0.00    +0.000 N 
ATOM     30  C   UNL     1       7.912   5.667  19.879  0.00  0.00    +0.000 C 
ENDBRANCH  24  25
ENDBRANCH  23  24
ENDBRANCH   1  23
TORSDOF 6
ENDMDL
MODEL 3
REMARK VINA RESULT:      -8.3      2.256      2.666
REMARK  Name = 
REMARK  8 active torsions:
REMARK  status: ('A' for Active; 'I' for Inactive)
REMARK    1  A    between atoms: C_1  and  C_2
REMARK    2  A    between atoms: C_2  and  S_3
REMARK    3  A    between atoms: C_2  and  C_10
REMARK    4  A    between atoms: S_3  and  C_4
REMARK    5  A    between atoms: N_8  and  C_9
REMARK    6  A    between atoms: C_14  and  N_15
REMARK    7  A    between atoms: C_16  and  C_18
REMARK    8  A    between atoms: C_23  and  C_24
REMARK                            x       y       z     vdW  Elec       q    Type
REMARK                         _______ _______ _______ _____ _____    ______ ____
ROOT
ATOM      1  C   UNL     1       0.109  10.348  19.987  0.00  0.00    +0.000 A 
ATOM      2  C   UNL     1      -0.371  10.360  21.308  0.00  0.00    +0.000 A 
ATOM      3  C   UNL     1       0.080   9.436  22.244  0.00  0.00    +0.000 A 
ATOM      4  C   UNL     1       0.995   8.456  21.876  0.00  0.00    +0.000 A 
ATOM      5  C   UNL     1       1.488   8.397  20.572  0.00  0.00    +0.000 A 
ATOM      6  C   UNL     1       1.078   9.373  19.648  0.00  0.00    +0.000 A 
ENDROOT
BRANCH   5   7
ATOM      7  N   UNL     1       2.359   7.376  20.135  0.00  0.00    +0.000 N 
ATOM      8  C   UNL     1       2.134   6.011  20.240  0.00  0.00    +0.000 C 
ATOM      9  O   UNL     1       1.159   5.463  20.745  0.00  0.00    +0.000 OA
ATOM     10  H   UNL     1       3.176   7.643  19.591  0.00  0.00    +0.000 HD
BRANCH   8  11
ATOM     11  C   UNL     1       3.188   5.148  19.621  0.00  0.00    +0.000 A 
ATOM     12  C   UNL     1       2.844   3.883  19.175  0.00  0.00    +0.000 A 
ATOM     13  C   UNL     1       3.830   3.124  18.574  0.00  0.00    +0.000 A 
ATOM     14 CL   UNL     1       3.456   1.554  17.977  0.00  0.00    +0.000 Cl
ATOM     15  C   UNL     1       5.117   3.627  18.432  0.00  0.00    +0.000 A 
ATOM     16  C   UNL     1       5.394   4.909  18.906  0.00  0.00    +0.000 A 
ATOM     17  N   UNL     1       4.437   5.679  19.506  0.00  0.00    +0.000 NA
BRANCH  16  18
ATOM     18  C   UNL     1       6.800   5.480  18.742  0.00  0.00    +0.000 C 
ATOM     19  F   UNL     1       7.421   5.733  19.933  0.00  0.00    +0.000 F 
ATOM     20  F   UNL     1       7.632   4.641  18.067  0.00  0.00    +0.000 F 
ATOM     21  F   UNL     1       6.816   6.661  18.063  0.00  0.00    +0.000 F 
ENDBRANCH  16  18
ENDBRANCH   8  11
ENDBRANCH   5   7
BRANCH   1  23
ATOM     22  C   UNL     1       0.520  12.533  18.688  0.00  0.00    +0.000 C 
ATOM     23  C   UNL     1      -0.409  11.326  18.924  0.00  0.00    +0.000 C 
BRANCH  23  24
ATOM     24  S   UNL     1      -2.083  11.931  19.425  0.00  0.00    +0.000 S 
BRANCH  24  25
ATOM     25  C   UNL     1      -3.040  11.564  18.037  0.00  0.00    +0.000 A 
ATOM     26  N   UNL     1      -2.616  11.190  16.853  0.00  0.00    +0.000 NA
ATOM     27  N   UNL     1      -3.714  11.123  16.020  0.00  0.00    +0.000 NA
ATOM     28  C   UNL     1      -4.772  11.434  16.734  0.00  0.00    +0.000 A 
ATOM     29  N   UNL     1      -4.399  11.682  18.021  0.00  0.00    +0.000 N 
ATOM     30  C   UNL     1      -5.277  12.008  19.111  0.00  0.00    +0.000 C 
ENDBRANCH  24  25
ENDBRANCH  23  24
ENDBRANCH   1  23
TORSDOF 6
ENDMDL
MODEL 4
REMARK VINA RESULT:      -8.3      2.226      2.562
REMARK  Name = 
REMARK  8 active torsions:
REMARK  status: ('A' for Active; 'I' for Inactive)
REMARK    1  A    between atoms: C_1  and  C_2
REMARK    2  A    between atoms: C_2  and  S_3
REMARK    3  A    between atoms: C_2  and  C_10
REMARK    4  A    between atoms: S_3  and  C_4
REMARK    5  A    between atoms: N_8  and  C_9
REMARK    6  A    between atoms: C_14  and  N_15
REMARK    7  A    between atoms: C_16  and  C_18
REMARK    8  A    between atoms: C_23  and  C_24
REMARK                            x       y       z     vdW  Elec       q    Type
REMARK                         _______ _______ _______ _____ _____    ______ ____
ROOT
ATOM      1  C   UNL     1       0.350  10.586  19.790  0.00  0.00    +0.000 A 
ATOM      2  C   UNL     1       0.235  10.663  21.188  0.00  0.00    +0.000 A 
ATOM      3  C   UNL     1       0.738   9.657  22.007  0.00  0.00    +0.000 A 
ATOM      4  C   UNL     1       1.337   8.534  21.448  0.00  0.00    +0.000 A 
ATOM      5  C   UNL     1       1.461   8.408  20.064  0.00  0.00    +0.000 A 
ATOM      6  C   UNL     1       1.009   9.456  19.245  0.00  0.00    +0.000 A 
ENDROOT
BRANCH   5   7
ATOM      7  N   UNL     1       1.993   7.253  19.451  0.00  0.00    +0.000 N 
ATOM      8  C   UNL     1       2.801   7.226  18.324  0.00  0.00    +0.000 C 
ATOM      9  O   UNL     1       3.171   8.190  17.661  0.00  0.00    +0.000 OA
ATOM     10  H   UNL     1       1.880   6.362  19.928  0.00  0.00    +0.000 HD
BRANCH   8  11
ATOM     11  C   UNL     1       3.293   5.868  17.933  0.00  0.00    +0.000 A 
ATOM     12  C   UNL     1       2.511   4.762  18.223  0.00  0.00    +0.000 A 
ATOM     13  C   UNL     1       2.974   3.524  17.816  0.00  0.00    +0.000 A 
ATOM     14 CL   UNL     1       2.036   2.116  18.125  0.00  0.00    +0.000 Cl
ATOM     15  C   UNL     1       4.185   3.412  17.143  0.00  0.00    +0.000 A 
ATOM     16  C   UNL     1       4.922   4.568  16.888  0.00  0.00    +0.000 A 
ATOM     17  N   UNL     1       4.487   5.804  17.281  0.00  0.00    +0.000 NA
BRANCH  16  18
ATOM     18  C   UNL     1       6.246   4.461  16.136  0.00  0.00    +0.000 C 
ATOM     19  F   UNL     1       6.273   3.433  15.237  0.00  0.00    +0.000 F 
ATOM     20  F   UNL     1       6.535   5.582  15.420  0.00  0.00    +0.000 F 
ATOM     21  F   UNL     1       7.308   4.252  16.963  0.00  0.00    +0.000 F 
ENDBRANCH  16  18
ENDBRANCH   8  11
ENDBRANCH   5   7
BRANCH   1  23
ATOM     22  C   UNL     1       0.316  13.072  19.122  0.00  0.00    +0.000 C 
ATOM     23  C   UNL     1      -0.240  11.658  18.864  0.00  0.00    +0.000 C 
BRANCH  23  24
ATOM     24  S   UNL     1      -2.078  11.678  19.058  0.00  0.00    +0.000 S 
BRANCH  24  25
ATOM     25  C   UNL     1      -2.616  11.021  17.557  0.00  0.00    +0.000 A 
ATOM     26  N   UNL     1      -1.924  10.296  16.710  0.00  0.00    +0.000 NA
ATOM     27  N   UNL     1      -2.710  10.092  15.595  0.00  0.00    +0.000 NA
ATOM     28  C   UNL     1      -3.866  10.679  15.813  0.00  0.00    +0.000 A 
ATOM     29  N   UNL     1      -3.864  11.245  17.053  0.00  0.00    +0.000 N 
ATOM     30  C   UNL     1      -4.962  11.936  17.672  0.00  0.00    +0.000 C 
ENDBRANCH  24  25
ENDBRANCH  23  24
ENDBRANCH   1  23
TORSDOF 6
ENDMDL
MODEL 5
REMARK VINA RESULT:      -8.1      2.330      2.639
REMARK  Name = 
REMARK  8 active torsions:
REMARK  status: ('A' for Active; 'I' for Inactive)
REMARK    1  A    between atoms: C_1  and  C_2
REMARK    2  A    between atoms: C_2  and  S_3
REMARK    3  A    between atoms: C_2  and  C_10
REMARK    4  A    between atoms: S_3  and  C_4
REMARK    5  A    between atoms: N_8  and  C_9
REMARK    6  A    between atoms: C_14  and  N_15
REMARK    7  A    between atoms: C_16  and  C_18
REMARK    8  A    between atoms: C_23  and  C_24
REMARK                            x       y       z     vdW  Elec       q    Type
REMARK                         _______ _______ _______ _____ _____    ______ ____
ROOT
ATOM      1  C   UNL     1       0.239  10.592  19.870  0.00  0.00    +0.000 A 
ATOM      2  C   UNL     1      -0.108  10.591  21.232  0.00  0.00    +0.000 A 
ATOM      3  C   UNL     1       0.333   9.584  22.085  0.00  0.00    +0.000 A 
ATOM      4  C   UNL     1       1.101   8.536  21.592  0.00  0.00    +0.000 A 
ATOM      5  C   UNL     1       1.458   8.488  20.244  0.00  0.00    +0.000 A 
ATOM      6  C   UNL     1       1.064   9.541  19.401  0.00  0.00    +0.000 A 
ENDROOT
BRANCH   5   7
ATOM      7  N   UNL     1       2.173   7.407  19.686  0.00  0.00    +0.000 N 
ATOM      8  C   UNL     1       2.699   7.351  18.404  0.00  0.00    +0.000 C 
ATOM      9  O   UNL     1       2.617   8.216  17.537  0.00  0.00    +0.000 OA
ATOM     10  H   UNL     1       2.434   6.637  20.298  0.00  0.00    +0.000 HD
BRANCH   8  11
ATOM     11  C   UNL     1       3.483   6.114  18.097  0.00  0.00    +0.000 A 
ATOM     12  C   UNL     1       2.813   4.908  17.970  0.00  0.00    +0.000 A 
ATOM     13  C   UNL     1       3.558   3.790  17.649  0.00  0.00    +0.000 A 
ATOM     14 CL   UNL     1       2.778   2.269  17.453  0.00  0.00    +0.000 Cl
ATOM     15  C   UNL     1       4.933   3.889  17.465  0.00  0.00    +0.000 A 
ATOM     16  C   UNL     1       5.542   5.134  17.612  0.00  0.00    +0.000 A 
ATOM     17  N   UNL     1       4.828   6.255  17.930  0.00  0.00    +0.000 NA
BRANCH  16  18
ATOM     18  C   UNL     1       7.048   5.259  17.398  0.00  0.00    +0.000 C 
ATOM     19  F   UNL     1       7.402   6.374  16.692  0.00  0.00    +0.000 F 
ATOM     20  F   UNL     1       7.740   5.333  18.567  0.00  0.00    +0.000 F 
ATOM     21  F   UNL     1       7.574   4.208  16.709  0.00  0.00    +0.000 F 
ENDBRANCH  16  18
ENDBRANCH   8  11
ENDBRANCH   5   7
BRANCH   1  23
ATOM     22  C   UNL     1       0.431  13.025  19.052  0.00  0.00    +0.000 C 
ATOM     23  C   UNL     1      -0.275  11.664  18.900  0.00  0.00    +0.000 C 
BRANCH  23  24
ATOM     24  S   UNL     1      -2.093  11.885  19.153  0.00  0.00    +0.000 S 
BRANCH  24  25
ATOM     25  C   UNL     1      -2.742  11.383  17.636  0.00  0.00    +0.000 A 
ATOM     26  N   UNL     1      -2.083  10.910  16.604  0.00  0.00    +0.000 NA
ATOM     27  N   UNL     1      -2.983  10.754  15.571  0.00  0.00    +0.000 NA
ATOM     28  C   UNL     1      -4.166  11.113  16.017  0.00  0.00    +0.000 A 
ATOM     29  N   UNL     1      -4.067  11.481  17.326  0.00  0.00    +0.000 N 
ATOM     30  C   UNL     1      -5.151  11.891  18.176  0.00  0.00    +0.000 C 
ENDBRANCH  24  25
ENDBRANCH  23  24
ENDBRANCH   1  23
TORSDOF 6
ENDMDL
MODEL 6
REMARK VINA RESULT:      -8.1      2.556      3.511
REMARK  Name = 
REMARK  8 active torsions:
REMARK  status: ('A' for Active; 'I' for Inactive)
REMARK    1  A    between atoms: C_1  and  C_2
REMARK    2  A    between atoms: C_2  and  S_3
REMARK    3  A    between atoms: C_2  and  C_10
REMARK    4  A    between atoms: S_3  and  C_4
REMARK    5  A    between atoms: N_8  and  C_9
REMARK    6  A    between atoms: C_14  and  N_15
REMARK    7  A    between atoms: C_16  and  C_18
REMARK    8  A    between atoms: C_23  and  C_24
REMARK                            x       y       z     vdW  Elec       q    Type
REMARK                         _______ _______ _______ _____ _____    ______ ____
ROOT
ATOM      1  C   UNL     1      -0.343  11.174  18.572  0.00  0.00    +0.000 A 
ATOM      2  C   UNL     1       0.579  12.232  18.622  0.00  0.00    +0.000 A 
ATOM      3  C   UNL     1       1.934  12.016  18.392  0.00  0.00    +0.000 A 
ATOM      4  C   UNL     1       2.405  10.732  18.140  0.00  0.00    +0.000 A 
ATOM      5  C   UNL     1       1.527   9.649  18.094  0.00  0.00    +0.000 A 
ATOM      6  C   UNL     1       0.152   9.883  18.263  0.00  0.00    +0.000 A 
ENDROOT
BRANCH   5   7
ATOM      7  N   UNL     1       1.969   8.321  17.916  0.00  0.00    +0.000 N 
ATOM      8  C   UNL     1       2.249   7.411  18.925  0.00  0.00    +0.000 C 
ATOM      9  O   UNL     1       2.181   7.610  20.134  0.00  0.00    +0.000 OA
ATOM     10  H   UNL     1       1.981   7.942  16.972  0.00  0.00    +0.000 HD
BRANCH   8  11
ATOM     11  C   UNL     1       2.624   6.041  18.454  0.00  0.00    +0.000 A 
ATOM     12  C   UNL     1       3.666   5.904  17.551  0.00  0.00    +0.000 A 
ATOM     13  C   UNL     1       4.014   4.624  17.163  0.00  0.00    +0.000 A 
ATOM     14 CL   UNL     1       5.317   4.388  16.065  0.00  0.00    +0.000 Cl
ATOM     15  C   UNL     1       3.331   3.524  17.669  0.00  0.00    +0.000 A 
ATOM     16  C   UNL     1       2.290   3.737  18.572  0.00  0.00    +0.000 A 
ATOM     17  N   UNL     1       1.925   4.993  18.970  0.00  0.00    +0.000 NA
BRANCH  16  18
ATOM     18  C   UNL     1       1.541   2.538  19.147  0.00  0.00    +0.000 C 
ATOM     19  F   UNL     1       0.342   2.307  18.534  0.00  0.00    +0.000 F 
ATOM     20  F   UNL     1       2.241   1.377  19.030  0.00  0.00    +0.000 F 
ATOM     21  F   UNL     1       1.253   2.679  20.471  0.00  0.00    +0.000 F 
ENDBRANCH  16  18
ENDBRANCH   8  11
ENDBRANCH   5   7
BRANCH   1  23
ATOM     22  C   UNL     1      -2.719  11.416  17.608  0.00  0.00    +0.000 C 
ATOM     23  C   UNL     1      -1.835  11.379  18.870  0.00  0.00    +0.000 C 
BRANCH  23  24
ATOM     24  S   UNL     1      -2.050  12.954  19.815  0.00  0.00    +0.000 S 
BRANCH  24  25
ATOM     25  C   UNL     1      -1.892  12.428  21.451  0.00  0.00    +0.000 A 
ATOM     26  N   UNL     1      -0.809  11.983  22.044  0.00  0.00    +0.000 NA
ATOM     27  N   UNL     1      -1.170  11.566  23.309  0.00  0.00    +0.000 NA
ATOM     28  C   UNL     1      -2.456  11.796  23.451  0.00  0.00    +0.000 A 
ATOM     29  N   UNL     1      -2.944  12.374  22.318  0.00  0.00    +0.000 N 
ATOM     30  C   UNL     1      -4.295  12.817  22.105  0.00  0.00    +0.000 C 
ENDBRANCH  24  25
ENDBRANCH  23  24
ENDBRANCH   1  23
TORSDOF 6
ENDMDL
MODEL 7
REMARK VINA RESULT:      -8.0      5.738      9.425
REMARK  Name = 
REMARK  8 active torsions:
REMARK  status: ('A' for Active; 'I' for Inactive)
REMARK    1  A    between atoms: C_1  and  C_2
REMARK    2  A    between atoms: C_2  and  S_3
REMARK    3  A    between atoms: C_2  and  C_10
REMARK    4  A    between atoms: S_3  and  C_4
REMARK    5  A    between atoms: N_8  and  C_9
REMARK    6  A    between atoms: C_14  and  N_15
REMARK    7  A    between atoms: C_16  and  C_18
REMARK    8  A    between atoms: C_23  and  C_24
REMARK                            x       y       z     vdW  Elec       q    Type
REMARK                         _______ _______ _______ _____ _____    ______ ____
ROOT
ATOM      1  C   UNL     1       4.711   5.411  17.673  0.00  0.00    +0.000 A 
ATOM      2  C   UNL     1       4.773   4.206  18.393  0.00  0.00    +0.000 A 
ATOM      3  C   UNL     1       3.947   3.981  19.489  0.00  0.00    +0.000 A 
ATOM      4  C   UNL     1       3.063   4.967  19.915  0.00  0.00    +0.000 A 
ATOM      5  C   UNL     1       2.977   6.184  19.239  0.00  0.00    +0.000 A 
ATOM      6  C   UNL     1       3.768   6.381  18.094  0.00  0.00    +0.000 A 
ENDROOT
BRANCH   5   7
ATOM      7  N   UNL     1       2.150   7.240  19.679  0.00  0.00    +0.000 N 
ATOM      8  C   UNL     1       1.891   8.415  18.990  0.00  0.00    +0.000 C 
ATOM      9  O   UNL     1       2.349   8.745  17.900  0.00  0.00    +0.000 OA
ATOM     10  H   UNL     1       1.596   7.096  20.520  0.00  0.00    +0.000 HD
BRANCH   8  11
ATOM     11  C   UNL     1       0.911   9.332  19.652  0.00  0.00    +0.000 A 
ATOM     12  C   UNL     1       0.721   9.236  21.021  0.00  0.00    +0.000 A 
ATOM     13  C   UNL     1      -0.163  10.120  21.609  0.00  0.00    +0.000 A 
ATOM     14 CL   UNL     1      -0.422  10.067  23.309  0.00  0.00    +0.000 Cl
ATOM     15  C   UNL     1      -0.831  11.066  20.840  0.00  0.00    +0.000 A 
ATOM     16  C   UNL     1      -0.593  11.103  19.466  0.00  0.00    +0.000 A 
ATOM     17  N   UNL     1       0.275  10.239  18.859  0.00  0.00    +0.000 NA
BRANCH  16  18
ATOM     18  C   UNL     1      -1.308  12.146  18.611  0.00  0.00    +0.000 C 
ATOM     19  F   UNL     1      -1.667  11.679  17.379  0.00  0.00    +0.000 F 
ATOM     20  F   UNL     1      -2.460  12.593  19.182  0.00  0.00    +0.000 F 
ATOM     21  F   UNL     1      -0.545  13.251  18.376  0.00  0.00    +0.000 F 
ENDBRANCH  16  18
ENDBRANCH   8  11
ENDBRANCH   5   7
BRANCH   1  23
ATOM     22  C   UNL     1       5.068   6.714  15.482  0.00  0.00    +0.000 C 
ATOM     23  C   UNL     1       5.644   5.702  16.491  0.00  0.00    +0.000 C 
BRANCH  23  24
ATOM     24  S   UNL     1       6.026   4.117  15.619  0.00  0.00    +0.000 S 
BRANCH  24  25
ATOM     25  C   UNL     1       6.974   4.650  14.280  0.00  0.00    +0.000 A 
ATOM     26  N   UNL     1       7.965   5.509  14.297  0.00  0.00    +0.000 NA
ATOM     27  N   UNL     1       8.351   5.726  12.990  0.00  0.00    +0.000 NA
ATOM     28  C   UNL     1       7.596   4.970  12.224  0.00  0.00    +0.000 A 
ATOM     29  N   UNL     1       6.740   4.246  12.998  0.00  0.00    +0.000 N 
ATOM     30  C   UNL     1       5.790   3.273  12.531  0.00  0.00    +0.000 C 
ENDBRANCH  24  25
ENDBRANCH  23  24
ENDBRANCH   1  23
TORSDOF 6
ENDMDL
MODEL 8
REMARK VINA RESULT:      -8.0      1.237      1.314
REMARK  Name = 
REMARK  8 active torsions:
REMARK  status: ('A' for Active; 'I' for Inactive)
REMARK    1  A    between atoms: C_1  and  C_2
REMARK    2  A    between atoms: C_2  and  S_3
REMARK    3  A    between atoms: C_2  and  C_10
REMARK    4  A    between atoms: S_3  and  C_4
REMARK    5  A    between atoms: N_8  and  C_9
REMARK    6  A    between atoms: C_14  and  N_15
REMARK    7  A    between atoms: C_16  and  C_18
REMARK    8  A    between atoms: C_23  and  C_24
REMARK                            x       y       z     vdW  Elec       q    Type
REMARK                         _______ _______ _______ _____ _____    ______ ____
ROOT
ATOM      1  C   UNL     1       0.302  10.582  19.885  0.00  0.00    +0.000 A 
ATOM      2  C   UNL     1       0.011  10.509  21.257  0.00  0.00    +0.000 A 
ATOM      3  C   UNL     1       0.479   9.455  22.035  0.00  0.00    +0.000 A 
ATOM      4  C   UNL     1       1.220   8.431  21.455  0.00  0.00    +0.000 A 
ATOM      5  C   UNL     1       1.521   8.456  20.093  0.00  0.00    +0.000 A 
ATOM      6  C   UNL     1       1.101   9.555  19.326  0.00  0.00    +0.000 A 
ENDROOT
BRANCH   5   7
ATOM      7  N   UNL     1       2.205   7.403  19.448  0.00  0.00    +0.000 N 
ATOM      8  C   UNL     1       2.756   7.446  18.176  0.00  0.00    +0.000 C 
ATOM      9  O   UNL     1       2.724   8.390  17.392  0.00  0.00    +0.000 OA
ATOM     10  H   UNL     1       2.423   6.570  19.990  0.00  0.00    +0.000 HD
BRANCH   8  11
ATOM     11  C   UNL     1       3.498   6.212  17.767  0.00  0.00    +0.000 A 
ATOM     12  C   UNL     1       4.503   6.316  16.820  0.00  0.00    +0.000 A 
ATOM     13  C   UNL     1       5.196   5.166  16.490  0.00  0.00    +0.000 A 
ATOM     14 CL   UNL     1       6.472   5.238  15.339  0.00  0.00    +0.000 Cl
ATOM     15  C   UNL     1       4.880   3.956  17.096  0.00  0.00    +0.000 A 
ATOM     16  C   UNL     1       3.854   3.924  18.040  0.00  0.00    +0.000 A 
ATOM     17  N   UNL     1       3.152   5.047  18.382  0.00  0.00    +0.000 NA
BRANCH  16  18
ATOM     18  C   UNL     1       3.507   2.605  18.724  0.00  0.00    +0.000 C 
ATOM     19  F   UNL     1       3.361   1.566  17.849  0.00  0.00    +0.000 F 
ATOM     20  F   UNL     1       4.461   2.206  19.610  0.00  0.00    +0.000 F 
ATOM     21  F   UNL     1       2.338   2.662  19.422  0.00  0.00    +0.000 F 
ENDBRANCH  16  18
ENDBRANCH   8  11
ENDBRANCH   5   7
BRANCH   1  23
ATOM     22  C   UNL     1       0.570  13.015  19.084  0.00  0.00    +0.000 C 
ATOM     23  C   UNL     1      -0.243  11.709  18.996  0.00  0.00    +0.000 C 
BRANCH  23  24
ATOM     24  S   UNL     1      -2.000  12.047  19.462  0.00  0.00    +0.000 S 
BRANCH  24  25
ATOM     25  C   UNL     1      -2.857  11.581  18.039  0.00  0.00    +0.000 A 
ATOM     26  N   UNL     1      -2.348  11.172  16.900  0.00  0.00    +0.000 NA
ATOM     27  N   UNL     1      -3.390  11.024  16.008  0.00  0.00    +0.000 NA
ATOM     28  C   UNL     1      -4.501  11.323  16.643  0.00  0.00    +0.000 A 
ATOM     29  N   UNL     1      -4.216  11.643  17.937  0.00  0.00    +0.000 N 
ATOM     30  C   UNL     1      -5.170  11.982  18.958  0.00  0.00    +0.000 C 
ENDBRANCH  24  25
ENDBRANCH  23  24
ENDBRANCH   1  23
TORSDOF 6
ENDMDL
MODEL 9
REMARK VINA RESULT:      -8.0      1.229      1.502
REMARK  Name = 
REMARK  8 active torsions:
REMARK  status: ('A' for Active; 'I' for Inactive)
REMARK    1  A    between atoms: C_1  and  C_2
REMARK    2  A    between atoms: C_2  and  S_3
REMARK    3  A    between atoms: C_2  and  C_10
REMARK    4  A    between atoms: S_3  and  C_4
REMARK    5  A    between atoms: N_8  and  C_9
REMARK    6  A    between atoms: C_14  and  N_15
REMARK    7  A    between atoms: C_16  and  C_18
REMARK    8  A    between atoms: C_23  and  C_24
REMARK                            x       y       z     vdW  Elec       q    Type
REMARK                         _______ _______ _______ _____ _____    ______ ____
ROOT
ATOM      1  C   UNL     1      -0.078  10.683  20.058  0.00  0.00    +0.000 A 
ATOM      2  C   UNL     1      -0.571  10.797  21.369  0.00  0.00    +0.000 A 
ATOM      3  C   UNL     1      -0.203   9.888  22.356  0.00  0.00    +0.000 A 
ATOM      4  C   UNL     1       0.638   8.824  22.050  0.00  0.00    +0.000 A 
ATOM      5  C   UNL     1       1.141   8.664  20.759  0.00  0.00    +0.000 A 
ATOM      6  C   UNL     1       0.817   9.621  19.782  0.00  0.00    +0.000 A 
ENDROOT
BRANCH   5   7
ATOM      7  N   UNL     1       1.936   7.559  20.386  0.00  0.00    +0.000 N 
ATOM      8  C   UNL     1       2.427   7.299  19.115  0.00  0.00    +0.000 C 
ATOM      9  O   UNL     1       2.240   7.968  18.103  0.00  0.00    +0.000 OA
ATOM     10  H   UNL     1       2.284   6.949  21.121  0.00  0.00    +0.000 HD
BRANCH   8  11
ATOM     11  C   UNL     1       3.313   6.097  19.015  0.00  0.00    +0.000 A 
ATOM     12  C   UNL     1       4.480   6.184  18.273  0.00  0.00    +0.000 A 
ATOM     13  C   UNL     1       5.297   5.069  18.229  0.00  0.00    +0.000 A 
ATOM     14 CL   UNL     1       6.771   5.124  17.345  0.00  0.00    +0.000 Cl
ATOM     15  C   UNL     1       4.943   3.910  18.910  0.00  0.00    +0.000 A 
ATOM     16  C   UNL     1       3.752   3.894  19.635  0.00  0.00    +0.000 A 
ATOM     17  N   UNL     1       2.926   4.982  19.693  0.00  0.00    +0.000 NA
BRANCH  16  18
ATOM     18  C   UNL     1       3.360   2.632  20.400  0.00  0.00    +0.000 C 
ATOM     19  F   UNL     1       2.809   2.893  21.622  0.00  0.00    +0.000 F 
ATOM     20  F   UNL     1       2.439   1.881  19.736  0.00  0.00    +0.000 F 
ATOM     21  F   UNL     1       4.419   1.810  20.643  0.00  0.00    +0.000 F 
ENDBRANCH  16  18
ENDBRANCH   8  11
ENDBRANCH   5   7
BRANCH   1  23
ATOM     22  C   UNL     1       0.153  13.033  19.033  0.00  0.00    +0.000 C 
ATOM     23  C   UNL     1      -0.507  11.644  18.941  0.00  0.00    +0.000 C 
BRANCH  23  24
ATOM     24  S   UNL     1      -2.345  11.835  18.982  0.00  0.00    +0.000 S 
BRANCH  24  25
ATOM     25  C   UNL     1      -2.815  11.238  17.433  0.00  0.00    +0.000 A 
ATOM     26  N   UNL     1      -2.052  10.652  16.540  0.00  0.00    +0.000 NA
ATOM     27  N   UNL     1      -2.815  10.452  15.408  0.00  0.00    +0.000 NA
ATOM     28  C   UNL     1      -4.024  10.900  15.661  0.00  0.00    +0.000 A 
ATOM     29  N   UNL     1      -4.080  11.370  16.939  0.00  0.00    +0.000 N 
ATOM     30  C   UNL     1      -5.242  11.898  17.600  0.00  0.00    +0.000 C 
ENDBRANCH  24  25
ENDBRANCH  23  24
ENDBRANCH   1  23
TORSDOF 6
ENDMDL
