MODEL 1
REMARK VINA RESULT:      -8.5      0.000      0.000
REMARK  Name = 
REMARK  8 active torsions:
REMARK  status: ('A' for Active; 'I' for Inactive)
REMARK    1  A    between atoms: C_1  and  C_2
REMARK    2  A    between atoms: C_2  and  S_3
REMARK    3  A    between atoms: C_2  and  C_10
REMARK    4  A    between atoms: S_3  and  C_4
REMARK    5  A    between atoms: N_8  and  C_9
REMARK    6  A    between atoms: C_14  and  C_15
REMARK    7  A    between atoms: C_17  and  C_18
REMARK    8  A    between atoms: C_21  and  C_22
REMARK                            x       y       z     vdW  Elec       q    Type
REMARK                         _______ _______ _______ _____ _____    ______ ____
ROOT
ATOM      1  C   UNL     1       4.377   5.088  16.954  0.00  0.00    +0.000 A 
ATOM      2  C   UNL     1       4.922   4.310  15.918  0.00  0.00    +0.000 A 
ATOM      3  C   UNL     1       6.224   4.511  15.469  0.00  0.00    +0.000 A 
ATOM      4  C   UNL     1       7.007   5.510  16.035  0.00  0.00    +0.000 A 
ATOM      5  C   UNL     1       6.500   6.321  17.059  0.00  0.00    +0.000 A 
ATOM      6  C   UNL     1       5.186   6.104  17.505  0.00  0.00    +0.000 A 
ENDROOT
BRANCH   5   7
ATOM      7  C   UNL     1       7.349   7.345  17.647  0.00  0.00    +0.000 A 
ATOM      8  C   UNL     1       7.544   8.681  17.397  0.00  0.00    +0.000 A 
ATOM      9  C   UNL     1       8.500   9.101  18.353  0.00  0.00    +0.000 A 
ATOM     10  N   UNL     1       8.892   8.066  19.110  0.00  0.00    +0.000 NA
ATOM     11  O   UNL     1       8.163   6.974  18.674  0.00  0.00    +0.000 OA
BRANCH   9  12
ATOM     12  C   UNL     1       9.014  10.450  18.551  0.00  0.00    +0.000 A 
ATOM     13  C   UNL     1       8.594  11.494  17.713  0.00  0.00    +0.000 A 
ATOM     14  C   UNL     1       9.065  12.793  17.907  0.00  0.00    +0.000 A 
ATOM     15  C   UNL     1       9.969  13.061  18.944  0.00  0.00    +0.000 A 
ATOM     16  C   UNL     1      10.397  12.024  19.777  0.00  0.00    +0.000 A 
ATOM     17  C   UNL     1       9.921  10.725  19.583  0.00  0.00    +0.000 A 
BRANCH  15  18
ATOM     18  C   UNL     1      10.444  14.396  19.146  0.00  0.00    +0.000 C 
ATOM     19  N   UNL     1      10.828  15.478  19.302  0.00  0.00    +0.000 NA
ENDBRANCH  15  18
ENDBRANCH   9  12
ENDBRANCH   5   7
BRANCH   1  21
ATOM     20  C   UNL     1       2.715   5.633  18.812  0.00  0.00    +0.000 C 
ATOM     21  C   UNL     1       2.969   4.847  17.520  0.00  0.00    +0.000 C 
BRANCH  21  22
ATOM     22  S   UNL     1       2.714   3.037  17.753  0.00  0.00    +0.000 S 
BRANCH  22  23
ATOM     23  C   UNL     1       2.191   2.878  19.390  0.00  0.00    +0.000 A 
ATOM     24  N   UNL     1       0.979   3.028  19.873  0.00  0.00    +0.000 NA
ATOM     25  N   UNL     1       1.060   2.974  21.247  0.00  0.00    +0.000 NA
ATOM     26  C   UNL     1       2.315   2.754  21.560  0.00  0.00    +0.000 A 
ATOM     27  N   UNL     1       3.054   2.633  20.420  0.00  0.00    +0.000 N 
ATOM     28  C   UNL     1       4.450   2.295  20.354  0.00  0.00    +0.000 C 
ENDBRANCH  22  23
ENDBRANCH  21  22
ENDBRANCH   1  21
TORSDOF 6
ENDMDL
MODEL 2
REMARK VINA RESULT:      -8.3      0.465      1.010
REMARK  Name = 
REMARK  8 active torsions:
REMARK  status: ('A' for Active; 'I' for Inactive)
REMARK    1  A    between atoms: C_1  and  C_2
REMARK    2  A    between atoms: C_2  and  S_3
REMARK    3  A    between atoms: C_2  and  C_10
REMARK    4  A    between atoms: S_3  and  C_4
REMARK    5  A    between atoms: N_8  and  C_9
REMARK    6  A    between atoms: C_14  and  C_15
REMARK    7  A    between atoms: C_17  and  C_18
REMARK    8  A    between atoms: C_21  and  C_22
REMARK                            x       y       z     vdW  Elec       q    Type
REMARK                         _______ _______ _______ _____ _____    ______ ____
ROOT
ATOM      1  C   UNL     1       4.470   4.653  16.666  0.00  0.00    +0.000 A 
ATOM      2  C   UNL     1       5.034   4.035  15.536  0.00  0.00    +0.000 A 
ATOM      3  C   UNL     1       6.306   4.376  15.083  0.00  0.00    +0.000 A 
ATOM      4  C   UNL     1       7.036   5.358  15.742  0.00  0.00    +0.000 A 
ATOM      5  C   UNL     1       6.508   6.013  16.863  0.00  0.00    +0.000 A 
ATOM      6  C   UNL     1       5.226   5.655  17.310  0.00  0.00    +0.000 A 
ENDROOT
BRANCH   5   7
ATOM      7  C   UNL     1       7.304   7.022  17.543  0.00  0.00    +0.000 A 
ATOM      8  C   UNL     1       7.505   8.366  17.352  0.00  0.00    +0.000 A 
ATOM      9  C   UNL     1       8.385   8.760  18.388  0.00  0.00    +0.000 A 
ATOM     10  N   UNL     1       8.730   7.703  19.137  0.00  0.00    +0.000 NA
ATOM     11  O   UNL     1       8.044   6.622  18.614  0.00  0.00    +0.000 OA
BRANCH   9  12
ATOM     12  C   UNL     1       8.872  10.105  18.666  0.00  0.00    +0.000 A 
ATOM     13  C   UNL     1       9.486  10.391  19.895  0.00  0.00    +0.000 A 
ATOM     14  C   UNL     1       9.974  11.670  20.164  0.00  0.00    +0.000 A 
ATOM     15  C   UNL     1       9.848  12.682  19.202  0.00  0.00    +0.000 A 
ATOM     16  C   UNL     1       9.231  12.406  17.980  0.00  0.00    +0.000 A 
ATOM     17  C   UNL     1       8.747  11.123  17.711  0.00  0.00    +0.000 A 
BRANCH  15  18
ATOM     18  C   UNL     1      10.357  13.992  19.477  0.00  0.00    +0.000 C 
ATOM     19  N   UNL     1      10.774  15.049  19.704  0.00  0.00    +0.000 NA
ENDBRANCH  15  18
ENDBRANCH   9  12
ENDBRANCH   5   7
BRANCH   1  21
ATOM     20  C   UNL     1       2.622   5.201  18.338  0.00  0.00    +0.000 C 
ATOM     21  C   UNL     1       3.100   4.251  17.233  0.00  0.00    +0.000 C 
BRANCH  21  22
ATOM     22  S   UNL     1       3.173   2.503  17.810  0.00  0.00    +0.000 S 
BRANCH  22  23
ATOM     23  C   UNL     1       2.455   2.532  19.379  0.00  0.00    +0.000 A 
ATOM     24  N   UNL     1       1.184   2.655  19.688  0.00  0.00    +0.000 NA
ATOM     25  N   UNL     1       1.091   2.796  21.055  0.00  0.00    +0.000 NA
ATOM     26  C   UNL     1       2.306   2.716  21.543  0.00  0.00    +0.000 A 
ATOM     27  N   UNL     1       3.191   2.496  20.529  0.00  0.00    +0.000 N 
ATOM     28  C   UNL     1       4.601   2.257  20.679  0.00  0.00    +0.000 C 
ENDBRANCH  22  23
ENDBRANCH  21  22
ENDBRANCH   1  21
TORSDOF 6
ENDMDL
MODEL 3
REMARK VINA RESULT:      -8.3      0.785      1.575
REMARK  Name = 
REMARK  8 active torsions:
REMARK  status: ('A' for Active; 'I' for Inactive)
REMARK    1  A    between atoms: C_1  and  C_2
REMARK    2  A    between atoms: C_2  and  S_3
REMARK    3  A    between atoms: C_2  and  C_10
REMARK    4  A    between atoms: S_3  and  C_4
REMARK    5  A    between atoms: N_8  and  C_9
REMARK    6  A    between atoms: C_14  and  C_15
REMARK    7  A    between atoms: C_17  and  C_18
REMARK    8  A    between atoms: C_21  and  C_22
REMARK                            x       y       z     vdW  Elec       q    Type
REMARK                         _______ _______ _______ _____ _____    ______ ____
ROOT
ATOM      1  C   UNL     1       4.504   5.297  17.192  0.00  0.00    +0.000 A 
ATOM      2  C   UNL     1       5.088   4.383  16.298  0.00  0.00    +0.000 A 
ATOM      3  C   UNL     1       6.413   4.514  15.891  0.00  0.00    +0.000 A 
ATOM      4  C   UNL     1       7.181   5.574  16.357  0.00  0.00    +0.000 A 
ATOM      5  C   UNL     1       6.636   6.519  17.237  0.00  0.00    +0.000 A 
ATOM      6  C   UNL     1       5.299   6.372  17.642  0.00  0.00    +0.000 A 
ENDROOT
BRANCH   5   7
ATOM      7  C   UNL     1       7.469   7.607  17.725  0.00  0.00    +0.000 A 
ATOM      8  C   UNL     1       7.638   8.918  17.354  0.00  0.00    +0.000 A 
ATOM      9  C   UNL     1       8.590   9.440  18.261  0.00  0.00    +0.000 A 
ATOM     10  N   UNL     1       9.004   8.485  19.107  0.00  0.00    +0.000 NA
ATOM     11  O   UNL     1       8.294   7.346  18.777  0.00  0.00    +0.000 OA
BRANCH   9  12
ATOM     12  C   UNL     1       9.080  10.810  18.333  0.00  0.00    +0.000 A 
ATOM     13  C   UNL     1      10.279  11.095  19.004  0.00  0.00    +0.000 A 
ATOM     14  C   UNL     1      10.768  12.401  19.061  0.00  0.00    +0.000 A 
ATOM     15  C   UNL     1      10.056  13.441  18.448  0.00  0.00    +0.000 A 
ATOM     16  C   UNL     1       8.857  13.165  17.786  0.00  0.00    +0.000 A 
ATOM     17  C   UNL     1       8.372  11.856  17.726  0.00  0.00    +0.000 A 
BRANCH  15  18
ATOM     18  C   UNL     1      10.563  14.778  18.501  0.00  0.00    +0.000 C 
ATOM     19  N   UNL     1      10.980  15.858  18.542  0.00  0.00    +0.000 NA
ENDBRANCH  15  18
ENDBRANCH   9  12
ENDBRANCH   5   7
BRANCH   1  21
ATOM     20  C   UNL     1       2.842   5.888  19.036  0.00  0.00    +0.000 C 
ATOM     21  C   UNL     1       3.068   5.142  17.714  0.00  0.00    +0.000 C 
BRANCH  21  22
ATOM     22  S   UNL     1       2.666   3.350  17.856  0.00  0.00    +0.000 S 
BRANCH  22  23
ATOM     23  C   UNL     1       3.363   2.864  19.358  0.00  0.00    +0.000 A 
ATOM     24  N   UNL     1       4.617   2.570  19.613  0.00  0.00    +0.000 NA
ATOM     25  N   UNL     1       4.685   2.074  20.897  0.00  0.00    +0.000 NA
ATOM     26  C   UNL     1       3.474   2.116  21.400  0.00  0.00    +0.000 A 
ATOM     27  N   UNL     1       2.619   2.656  20.485  0.00  0.00    +0.000 N 
ATOM     28  C   UNL     1       1.229   2.953  20.704  0.00  0.00    +0.000 C 
ENDBRANCH  22  23
ENDBRANCH  21  22
ENDBRANCH   1  21
TORSDOF 6
ENDMDL
MODEL 4
REMARK VINA RESULT:      -8.2      6.337      9.456
REMARK  Name = 
REMARK  8 active torsions:
REMARK  status: ('A' for Active; 'I' for Inactive)
REMARK    1  A    between atoms: C_1  and  C_2
REMARK    2  A    between atoms: C_2  and  S_3
REMARK    3  A    between atoms: C_2  and  C_10
REMARK    4  A    between atoms: S_3  and  C_4
REMARK    5  A    between atoms: N_8  and  C_9
REMARK    6  A    between atoms: C_14  and  C_15
REMARK    7  A    between atoms: C_17  and  C_18
REMARK    8  A    between atoms: C_21  and  C_22
REMARK                            x       y       z     vdW  Elec       q    Type
REMARK                         _______ _______ _______ _____ _____    ______ ____
ROOT
ATOM      1  C   UNL     1      -0.373  11.192  20.778  0.00  0.00    +0.000 A 
ATOM      2  C   UNL     1      -0.592  11.044  22.159  0.00  0.00    +0.000 A 
ATOM      3  C   UNL     1      -0.118   9.935  22.853  0.00  0.00    +0.000 A 
ATOM      4  C   UNL     1       0.572   8.936  22.176  0.00  0.00    +0.000 A 
ATOM      5  C   UNL     1       0.800   9.033  20.797  0.00  0.00    +0.000 A 
ATOM      6  C   UNL     1       0.319  10.160  20.111  0.00  0.00    +0.000 A 
ENDROOT
BRANCH   5   7
ATOM      7  C   UNL     1       1.543   7.982  20.119  0.00  0.00    +0.000 A 
ATOM      8  C   UNL     1       2.171   7.892  18.902  0.00  0.00    +0.000 A 
ATOM      9  C   UNL     1       2.729   6.592  18.868  0.00  0.00    +0.000 A 
ATOM     10  N   UNL     1       2.417   5.919  19.986  0.00  0.00    +0.000 NA
ATOM     11  O   UNL     1       1.687   6.794  20.769  0.00  0.00    +0.000 OA
BRANCH   9  12
ATOM     12  C   UNL     1       3.547   6.011  17.811  0.00  0.00    +0.000 A 
ATOM     13  C   UNL     1       4.386   6.829  17.039  0.00  0.00    +0.000 A 
ATOM     14  C   UNL     1       5.187   6.279  16.039  0.00  0.00    +0.000 A 
ATOM     15  C   UNL     1       5.155   4.899  15.796  0.00  0.00    +0.000 A 
ATOM     16  C   UNL     1       4.316   4.080  16.556  0.00  0.00    +0.000 A 
ATOM     17  C   UNL     1       3.517   4.632  17.561  0.00  0.00    +0.000 A 
BRANCH  15  18
ATOM     18  C   UNL     1       5.985   4.337  14.775  0.00  0.00    +0.000 C 
ATOM     19  N   UNL     1       6.662   3.885  13.951  0.00  0.00    +0.000 NA
ENDBRANCH  15  18
ENDBRANCH   9  12
ENDBRANCH   5   7
BRANCH   1  21
ATOM     20  C   UNL     1      -0.364  13.741  20.660  0.00  0.00    +0.000 C 
ATOM     21  C   UNL     1      -0.822  12.436  19.997  0.00  0.00    +0.000 C 
BRANCH  21  22
ATOM     22  S   UNL     1      -2.649  12.382  19.771  0.00  0.00    +0.000 S 
BRANCH  22  23
ATOM     23  C   UNL     1      -2.876  11.667  18.217  0.00  0.00    +0.000 A 
ATOM     24  N   UNL     1      -1.960  11.245  17.376  0.00  0.00    +0.000 NA
ATOM     25  N   UNL     1      -2.588  10.907  16.198  0.00  0.00    +0.000 NA
ATOM     26  C   UNL     1      -3.875  11.097  16.368  0.00  0.00    +0.000 A 
ATOM     27  N   UNL     1      -4.107  11.524  17.642  0.00  0.00    +0.000 N 
ATOM     28  C   UNL     1      -5.399  11.747  18.233  0.00  0.00    +0.000 C 
ENDBRANCH  22  23
ENDBRANCH  21  22
ENDBRANCH   1  21
TORSDOF 6
ENDMDL
MODEL 5
REMARK VINA RESULT:      -8.2      7.272      9.010
REMARK  Name = 
REMARK  8 active torsions:
REMARK  status: ('A' for Active; 'I' for Inactive)
REMARK    1  A    between atoms: C_1  and  C_2
REMARK    2  A    between atoms: C_2  and  S_3
REMARK    3  A    between atoms: C_2  and  C_10
REMARK    4  A    between atoms: S_3  and  C_4
REMARK    5  A    between atoms: N_8  and  C_9
REMARK    6  A    between atoms: C_14  and  C_15
REMARK    7  A    between atoms: C_17  and  C_18
REMARK    8  A    between atoms: C_21  and  C_22
REMARK                            x       y       z     vdW  Elec       q    Type
REMARK                         _______ _______ _______ _____ _____    ______ ____
ROOT
ATOM      1  C   UNL     1       2.315   7.375  19.420  0.00  0.00    +0.000 A 
ATOM      2  C   UNL     1       2.267   7.876  18.107  0.00  0.00    +0.000 A 
ATOM      3  C   UNL     1       1.602   9.061  17.808  0.00  0.00    +0.000 A 
ATOM      4  C   UNL     1       0.951   9.765  18.814  0.00  0.00    +0.000 A 
ATOM      5  C   UNL     1       0.957   9.295  20.135  0.00  0.00    +0.000 A 
ATOM      6  C   UNL     1       1.636   8.100  20.422  0.00  0.00    +0.000 A 
ENDROOT
BRANCH   5   7
ATOM      7  C   UNL     1       0.285  10.063  21.170  0.00  0.00    +0.000 A 
ATOM      8  C   UNL     1      -0.378  11.265  21.187  0.00  0.00    +0.000 A 
ATOM      9  C   UNL     1      -0.820  11.426  22.522  0.00  0.00    +0.000 A 
ATOM     10  N   UNL     1      -0.409  10.398  23.279  0.00  0.00    +0.000 NA
ATOM     11  O   UNL     1       0.269   9.543  22.430  0.00  0.00    +0.000 OA
BRANCH   9  12
ATOM     12  C   UNL     1      -1.622  12.517  23.060  0.00  0.00    +0.000 A 
ATOM     13  C   UNL     1      -1.042  13.777  23.277  0.00  0.00    +0.000 A 
ATOM     14  C   UNL     1      -1.806  14.833  23.773  0.00  0.00    +0.000 A 
ATOM     15  C   UNL     1      -3.164  14.639  24.061  0.00  0.00    +0.000 A 
ATOM     16  C   UNL     1      -3.745  13.386  23.854  0.00  0.00    +0.000 A 
ATOM     17  C   UNL     1      -2.979  12.330  23.353  0.00  0.00    +0.000 A 
BRANCH  15  18
ATOM     18  C   UNL     1      -3.948  15.727  24.561  0.00  0.00    +0.000 C 
ATOM     19  N   UNL     1      -4.588  16.606  24.962  0.00  0.00    +0.000 NA
ENDBRANCH  15  18
ENDBRANCH   9  12
ENDBRANCH   5   7
BRANCH   1  21
ATOM     20  C   UNL     1       4.135   5.725  18.733  0.00  0.00    +0.000 C 
ATOM     21  C   UNL     1       3.098   6.108  19.796  0.00  0.00    +0.000 C 
BRANCH  21  22
ATOM     22  S   UNL     1       1.911   4.739  20.127  0.00  0.00    +0.000 S 
BRANCH  22  23
ATOM     23  C   UNL     1       2.275   3.548  18.932  0.00  0.00    +0.000 A 
ATOM     24  N   UNL     1       1.733   3.395  17.746  0.00  0.00    +0.000 NA
ATOM     25  N   UNL     1       2.210   2.220  17.209  0.00  0.00    +0.000 NA
ATOM     26  C   UNL     1       3.060   1.709  18.069  0.00  0.00    +0.000 A 
ATOM     27  N   UNL     1       3.173   2.539  19.145  0.00  0.00    +0.000 N 
ATOM     28  C   UNL     1       4.078   2.368  20.248  0.00  0.00    +0.000 C 
ENDBRANCH  22  23
ENDBRANCH  21  22
ENDBRANCH   1  21
TORSDOF 6
ENDMDL
MODEL 6
REMARK VINA RESULT:      -8.1      7.093      8.786
REMARK  Name = 
REMARK  8 active torsions:
REMARK  status: ('A' for Active; 'I' for Inactive)
REMARK    1  A    between atoms: C_1  and  C_2
REMARK    2  A    between atoms: C_2  and  S_3
REMARK    3  A    between atoms: C_2  and  C_10
REMARK    4  A    between atoms: S_3  and  C_4
REMARK    5  A    between atoms: N_8  and  C_9
REMARK    6  A    between atoms: C_14  and  C_15
REMARK    7  A    between atoms: C_17  and  C_18
REMARK    8  A    between atoms: C_21  and  C_22
REMARK                            x       y       z     vdW  Elec       q    Type
REMARK                         _______ _______ _______ _____ _____    ______ ____
ROOT
ATOM      1  C   UNL     1       2.417   7.386  19.120  0.00  0.00    +0.000 A 
ATOM      2  C   UNL     1       2.444   7.979  17.846  0.00  0.00    +0.000 A 
ATOM      3  C   UNL     1       1.853   9.217  17.610  0.00  0.00    +0.000 A 
ATOM      4  C   UNL     1       1.202   9.883  18.642  0.00  0.00    +0.000 A 
ATOM      5  C   UNL     1       1.135   9.322  19.925  0.00  0.00    +0.000 A 
ATOM      6  C   UNL     1       1.740   8.075  20.149  0.00  0.00    +0.000 A 
ENDROOT
BRANCH   5   7
ATOM      7  C   UNL     1       0.466  10.052  20.990  0.00  0.00    +0.000 A 
ATOM      8  C   UNL     1      -0.218  11.241  21.048  0.00  0.00    +0.000 A 
ATOM      9  C   UNL     1      -0.642  11.360  22.393  0.00  0.00    +0.000 A 
ATOM     10  N   UNL     1      -0.201  10.320  23.117  0.00  0.00    +0.000 NA
ATOM     11  O   UNL     1       0.479   9.500  22.236  0.00  0.00    +0.000 OA
BRANCH   9  12
ATOM     12  C   UNL     1      -1.454  12.423  22.970  0.00  0.00    +0.000 A 
ATOM     13  C   UNL     1      -0.926  13.714  23.114  0.00  0.00    +0.000 A 
ATOM     14  C   UNL     1      -1.702  14.743  23.648  0.00  0.00    +0.000 A 
ATOM     15  C   UNL     1      -3.021  14.488  24.048  0.00  0.00    +0.000 A 
ATOM     16  C   UNL     1      -3.551  13.203  23.914  0.00  0.00    +0.000 A 
ATOM     17  C   UNL     1      -2.773  12.174  23.376  0.00  0.00    +0.000 A 
BRANCH  15  18
ATOM     18  C   UNL     1      -3.819  15.548  24.587  0.00  0.00    +0.000 C 
ATOM     19  N   UNL     1      -4.458  16.410  25.022  0.00  0.00    +0.000 NA
ENDBRANCH  15  18
ENDBRANCH   9  12
ENDBRANCH   5   7
BRANCH   1  21
ATOM     20  C   UNL     1       4.533   5.988  18.839  0.00  0.00    +0.000 C 
ATOM     21  C   UNL     1       3.119   6.056  19.430  0.00  0.00    +0.000 C 
BRANCH  21  22
ATOM     22  S   UNL     1       2.062   4.664  18.848  0.00  0.00    +0.000 S 
BRANCH  22  23
ATOM     23  C   UNL     1       2.038   3.552  20.168  0.00  0.00    +0.000 A 
ATOM     24  N   UNL     1       1.107   3.396  21.081  0.00  0.00    +0.000 NA
ATOM     25  N   UNL     1       1.586   2.519  22.029  0.00  0.00    +0.000 NA
ATOM     26  C   UNL     1       2.781   2.137  21.646  0.00  0.00    +0.000 A 
ATOM     27  N   UNL     1       3.085   2.721  20.452  0.00  0.00    +0.000 N 
ATOM     28  C   UNL     1       4.265   2.472  19.669  0.00  0.00    +0.000 C 
ENDBRANCH  22  23
ENDBRANCH  21  22
ENDBRANCH   1  21
TORSDOF 6
ENDMDL
MODEL 7
REMARK VINA RESULT:      -8.0      6.931      8.883
REMARK  Name = 
REMARK  8 active torsions:
REMARK  status: ('A' for Active; 'I' for Inactive)
REMARK    1  A    between atoms: C_1  and  C_2
REMARK    2  A    between atoms: C_2  and  S_3
REMARK    3  A    between atoms: C_2  and  C_10
REMARK    4  A    between atoms: S_3  and  C_4
REMARK    5  A    between atoms: N_8  and  C_9
REMARK    6  A    between atoms: C_14  and  C_15
REMARK    7  A    between atoms: C_17  and  C_18
REMARK    8  A    between atoms: C_21  and  C_22
REMARK                            x       y       z     vdW  Elec       q    Type
REMARK                         _______ _______ _______ _____ _____    ______ ____
ROOT
ATOM      1  C   UNL     1       2.413   6.670  19.217  0.00  0.00    +0.000 A 
ATOM      2  C   UNL     1       2.644   7.273  17.968  0.00  0.00    +0.000 A 
ATOM      3  C   UNL     1       2.270   8.590  17.718  0.00  0.00    +0.000 A 
ATOM      4  C   UNL     1       1.636   9.331  18.709  0.00  0.00    +0.000 A 
ATOM      5  C   UNL     1       1.370   8.766  19.964  0.00  0.00    +0.000 A 
ATOM      6  C   UNL     1       1.757   7.438  20.202  0.00  0.00    +0.000 A 
ENDROOT
BRANCH   5   7
ATOM      7  C   UNL     1       0.724   9.572  20.988  0.00  0.00    +0.000 A 
ATOM      8  C   UNL     1      -0.010  10.732  20.967  0.00  0.00    +0.000 A 
ATOM      9  C   UNL     1      -0.368  10.969  22.315  0.00  0.00    +0.000 A 
ATOM     10  N   UNL     1       0.157  10.027  23.112  0.00  0.00    +0.000 NA
ATOM     11  O   UNL     1       0.828   9.150  22.279  0.00  0.00    +0.000 OA
BRANCH   9  12
ATOM     12  C   UNL     1      -1.197  12.051  22.830  0.00  0.00    +0.000 A 
ATOM     13  C   UNL     1      -2.500  11.788  23.278  0.00  0.00    +0.000 A 
ATOM     14  C   UNL     1      -3.295  12.813  23.791  0.00  0.00    +0.000 A 
ATOM     15  C   UNL     1      -2.792  14.120  23.858  0.00  0.00    +0.000 A 
ATOM     16  C   UNL     1      -1.498  14.390  23.407  0.00  0.00    +0.000 A 
ATOM     17  C   UNL     1      -0.702  13.361  22.897  0.00  0.00    +0.000 A 
BRANCH  15  18
ATOM     18  C   UNL     1      -3.607  15.169  24.393  0.00  0.00    +0.000 C 
ATOM     19  N   UNL     1      -4.265  16.022  24.819  0.00  0.00    +0.000 NA
ENDBRANCH  15  18
ENDBRANCH   9  12
ENDBRANCH   5   7
BRANCH   1  21
ATOM     20  C   UNL     1       2.288   4.728  20.867  0.00  0.00    +0.000 C 
ATOM     21  C   UNL     1       2.876   5.244  19.547  0.00  0.00    +0.000 C 
BRANCH  21  22
ATOM     22  S   UNL     1       4.717   5.190  19.545  0.00  0.00    +0.000 S 
BRANCH  22  23
ATOM     23  C   UNL     1       5.139   4.751  17.930  0.00  0.00    +0.000 A 
ATOM     24  N   UNL     1       4.375   4.206  17.011  0.00  0.00    +0.000 NA
ATOM     25  N   UNL     1       5.172   3.878  15.936  0.00  0.00    +0.000 NA
ATOM     26  C   UNL     1       6.393   4.267  16.217  0.00  0.00    +0.000 A 
ATOM     27  N   UNL     1       6.409   4.871  17.440  0.00  0.00    +0.000 N 
ATOM     28  C   UNL     1       7.543   5.511  18.048  0.00  0.00    +0.000 C 
ENDBRANCH  22  23
ENDBRANCH  21  22
ENDBRANCH   1  21
TORSDOF 6
ENDMDL
MODEL 8
REMARK VINA RESULT:      -8.0      5.258      8.371
REMARK  Name = 
REMARK  8 active torsions:
REMARK  status: ('A' for Active; 'I' for Inactive)
REMARK    1  A    between atoms: C_1  and  C_2
REMARK    2  A    between atoms: C_2  and  S_3
REMARK    3  A    between atoms: C_2  and  C_10
REMARK    4  A    between atoms: S_3  and  C_4
REMARK    5  A    between atoms: N_8  and  C_9
REMARK    6  A    between atoms: C_14  and  C_15
REMARK    7  A    between atoms: C_17  and  C_18
REMARK    8  A    between atoms: C_21  and  C_22
REMARK                            x       y       z     vdW  Elec       q    Type
REMARK                         _______ _______ _______ _____ _____    ______ ____
ROOT
ATOM      1  C   UNL     1       5.001   4.913  18.229  0.00  0.00    +0.000 A 
ATOM      2  C   UNL     1       4.649   3.733  18.907  0.00  0.00    +0.000 A 
ATOM      3  C   UNL     1       3.570   3.697  19.786  0.00  0.00    +0.000 A 
ATOM      4  C   UNL     1       2.828   4.848  20.021  0.00  0.00    +0.000 A 
ATOM      5  C   UNL     1       3.153   6.051  19.381  0.00  0.00    +0.000 A 
ATOM      6  C   UNL     1       4.241   6.072  18.494  0.00  0.00    +0.000 A 
ENDROOT
BRANCH   5   7
ATOM      7  C   UNL     1       2.346   7.235  19.631  0.00  0.00    +0.000 A 
ATOM      8  C   UNL     1       1.514   7.624  20.652  0.00  0.00    +0.000 A 
ATOM      9  C   UNL     1       1.055   8.912  20.286  0.00  0.00    +0.000 A 
ATOM     10  N   UNL     1       1.548   9.263  19.089  0.00  0.00    +0.000 NA
ATOM     11  O   UNL     1       2.363   8.219  18.689  0.00  0.00    +0.000 OA
BRANCH   9  12
ATOM     12  C   UNL     1       0.184   9.789  21.057  0.00  0.00    +0.000 A 
ATOM     13  C   UNL     1      -0.578  10.773  20.409  0.00  0.00    +0.000 A 
ATOM     14  C   UNL     1      -1.429  11.605  21.136  0.00  0.00    +0.000 A 
ATOM     15  C   UNL     1      -1.525  11.462  22.528  0.00  0.00    +0.000 A 
ATOM     16  C   UNL     1      -0.763  10.490  23.180  0.00  0.00    +0.000 A 
ATOM     17  C   UNL     1       0.086   9.655  22.449  0.00  0.00    +0.000 A 
BRANCH  15  18
ATOM     18  C   UNL     1      -2.406  12.312  23.271  0.00  0.00    +0.000 C 
ATOM     19  N   UNL     1      -3.123  12.993  23.874  0.00  0.00    +0.000 NA
ENDBRANCH  15  18
ENDBRANCH   9  12
ENDBRANCH   5   7
BRANCH   1  21
ATOM     20  C   UNL     1       6.760   6.369  17.090  0.00  0.00    +0.000 C 
ATOM     21  C   UNL     1       6.142   4.969  17.202  0.00  0.00    +0.000 C 
BRANCH  21  22
ATOM     22  S   UNL     1       5.523   4.357  15.578  0.00  0.00    +0.000 S 
BRANCH  22  23
ATOM     23  C   UNL     1       6.775   4.752  14.458  0.00  0.00    +0.000 A 
ATOM     24  N   UNL     1       7.810   5.539  14.641  0.00  0.00    +0.000 NA
ATOM     25  N   UNL     1       8.447   5.693  13.429  0.00  0.00    +0.000 NA
ATOM     26  C   UNL     1       7.802   4.962  12.549  0.00  0.00    +0.000 A 
ATOM     27  N   UNL     1       6.775   4.310  13.164  0.00  0.00    +0.000 N 
ATOM     28  C   UNL     1       5.903   3.345  12.551  0.00  0.00    +0.000 C 
ENDBRANCH  22  23
ENDBRANCH  21  22
ENDBRANCH   1  21
TORSDOF 6
ENDMDL
MODEL 9
REMARK VINA RESULT:      -8.0      1.046      1.409
REMARK  Name = 
REMARK  8 active torsions:
REMARK  status: ('A' for Active; 'I' for Inactive)
REMARK    1  A    between atoms: C_1  and  C_2
REMARK    2  A    between atoms: C_2  and  S_3
REMARK    3  A    between atoms: C_2  and  C_10
REMARK    4  A    between atoms: S_3  and  C_4
REMARK    5  A    between atoms: N_8  and  C_9
REMARK    6  A    between atoms: C_14  and  C_15
REMARK    7  A    between atoms: C_17  and  C_18
REMARK    8  A    between atoms: C_21  and  C_22
REMARK                            x       y       z     vdW  Elec       q    Type
REMARK                         _______ _______ _______ _____ _____    ______ ____
ROOT
ATOM      1  C   UNL     1       4.920   4.221  16.987  0.00  0.00    +0.000 A 
ATOM      2  C   UNL     1       5.358   3.796  15.721  0.00  0.00    +0.000 A 
ATOM      3  C   UNL     1       6.449   4.393  15.094  0.00  0.00    +0.000 A 
ATOM      4  C   UNL     1       7.116   5.443  15.714  0.00  0.00    +0.000 A 
ATOM      5  C   UNL     1       6.704   5.910  16.969  0.00  0.00    +0.000 A 
ATOM      6  C   UNL     1       5.605   5.296  17.591  0.00  0.00    +0.000 A 
ENDROOT
BRANCH   5   7
ATOM      7  C   UNL     1       7.435   6.997  17.602  0.00  0.00    +0.000 A 
ATOM      8  C   UNL     1       7.604   8.328  17.313  0.00  0.00    +0.000 A 
ATOM      9  C   UNL     1       8.420   8.833  18.353  0.00  0.00    +0.000 A 
ATOM     10  N   UNL     1       8.760   7.851  19.201  0.00  0.00    +0.000 NA
ATOM     11  O   UNL     1       8.134   6.709  18.736  0.00  0.00    +0.000 OA
BRANCH   9  12
ATOM     12  C   UNL     1       8.851  10.211  18.545  0.00  0.00    +0.000 A 
ATOM     13  C   UNL     1       8.405  11.217  17.674  0.00  0.00    +0.000 A 
ATOM     14  C   UNL     1       8.797  12.543  17.861  0.00  0.00    +0.000 A 
ATOM     15  C   UNL     1       9.646  12.877  18.925  0.00  0.00    +0.000 A 
ATOM     16  C   UNL     1      10.100  11.880  19.791  0.00  0.00    +0.000 A 
ATOM     17  C   UNL     1       9.703  10.553  19.604  0.00  0.00    +0.000 A 
BRANCH  15  18
ATOM     18  C   UNL     1      10.039  14.240  19.119  0.00  0.00    +0.000 C 
ATOM     19  N   UNL     1      10.352  15.345  19.273  0.00  0.00    +0.000 NA
ENDBRANCH  15  18
ENDBRANCH   9  12
ENDBRANCH   5   7
BRANCH   1  21
ATOM     20  C   UNL     1       2.914   2.653  16.817  0.00  0.00    +0.000 C 
ATOM     21  C   UNL     1       3.765   3.539  17.736  0.00  0.00    +0.000 C 
BRANCH  21  22
ATOM     22  S   UNL     1       2.753   4.823  18.585  0.00  0.00    +0.000 S 
BRANCH  22  23
ATOM     23  C   UNL     1       2.263   4.083  20.065  0.00  0.00    +0.000 A 
ATOM     24  N   UNL     1       2.707   4.321  21.278  0.00  0.00    +0.000 NA
ATOM     25  N   UNL     1       2.155   3.383  22.124  0.00  0.00    +0.000 NA
ATOM     26  C   UNL     1       1.360   2.625  21.407  0.00  0.00    +0.000 A 
ATOM     27  N   UNL     1       1.355   3.062  20.115  0.00  0.00    +0.000 N 
ATOM     28  C   UNL     1       0.534   2.546  19.054  0.00  0.00    +0.000 C 
ENDBRANCH  22  23
ENDBRANCH  21  22
ENDBRANCH   1  21
TORSDOF 6
ENDMDL
