MODEL 1
REMARK VINA RESULT:      -9.9      0.000      0.000
REMARK  Name = 
REMARK  8 active torsions:
REMARK  status: ('A' for Active; 'I' for Inactive)
REMARK    1  A    between atoms: C_1  and  N_2
REMARK    2  A    between atoms: C_6  and  C_7
REMARK    3  A    between atoms: C_7  and  C_8
REMARK    4  A    between atoms: C_8  and  C_9
REMARK    5  A    between atoms: C_13  and  N_14
REMARK    6  A    between atoms: C_19  and  C_20
REMARK    7  A    between atoms: C_20  and  N_21
REMARK    8  A    between atoms: C_30  and  C_31
REMARK                            x       y       z     vdW  Elec       q    Type
REMARK                         _______ _______ _______ _____ _____    ______ ____
ROOT
ATOM      1  N   UNL     1       2.283   7.492  19.260  0.00  0.00    +0.000 N 
ATOM      2  C   UNL     1       1.521   7.830  20.429  0.00  0.00    +0.000 C 
ATOM      3  C   UNL     1       0.967   9.163  20.168  0.00  0.00    +0.000 A 
ATOM      4  C   UNL     1       1.268   9.579  18.870  0.00  0.00    +0.000 A 
ATOM      5  C   UNL     1       0.784  10.813  18.417  0.00  0.00    +0.000 A 
ATOM      6  C   UNL     1       0.024  11.614  19.316  0.00  0.00    +0.000 A 
ATOM      7  C   UNL     1      -0.227  11.139  20.630  0.00  0.00    +0.000 A 
ATOM      8  C   UNL     1       0.263   9.925  21.085  0.00  0.00    +0.000 A 
ATOM      9  C   UNL     1       2.161   8.504  18.276  0.00  0.00    +0.000 C 
ATOM     10  O   UNL     1       2.688   8.585  17.181  0.00  0.00    +0.000 OA
ENDROOT
BRANCH   1  15
ATOM     11  C   UNL     1       5.377   5.380  18.805  0.00  0.00    +0.000 A 
ATOM     12  C   UNL     1       4.883   4.142  19.235  0.00  0.00    +0.000 A 
ATOM     13  C   UNL     1       3.575   4.003  19.741  0.00  0.00    +0.000 A 
ATOM     14  C   UNL     1       2.690   5.096  19.811  0.00  0.00    +0.000 A 
ATOM     15  C   UNL     1       3.114   6.337  19.371  0.00  0.00    +0.000 A 
ATOM     16  C   UNL     1       4.463   6.440  18.917  0.00  0.00    +0.000 A 
BRANCH  11  17
ATOM     17  C   UNL     1       6.874   5.627  18.219  0.00  0.00    +0.000 C 
ATOM     18  C   UNL     1       7.949   5.959  19.293  0.00  0.00    +0.000 C 
ATOM     19  O   UNL     1       8.180   7.273  18.756  0.00  0.00    +0.000 OA
ATOM     20  C   UNL     1       7.253   7.041  17.676  0.00  0.00    +0.000 C 
BRANCH  17  21
ATOM     21  C   UNL     1       7.310   4.485  17.275  0.00  0.00    +0.000 C 
BRANCH  21  27
ATOM     22  C   UNL     1       4.633   3.570  15.821  0.00  0.00    +0.000 C 
ATOM     23  N   UNL     1       5.780   4.202  15.229  0.00  0.00    +0.000 N 
ATOM     24  C   UNL     1       5.935   4.439  13.896  0.00  0.00    +0.000 A 
ATOM     25  N   UNL     1       7.093   5.013  13.685  0.00  0.00    +0.000 NA
ATOM     26  N   UNL     1       7.716   5.147  14.901  0.00  0.00    +0.000 NA
ATOM     27  C   UNL     1       6.928   4.647  15.837  0.00  0.00    +0.000 A 
ENDBRANCH  21  27
ENDBRANCH  17  21
ENDBRANCH  11  17
ENDBRANCH   1  15
BRANCH   8  28
ATOM     28  C   UNL     1       0.067   9.499  22.523  0.00  0.00    +0.000 C 
ATOM     29  F   UNL     1      -0.717   8.393  22.660  0.00  0.00    +0.000 F 
ATOM     30  F   UNL     1       1.244   9.187  23.124  0.00  0.00    +0.000 F 
ATOM     31  F   UNL     1      -0.520  10.462  23.274  0.00  0.00    +0.000 F 
ENDBRANCH   8  28
BRANCH   6  32
ATOM     32  C   UNL     1      -0.581  12.988  18.981  0.00  0.00    +0.000 C 
BRANCH  32  33
ATOM     33  N   UNL     1      -0.120  14.009  19.941  0.00  0.00    +0.000 NA
ATOM     34  C   UNL     1       1.317  14.287  19.898  0.00  0.00    +0.000 C 
ATOM     35  C   UNL     1       1.755  15.255  18.791  0.00  0.00    +0.000 C 
ATOM     36  C   UNL     1       0.912  16.515  18.744  0.00  0.00    +0.000 C 
ATOM     37  C   UNL     1      -0.576  16.276  18.898  0.00  0.00    +0.000 C 
ATOM     38  C   UNL     1      -0.895  15.252  19.993  0.00  0.00    +0.000 C 
ATOM     39  C   UNL     1       1.519  17.830  19.204  0.00  0.00    +0.000 C 
ATOM     40  C   UNL     1       1.319  17.578  17.740  0.00  0.00    +0.000 C 
ENDBRANCH  32  33
ENDBRANCH   6  32
TORSDOF 7
ENDMDL
MODEL 2
REMARK VINA RESULT:      -9.6      0.658      1.118
REMARK  Name = 
REMARK  8 active torsions:
REMARK  status: ('A' for Active; 'I' for Inactive)
REMARK    1  A    between atoms: C_1  and  N_2
REMARK    2  A    between atoms: C_6  and  C_7
REMARK    3  A    between atoms: C_7  and  C_8
REMARK    4  A    between atoms: C_8  and  C_9
REMARK    5  A    between atoms: C_13  and  N_14
REMARK    6  A    between atoms: C_19  and  C_20
REMARK    7  A    between atoms: C_20  and  N_21
REMARK    8  A    between atoms: C_30  and  C_31
REMARK                            x       y       z     vdW  Elec       q    Type
REMARK                         _______ _______ _______ _____ _____    ______ ____
ROOT
ATOM      1  N   UNL     1       2.289   7.470  19.280  0.00  0.00    +0.000 N 
ATOM      2  C   UNL     1       1.535   7.812  20.453  0.00  0.00    +0.000 C 
ATOM      3  C   UNL     1       0.974   9.141  20.189  0.00  0.00    +0.000 A 
ATOM      4  C   UNL     1       1.263   9.551  18.886  0.00  0.00    +0.000 A 
ATOM      5  C   UNL     1       0.771  10.780  18.430  0.00  0.00    +0.000 A 
ATOM      6  C   UNL     1       0.015  11.584  19.330  0.00  0.00    +0.000 A 
ATOM      7  C   UNL     1      -0.223  11.117  20.649  0.00  0.00    +0.000 A 
ATOM      8  C   UNL     1       0.274   9.906  21.107  0.00  0.00    +0.000 A 
ATOM      9  C   UNL     1       2.155   8.476  18.291  0.00  0.00    +0.000 C 
ATOM     10  O   UNL     1       2.672   8.552  17.191  0.00  0.00    +0.000 OA
ENDROOT
BRANCH   1  15
ATOM     11  C   UNL     1       5.390   5.370  18.820  0.00  0.00    +0.000 A 
ATOM     12  C   UNL     1       4.902   4.131  19.255  0.00  0.00    +0.000 A 
ATOM     13  C   UNL     1       3.596   3.988  19.765  0.00  0.00    +0.000 A 
ATOM     14  C   UNL     1       2.707   5.077  19.835  0.00  0.00    +0.000 A 
ATOM     15  C   UNL     1       3.125   6.319  19.391  0.00  0.00    +0.000 A 
ATOM     16  C   UNL     1       4.471   6.426  18.932  0.00  0.00    +0.000 A 
BRANCH  11  17
ATOM     17  C   UNL     1       6.883   5.621  18.227  0.00  0.00    +0.000 C 
ATOM     18  C   UNL     1       7.962   5.952  19.298  0.00  0.00    +0.000 C 
ATOM     19  O   UNL     1       8.189   7.268  18.764  0.00  0.00    +0.000 OA
ATOM     20  C   UNL     1       7.257   7.037  17.687  0.00  0.00    +0.000 C 
BRANCH  17  21
ATOM     21  C   UNL     1       7.318   4.483  17.279  0.00  0.00    +0.000 C 
BRANCH  21  27
ATOM     22  C   UNL     1       4.642   3.561  15.827  0.00  0.00    +0.000 C 
ATOM     23  N   UNL     1       5.785   4.202  15.235  0.00  0.00    +0.000 N 
ATOM     24  C   UNL     1       5.936   4.446  13.902  0.00  0.00    +0.000 A 
ATOM     25  N   UNL     1       7.091   5.026  13.691  0.00  0.00    +0.000 NA
ATOM     26  N   UNL     1       7.715   5.158  14.907  0.00  0.00    +0.000 NA
ATOM     27  C   UNL     1       6.932   4.650  15.842  0.00  0.00    +0.000 A 
ENDBRANCH  21  27
ENDBRANCH  17  21
ENDBRANCH  11  17
ENDBRANCH   1  15
BRANCH   8  28
ATOM     28  C   UNL     1       0.093   9.489  22.549  0.00  0.00    +0.000 C 
ATOM     29  F   UNL     1       1.263   9.182  23.177  0.00  0.00    +0.000 F 
ATOM     30  F   UNL     1      -0.473  10.472  23.295  0.00  0.00    +0.000 F 
ATOM     31  F   UNL     1      -0.692   8.392  22.677  0.00  0.00    +0.000 F 
ENDBRANCH   8  28
BRANCH   6  32
ATOM     32  C   UNL     1      -0.598  12.954  18.992  0.00  0.00    +0.000 C 
BRANCH  32  33
ATOM     33  N   UNL     1       0.057  14.025  19.768  0.00  0.00    +0.000 NA
ATOM     34  C   UNL     1       0.718  15.051  18.960  0.00  0.00    +0.000 C 
ATOM     35  C   UNL     1      -0.214  16.140  18.411  0.00  0.00    +0.000 C 
ATOM     36  C   UNL     1      -1.126  16.724  19.473  0.00  0.00    +0.000 C 
ATOM     37  C   UNL     1      -1.741  15.697  20.401  0.00  0.00    +0.000 C 
ATOM     38  C   UNL     1      -0.735  14.628  20.843  0.00  0.00    +0.000 C 
ATOM     39  C   UNL     1      -0.873  18.138  19.969  0.00  0.00    +0.000 C 
ATOM     40  C   UNL     1      -2.027  17.871  19.051  0.00  0.00    +0.000 C 
ENDBRANCH  32  33
ENDBRANCH   6  32
TORSDOF 7
ENDMDL
MODEL 3
REMARK VINA RESULT:      -9.4      1.572      2.512
REMARK  Name = 
REMARK  8 active torsions:
REMARK  status: ('A' for Active; 'I' for Inactive)
REMARK    1  A    between atoms: C_1  and  N_2
REMARK    2  A    between atoms: C_6  and  C_7
REMARK    3  A    between atoms: C_7  and  C_8
REMARK    4  A    between atoms: C_8  and  C_9
REMARK    5  A    between atoms: C_13  and  N_14
REMARK    6  A    between atoms: C_19  and  C_20
REMARK    7  A    between atoms: C_20  and  N_21
REMARK    8  A    between atoms: C_30  and  C_31
REMARK                            x       y       z     vdW  Elec       q    Type
REMARK                         _______ _______ _______ _____ _____    ______ ____
ROOT
ATOM      1  N   UNL     1       2.204   7.396  19.134  0.00  0.00    +0.000 N 
ATOM      2  C   UNL     1       1.470   7.714  20.327  0.00  0.00    +0.000 C 
ATOM      3  C   UNL     1       1.034   9.105  20.163  0.00  0.00    +0.000 A 
ATOM      4  C   UNL     1       1.374   9.585  18.898  0.00  0.00    +0.000 A 
ATOM      5  C   UNL     1       1.000  10.885  18.535  0.00  0.00    +0.000 A 
ATOM      6  C   UNL     1       0.309  11.683  19.492  0.00  0.00    +0.000 A 
ATOM      7  C   UNL     1       0.015  11.139  20.770  0.00  0.00    +0.000 A 
ATOM      8  C   UNL     1       0.396   9.858  21.135  0.00  0.00    +0.000 A 
ATOM      9  C   UNL     1       2.172   8.482  18.225  0.00  0.00    +0.000 C 
ATOM     10  O   UNL     1       2.707   8.596  17.137  0.00  0.00    +0.000 OA
ENDROOT
BRANCH   1  15
ATOM     11  C   UNL     1       4.583   4.740  17.898  0.00  0.00    +0.000 A 
ATOM     12  C   UNL     1       4.310   3.728  18.828  0.00  0.00    +0.000 A 
ATOM     13  C   UNL     1       3.413   3.928  19.896  0.00  0.00    +0.000 A 
ATOM     14  C   UNL     1       2.725   5.144  20.066  0.00  0.00    +0.000 A 
ATOM     15  C   UNL     1       2.931   6.168  19.159  0.00  0.00    +0.000 A 
ATOM     16  C   UNL     1       3.887   5.939  18.126  0.00  0.00    +0.000 A 
BRANCH  11  17
ATOM     17  C   UNL     1       5.608   4.595  16.645  0.00  0.00    +0.000 C 
ATOM     18  C   UNL     1       5.307   5.536  15.443  0.00  0.00    +0.000 C 
ATOM     19  O   UNL     1       5.032   4.436  14.560  0.00  0.00    +0.000 OA
ATOM     20  C   UNL     1       5.358   3.475  15.585  0.00  0.00    +0.000 C 
BRANCH  17  21
ATOM     21  C   UNL     1       7.081   4.669  17.103  0.00  0.00    +0.000 C 
BRANCH  21  27
ATOM     22  C   UNL     1       8.061   5.721  19.940  0.00  0.00    +0.000 C 
ATOM     23  N   UNL     1       7.957   6.468  18.716  0.00  0.00    +0.000 N 
ATOM     24  C   UNL     1       8.192   7.805  18.599  0.00  0.00    +0.000 A 
ATOM     25  N   UNL     1       7.996   8.178  17.359  0.00  0.00    +0.000 NA
ATOM     26  N   UNL     1       7.616   7.066  16.649  0.00  0.00    +0.000 NA
ATOM     27  C   UNL     1       7.580   6.031  17.469  0.00  0.00    +0.000 A 
ENDBRANCH  21  27
ENDBRANCH  17  21
ENDBRANCH  11  17
ENDBRANCH   1  15
BRANCH   8  28
ATOM     28  C   UNL     1       0.161   9.349  22.540  0.00  0.00    +0.000 C 
ATOM     29  F   UNL     1      -0.396  10.278  23.367  0.00  0.00    +0.000 F 
ATOM     30  F   UNL     1      -0.688   8.289  22.560  0.00  0.00    +0.000 F 
ATOM     31  F   UNL     1       1.306   8.954  23.147  0.00  0.00    +0.000 F 
ENDBRANCH   8  28
BRANCH   6  32
ATOM     32  C   UNL     1      -0.175  13.125  19.258  0.00  0.00    +0.000 C 
BRANCH  32  33
ATOM     33  N   UNL     1       0.625  14.078  20.051  0.00  0.00    +0.000 NA
ATOM     34  C   UNL     1       2.068  13.836  20.029  0.00  0.00    +0.000 C 
ATOM     35  C   UNL     1       2.796  14.387  18.795  0.00  0.00    +0.000 C 
ATOM     36  C   UNL     1       2.437  15.830  18.496  0.00  0.00    +0.000 C 
ATOM     37  C   UNL     1       0.960  16.145  18.620  0.00  0.00    +0.000 C 
ATOM     38  C   UNL     1       0.325  15.499  19.857  0.00  0.00    +0.000 C 
ATOM     39  C   UNL     1       3.467  16.918  18.754  0.00  0.00    +0.000 C 
ATOM     40  C   UNL     1       3.170  16.497  17.347  0.00  0.00    +0.000 C 
ENDBRANCH  32  33
ENDBRANCH   6  32
TORSDOF 7
ENDMDL
MODEL 4
REMARK VINA RESULT:      -9.2      0.689      1.212
REMARK  Name = 
REMARK  8 active torsions:
REMARK  status: ('A' for Active; 'I' for Inactive)
REMARK    1  A    between atoms: C_1  and  N_2
REMARK    2  A    between atoms: C_6  and  C_7
REMARK    3  A    between atoms: C_7  and  C_8
REMARK    4  A    between atoms: C_8  and  C_9
REMARK    5  A    between atoms: C_13  and  N_14
REMARK    6  A    between atoms: C_19  and  C_20
REMARK    7  A    between atoms: C_20  and  N_21
REMARK    8  A    between atoms: C_30  and  C_31
REMARK                            x       y       z     vdW  Elec       q    Type
REMARK                         _______ _______ _______ _____ _____    ______ ____
ROOT
ATOM      1  N   UNL     1       2.328   7.476  19.310  0.00  0.00    +0.000 N 
ATOM      2  C   UNL     1       1.553   7.805  20.473  0.00  0.00    +0.000 C 
ATOM      3  C   UNL     1       1.020   9.148  20.225  0.00  0.00    +0.000 A 
ATOM      4  C   UNL     1       1.346   9.581  18.939  0.00  0.00    +0.000 A 
ATOM      5  C   UNL     1       0.885  10.828  18.499  0.00  0.00    +0.000 A 
ATOM      6  C   UNL     1       0.122  11.625  19.399  0.00  0.00    +0.000 A 
ATOM      7  C   UNL     1      -0.154  11.133  20.702  0.00  0.00    +0.000 A 
ATOM      8  C   UNL     1       0.313   9.905  21.144  0.00  0.00    +0.000 A 
ATOM      9  C   UNL     1       2.234   8.504  18.340  0.00  0.00    +0.000 C 
ATOM     10  O   UNL     1       2.777   8.596  17.254  0.00  0.00    +0.000 OA
ENDROOT
BRANCH   1  15
ATOM     11  C   UNL     1       5.396   5.326  18.854  0.00  0.00    +0.000 A 
ATOM     12  C   UNL     1       4.881   4.090  19.267  0.00  0.00    +0.000 A 
ATOM     13  C   UNL     1       3.568   3.964  19.762  0.00  0.00    +0.000 A 
ATOM     14  C   UNL     1       2.698   5.068  19.838  0.00  0.00    +0.000 A 
ATOM     15  C   UNL     1       3.142   6.308  19.414  0.00  0.00    +0.000 A 
ATOM     16  C   UNL     1       4.495   6.397  18.971  0.00  0.00    +0.000 A 
BRANCH  11  17
ATOM     17  C   UNL     1       6.900   5.558  18.280  0.00  0.00    +0.000 C 
ATOM     18  C   UNL     1       7.976   5.843  19.367  0.00  0.00    +0.000 C 
ATOM     19  O   UNL     1       8.235   7.165  18.864  0.00  0.00    +0.000 OA
ATOM     20  C   UNL     1       7.309   6.978  17.774  0.00  0.00    +0.000 C 
BRANCH  17  21
ATOM     21  C   UNL     1       7.319   4.432  17.311  0.00  0.00    +0.000 C 
BRANCH  21  27
ATOM     22  C   UNL     1       4.658   3.490  15.845  0.00  0.00    +0.000 C 
ATOM     23  N   UNL     1       5.786   4.167  15.265  0.00  0.00    +0.000 N 
ATOM     24  C   UNL     1       5.928   4.446  13.938  0.00  0.00    +0.000 A 
ATOM     25  N   UNL     1       7.070   5.055  13.738  0.00  0.00    +0.000 NA
ATOM     26  N   UNL     1       7.695   5.170  14.955  0.00  0.00    +0.000 NA
ATOM     27  C   UNL     1       6.926   4.625  15.880  0.00  0.00    +0.000 A 
ENDBRANCH  21  27
ENDBRANCH  17  21
ENDBRANCH  11  17
ENDBRANCH   1  15
BRANCH   8  28
ATOM     28  C   UNL     1       0.091   9.460  22.572  0.00  0.00    +0.000 C 
ATOM     29  F   UNL     1       1.243   9.135  23.225  0.00  0.00    +0.000 F 
ATOM     30  F   UNL     1      -0.490  10.430  23.322  0.00  0.00    +0.000 F 
ATOM     31  F   UNL     1      -0.701   8.364  22.657  0.00  0.00    +0.000 F 
ENDBRANCH   8  28
BRANCH   6  32
ATOM     32  C   UNL     1      -0.461  13.013  19.078  0.00  0.00    +0.000 C 
BRANCH  32  33
ATOM     33  N   UNL     1       0.160  14.048  19.926  0.00  0.00    +0.000 NA
ATOM     34  C   UNL     1       1.352  13.611  20.654  0.00  0.00    +0.000 C 
ATOM     35  C   UNL     1       2.650  13.626  19.837  0.00  0.00    +0.000 C 
ATOM     36  C   UNL     1       2.862  14.931  19.093  0.00  0.00    +0.000 C 
ATOM     37  C   UNL     1       1.619  15.473  18.418  0.00  0.00    +0.000 C 
ATOM     38  C   UNL     1       0.373  15.358  19.303  0.00  0.00    +0.000 C 
ATOM     39  C   UNL     1       3.944  15.887  19.568  0.00  0.00    +0.000 C 
ATOM     40  C   UNL     1       4.162  15.081  18.323  0.00  0.00    +0.000 C 
ENDBRANCH  32  33
ENDBRANCH   6  32
TORSDOF 7
ENDMDL
MODEL 5
REMARK VINA RESULT:      -9.2      0.917      1.104
REMARK  Name = 
REMARK  8 active torsions:
REMARK  status: ('A' for Active; 'I' for Inactive)
REMARK    1  A    between atoms: C_1  and  N_2
REMARK    2  A    between atoms: C_6  and  C_7
REMARK    3  A    between atoms: C_7  and  C_8
REMARK    4  A    between atoms: C_8  and  C_9
REMARK    5  A    between atoms: C_13  and  N_14
REMARK    6  A    between atoms: C_19  and  C_20
REMARK    7  A    between atoms: C_20  and  N_21
REMARK    8  A    between atoms: C_30  and  C_31
REMARK                            x       y       z     vdW  Elec       q    Type
REMARK                         _______ _______ _______ _____ _____    ______ ____
ROOT
ATOM      1  N   UNL     1       1.960   7.624  19.288  0.00  0.00    +0.000 N 
ATOM      2  C   UNL     1       1.230   7.944  20.482  0.00  0.00    +0.000 C 
ATOM      3  C   UNL     1       0.796   9.336  20.319  0.00  0.00    +0.000 A 
ATOM      4  C   UNL     1       1.134   9.814  19.052  0.00  0.00    +0.000 A 
ATOM      5  C   UNL     1       0.762  11.115  18.690  0.00  0.00    +0.000 A 
ATOM      6  C   UNL     1       0.075  11.915  19.647  0.00  0.00    +0.000 A 
ATOM      7  C   UNL     1      -0.217  11.373  20.926  0.00  0.00    +0.000 A 
ATOM      8  C   UNL     1       0.162  10.091  21.291  0.00  0.00    +0.000 A 
ATOM      9  C   UNL     1       1.928   8.709  18.378  0.00  0.00    +0.000 C 
ATOM     10  O   UNL     1       2.460   8.821  17.288  0.00  0.00    +0.000 OA
ENDROOT
BRANCH   1  15
ATOM     11  C   UNL     1       4.670   5.169  18.357  0.00  0.00    +0.000 A 
ATOM     12  C   UNL     1       4.170   4.018  18.981  0.00  0.00    +0.000 A 
ATOM     13  C   UNL     1       2.999   4.051  19.763  0.00  0.00    +0.000 A 
ATOM     14  C   UNL     1       2.256   5.234  19.931  0.00  0.00    +0.000 A 
ATOM     15  C   UNL     1       2.685   6.395  19.312  0.00  0.00    +0.000 A 
ATOM     16  C   UNL     1       3.904   6.325  18.574  0.00  0.00    +0.000 A 
BRANCH  11  17
ATOM     17  C   UNL     1       6.016   5.219  17.446  0.00  0.00    +0.000 C 
ATOM     18  C   UNL     1       7.344   5.031  18.235  0.00  0.00    +0.000 C 
ATOM     19  O   UNL     1       7.806   6.354  17.908  0.00  0.00    +0.000 OA
ATOM     20  C   UNL     1       6.643   6.604  17.092  0.00  0.00    +0.000 C 
BRANCH  17  21
ATOM     21  C   UNL     1       5.913   4.278  16.226  0.00  0.00    +0.000 C 
BRANCH  21  27
ATOM     22  C   UNL     1       5.324   3.489  13.202  0.00  0.00    +0.000 C 
ATOM     23  N   UNL     1       6.368   4.342  13.698  0.00  0.00    +0.000 N 
ATOM     24  C   UNL     1       7.349   4.897  12.930  0.00  0.00    +0.000 A 
ATOM     25  N   UNL     1       8.149   5.606  13.686  0.00  0.00    +0.000 NA
ATOM     26  N   UNL     1       7.692   5.509  14.977  0.00  0.00    +0.000 NA
ATOM     27  C   UNL     1       6.620   4.736  14.989  0.00  0.00    +0.000 A 
ENDBRANCH  21  27
ENDBRANCH  17  21
ENDBRANCH  11  17
ENDBRANCH   1  15
BRANCH   8  28
ATOM     28  C   UNL     1      -0.071   9.584  22.697  0.00  0.00    +0.000 C 
ATOM     29  F   UNL     1      -0.836   8.457  22.748  0.00  0.00    +0.000 F 
ATOM     30  F   UNL     1       1.092   9.262  23.319  0.00  0.00    +0.000 F 
ATOM     31  F   UNL     1      -0.701  10.493  23.479  0.00  0.00    +0.000 F 
ENDBRANCH   8  28
BRANCH   6  32
ATOM     32  C   UNL     1      -0.406  13.358  19.414  0.00  0.00    +0.000 C 
BRANCH  32  33
ATOM     33  N   UNL     1       0.421  14.313  20.176  0.00  0.00    +0.000 NA
ATOM     34  C   UNL     1       1.845  13.982  20.234  0.00  0.00    +0.000 C 
ATOM     35  C   UNL     1       2.656  14.399  19.000  0.00  0.00    +0.000 C 
ATOM     36  C   UNL     1       2.404  15.837  18.589  0.00  0.00    +0.000 C 
ATOM     37  C   UNL     1       0.947  16.250  18.625  0.00  0.00    +0.000 C 
ATOM     38  C   UNL     1       0.222  15.733  19.873  0.00  0.00    +0.000 C 
ATOM     39  C   UNL     1       3.491  16.875  18.819  0.00  0.00    +0.000 C 
ATOM     40  C   UNL     1       3.224  16.376  17.431  0.00  0.00    +0.000 C 
ENDBRANCH  32  33
ENDBRANCH   6  32
TORSDOF 7
ENDMDL
MODEL 6
REMARK VINA RESULT:      -9.0      2.647      9.277
REMARK  Name = 
REMARK  8 active torsions:
REMARK  status: ('A' for Active; 'I' for Inactive)
REMARK    1  A    between atoms: C_1  and  N_2
REMARK    2  A    between atoms: C_6  and  C_7
REMARK    3  A    between atoms: C_7  and  C_8
REMARK    4  A    between atoms: C_8  and  C_9
REMARK    5  A    between atoms: C_13  and  N_14
REMARK    6  A    between atoms: C_19  and  C_20
REMARK    7  A    between atoms: C_20  and  N_21
REMARK    8  A    between atoms: C_30  and  C_31
REMARK                            x       y       z     vdW  Elec       q    Type
REMARK                         _______ _______ _______ _____ _____    ______ ____
ROOT
ATOM      1  N   UNL     1       1.518   8.081  20.140  0.00  0.00    +0.000 N 
ATOM      2  C   UNL     1       1.620   6.758  20.688  0.00  0.00    +0.000 C 
ATOM      3  C   UNL     1       2.317   5.962  19.673  0.00  0.00    +0.000 A 
ATOM      4  C   UNL     1       2.729   6.767  18.609  0.00  0.00    +0.000 A 
ATOM      5  C   UNL     1       3.454   6.193  17.558  0.00  0.00    +0.000 A 
ATOM      6  C   UNL     1       3.719   4.794  17.601  0.00  0.00    +0.000 A 
ATOM      7  C   UNL     1       3.252   4.031  18.702  0.00  0.00    +0.000 A 
ATOM      8  C   UNL     1       2.522   4.594  19.737  0.00  0.00    +0.000 A 
ATOM      9  C   UNL     1       2.180   8.155  18.889  0.00  0.00    +0.000 C 
ATOM     10  O   UNL     1       2.274   9.092  18.118  0.00  0.00    +0.000 OA
ENDROOT
BRANCH   1  15
ATOM     11  C   UNL     1      -0.844  10.988  20.602  0.00  0.00    +0.000 A 
ATOM     12  C   UNL     1      -0.880  11.042  22.002  0.00  0.00    +0.000 A 
ATOM     13  C   UNL     1      -0.201  10.096  22.796  0.00  0.00    +0.000 A 
ATOM     14  C   UNL     1       0.571   9.068  22.223  0.00  0.00    +0.000 A 
ATOM     15  C   UNL     1       0.668   8.984  20.846  0.00  0.00    +0.000 A 
ATOM     16  C   UNL     1      -0.079   9.931  20.083  0.00  0.00    +0.000 A 
BRANCH  11  17
ATOM     17  C   UNL     1      -1.604  12.032  19.615  0.00  0.00    +0.000 C 
ATOM     18  C   UNL     1      -2.846  12.732  20.237  0.00  0.00    +0.000 C 
ATOM     19  O   UNL     1      -3.747  12.128  19.293  0.00  0.00    +0.000 OA
ATOM     20  C   UNL     1      -2.657  11.488  18.598  0.00  0.00    +0.000 C 
BRANCH  17  21
ATOM     21  C   UNL     1      -0.616  13.033  18.977  0.00  0.00    +0.000 C 
BRANCH  21  27
ATOM     22  C   UNL     1       2.478  12.554  18.417  0.00  0.00    +0.000 C 
ATOM     23  N   UNL     1       1.880  13.162  19.574  0.00  0.00    +0.000 N 
ATOM     24  C   UNL     1       2.565  13.565  20.682  0.00  0.00    +0.000 A 
ATOM     25  N   UNL     1       1.728  14.063  21.558  0.00  0.00    +0.000 NA
ATOM     26  N   UNL     1       0.468  13.977  21.020  0.00  0.00    +0.000 NA
ATOM     27  C   UNL     1       0.555  13.422  19.824  0.00  0.00    +0.000 A 
ENDBRANCH  21  27
ENDBRANCH  17  21
ENDBRANCH  11  17
ENDBRANCH   1  15
BRANCH   8  28
ATOM     28  C   UNL     1       1.948   3.733  20.840  0.00  0.00    +0.000 C 
ATOM     29  F   UNL     1       2.302   2.420  20.744  0.00  0.00    +0.000 F 
ATOM     30  F   UNL     1       2.368   4.133  22.067  0.00  0.00    +0.000 F 
ATOM     31  F   UNL     1       0.593   3.748  20.859  0.00  0.00    +0.000 F 
ENDBRANCH   8  28
BRANCH   6  32
ATOM     32  C   UNL     1       4.500   4.008  16.533  0.00  0.00    +0.000 C 
BRANCH  32  33
ATOM     33  N   UNL     1       5.953   4.114  16.766  0.00  0.00    +0.000 NA
ATOM     34  C   UNL     1       6.679   4.899  15.766  0.00  0.00    +0.000 C 
ATOM     35  C   UNL     1       6.623   6.418  15.973  0.00  0.00    +0.000 C 
ATOM     36  C   UNL     1       6.951   6.831  17.394  0.00  0.00    +0.000 C 
ATOM     37  C   UNL     1       6.305   5.969  18.460  0.00  0.00    +0.000 C 
ATOM     38  C   UNL     1       6.371   4.475  18.124  0.00  0.00    +0.000 C 
ATOM     39  C   UNL     1       8.276   7.519  17.679  0.00  0.00    +0.000 C 
ATOM     40  C   UNL     1       7.009   8.321  17.682  0.00  0.00    +0.000 C 
ENDBRANCH  32  33
ENDBRANCH   6  32
TORSDOF 7
ENDMDL
MODEL 7
REMARK VINA RESULT:      -8.9      1.707      2.762
REMARK  Name = 
REMARK  8 active torsions:
REMARK  status: ('A' for Active; 'I' for Inactive)
REMARK    1  A    between atoms: C_1  and  N_2
REMARK    2  A    between atoms: C_6  and  C_7
REMARK    3  A    between atoms: C_7  and  C_8
REMARK    4  A    between atoms: C_8  and  C_9
REMARK    5  A    between atoms: C_13  and  N_14
REMARK    6  A    between atoms: C_19  and  C_20
REMARK    7  A    between atoms: C_20  and  N_21
REMARK    8  A    between atoms: C_30  and  C_31
REMARK                            x       y       z     vdW  Elec       q    Type
REMARK                         _______ _______ _______ _____ _____    ______ ____
ROOT
ATOM      1  N   UNL     1       2.179   7.453  19.136  0.00  0.00    +0.000 N 
ATOM      2  C   UNL     1       1.441   7.777  20.324  0.00  0.00    +0.000 C 
ATOM      3  C   UNL     1       1.009   9.169  20.153  0.00  0.00    +0.000 A 
ATOM      4  C   UNL     1       1.355   9.643  18.887  0.00  0.00    +0.000 A 
ATOM      5  C   UNL     1       0.986  10.942  18.518  0.00  0.00    +0.000 A 
ATOM      6  C   UNL     1       0.293  11.746  19.468  0.00  0.00    +0.000 A 
ATOM      7  C   UNL     1      -0.008  11.208  20.747  0.00  0.00    +0.000 A 
ATOM      8  C   UNL     1       0.369   9.927  21.119  0.00  0.00    +0.000 A 
ATOM      9  C   UNL     1       2.154   8.535  18.222  0.00  0.00    +0.000 C 
ATOM     10  O   UNL     1       2.693   8.643  17.136  0.00  0.00    +0.000 OA
ENDROOT
BRANCH   1  15
ATOM     11  C   UNL     1       4.549   4.781  17.916  0.00  0.00    +0.000 A 
ATOM     12  C   UNL     1       4.274   3.777  18.853  0.00  0.00    +0.000 A 
ATOM     13  C   UNL     1       3.380   3.987  19.921  0.00  0.00    +0.000 A 
ATOM     14  C   UNL     1       2.695   5.206  20.083  0.00  0.00    +0.000 A 
ATOM     15  C   UNL     1       2.903   6.223  19.169  0.00  0.00    +0.000 A 
ATOM     16  C   UNL     1       3.857   5.984  18.136  0.00  0.00    +0.000 A 
BRANCH  11  17
ATOM     17  C   UNL     1       5.573   4.624  16.662  0.00  0.00    +0.000 C 
ATOM     18  C   UNL     1       5.280   5.566  15.459  0.00  0.00    +0.000 C 
ATOM     19  O   UNL     1       4.994   4.466  14.578  0.00  0.00    +0.000 OA
ATOM     20  C   UNL     1       5.313   3.505  15.605  0.00  0.00    +0.000 C 
BRANCH  17  21
ATOM     21  C   UNL     1       7.046   4.686  17.120  0.00  0.00    +0.000 C 
BRANCH  21  27
ATOM     22  C   UNL     1       8.079   5.723  19.944  0.00  0.00    +0.000 C 
ATOM     23  N   UNL     1       7.958   6.475  18.725  0.00  0.00    +0.000 N 
ATOM     24  C   UNL     1       8.197   7.812  18.609  0.00  0.00    +0.000 A 
ATOM     25  N   UNL     1       7.982   8.190  17.374  0.00  0.00    +0.000 NA
ATOM     26  N   UNL     1       7.585   7.083  16.666  0.00  0.00    +0.000 NA
ATOM     27  C   UNL     1       7.558   6.045  17.483  0.00  0.00    +0.000 A 
ENDBRANCH  21  27
ENDBRANCH  17  21
ENDBRANCH  11  17
ENDBRANCH   1  15
BRANCH   8  28
ATOM     28  C   UNL     1       0.126   9.425  22.525  0.00  0.00    +0.000 C 
ATOM     29  F   UNL     1      -0.446  10.353  23.342  0.00  0.00    +0.000 F 
ATOM     30  F   UNL     1      -0.712   8.357  22.544  0.00  0.00    +0.000 F 
ATOM     31  F   UNL     1       1.270   9.044  23.144  0.00  0.00    +0.000 F 
ENDBRANCH   8  28
BRANCH   6  32
ATOM     32  C   UNL     1      -0.186  13.188  19.226  0.00  0.00    +0.000 C 
BRANCH  32  33
ATOM     33  N   UNL     1       0.963  14.108  19.120  0.00  0.00    +0.000 NA
ATOM     34  C   UNL     1       0.607  15.511  18.902  0.00  0.00    +0.000 C 
ATOM     35  C   UNL     1       0.218  16.283  20.170  0.00  0.00    +0.000 C 
ATOM     36  C   UNL     1       1.212  16.098  21.300  0.00  0.00    +0.000 C 
ATOM     37  C   UNL     1       1.690  14.672  21.484  0.00  0.00    +0.000 C 
ATOM     38  C   UNL     1       1.997  13.980  20.151  0.00  0.00    +0.000 C 
ATOM     39  C   UNL     1       2.118  17.255  21.687  0.00  0.00    +0.000 C 
ATOM     40  C   UNL     1       0.965  16.890  22.571  0.00  0.00    +0.000 C 
ENDBRANCH  32  33
ENDBRANCH   6  32
TORSDOF 7
ENDMDL
MODEL 8
REMARK VINA RESULT:      -8.9      2.385      9.426
REMARK  Name = 
REMARK  8 active torsions:
REMARK  status: ('A' for Active; 'I' for Inactive)
REMARK    1  A    between atoms: C_1  and  N_2
REMARK    2  A    between atoms: C_6  and  C_7
REMARK    3  A    between atoms: C_7  and  C_8
REMARK    4  A    between atoms: C_8  and  C_9
REMARK    5  A    between atoms: C_13  and  N_14
REMARK    6  A    between atoms: C_19  and  C_20
REMARK    7  A    between atoms: C_20  and  N_21
REMARK    8  A    between atoms: C_30  and  C_31
REMARK                            x       y       z     vdW  Elec       q    Type
REMARK                         _______ _______ _______ _____ _____    ______ ____
ROOT
ATOM      1  N   UNL     1       1.519   8.066  20.185  0.00  0.00    +0.000 N 
ATOM      2  C   UNL     1       1.640   6.747  20.741  0.00  0.00    +0.000 C 
ATOM      3  C   UNL     1       2.326   5.950  19.718  0.00  0.00    +0.000 A 
ATOM      4  C   UNL     1       2.711   6.751  18.642  0.00  0.00    +0.000 A 
ATOM      5  C   UNL     1       3.422   6.176  17.581  0.00  0.00    +0.000 A 
ATOM      6  C   UNL     1       3.699   4.779  17.628  0.00  0.00    +0.000 A 
ATOM      7  C   UNL     1       3.257   4.020  18.742  0.00  0.00    +0.000 A 
ATOM      8  C   UNL     1       2.542   4.584  19.787  0.00  0.00    +0.000 A 
ATOM      9  C   UNL     1       2.157   8.136  18.923  0.00  0.00    +0.000 C 
ATOM     10  O   UNL     1       2.229   9.069  18.144  0.00  0.00    +0.000 OA
ENDROOT
BRANCH   1  15
ATOM     11  C   UNL     1      -0.700  11.073  20.713  0.00  0.00    +0.000 A 
ATOM     12  C   UNL     1      -0.830  11.028  22.107  0.00  0.00    +0.000 A 
ATOM     13  C   UNL     1      -0.265   9.987  22.869  0.00  0.00    +0.000 A 
ATOM     14  C   UNL     1       0.485   8.957  22.271  0.00  0.00    +0.000 A 
ATOM     15  C   UNL     1       0.674   8.967  20.901  0.00  0.00    +0.000 A 
ATOM     16  C   UNL     1       0.038  10.011  20.165  0.00  0.00    +0.000 A 
BRANCH  11  17
ATOM     17  C   UNL     1      -1.328  12.232  19.760  0.00  0.00    +0.000 C 
ATOM     18  C   UNL     1      -2.795  11.981  19.309  0.00  0.00    +0.000 C 
ATOM     19  O   UNL     1      -2.427  11.890  17.921  0.00  0.00    +0.000 OA
ATOM     20  C   UNL     1      -1.048  12.187  18.224  0.00  0.00    +0.000 C 
BRANCH  17  21
ATOM     21  C   UNL     1      -1.125  13.637  20.365  0.00  0.00    +0.000 C 
BRANCH  21  27
ATOM     22  C   UNL     1       2.042  13.428  20.576  0.00  0.00    +0.000 C 
ATOM     23  N   UNL     1       1.274  14.400  19.847  0.00  0.00    +0.000 N 
ATOM     24  C   UNL     1       1.802  15.465  19.179  0.00  0.00    +0.000 A 
ATOM     25  N   UNL     1       0.836  16.163  18.635  0.00  0.00    +0.000 NA
ATOM     26  N   UNL     1      -0.350  15.550  18.959  0.00  0.00    +0.000 NA
ATOM     27  C   UNL     1      -0.089  14.489  19.701  0.00  0.00    +0.000 A 
ENDBRANCH  21  27
ENDBRANCH  17  21
ENDBRANCH  11  17
ENDBRANCH   1  15
BRANCH   8  28
ATOM     28  C   UNL     1       1.995   3.725  20.906  0.00  0.00    +0.000 C 
ATOM     29  F   UNL     1       0.633   3.702  20.955  0.00  0.00    +0.000 F 
ATOM     30  F   UNL     1       2.376   2.428  20.783  0.00  0.00    +0.000 F 
ATOM     31  F   UNL     1       2.401   4.145  22.128  0.00  0.00    +0.000 F 
ENDBRANCH   8  28
BRANCH   6  32
ATOM     32  C   UNL     1       4.467   3.992  16.552  0.00  0.00    +0.000 C 
BRANCH  32  33
ATOM     33  N   UNL     1       5.923   4.103  16.763  0.00  0.00    +0.000 NA
ATOM     34  C   UNL     1       6.631   4.891  15.753  0.00  0.00    +0.000 C 
ATOM     35  C   UNL     1       6.573   6.410  15.962  0.00  0.00    +0.000 C 
ATOM     36  C   UNL     1       6.921   6.823  17.379  0.00  0.00    +0.000 C 
ATOM     37  C   UNL     1       6.293   5.958  18.453  0.00  0.00    +0.000 C 
ATOM     38  C   UNL     1       6.359   4.464  18.115  0.00  0.00    +0.000 C 
ATOM     39  C   UNL     1       8.248   7.515  17.645  0.00  0.00    +0.000 C 
ATOM     40  C   UNL     1       6.979   8.312  17.668  0.00  0.00    +0.000 C 
ENDBRANCH  32  33
ENDBRANCH   6  32
TORSDOF 7
ENDMDL
MODEL 9
REMARK VINA RESULT:      -8.9      2.991      3.899
REMARK  Name = 
REMARK  8 active torsions:
REMARK  status: ('A' for Active; 'I' for Inactive)
REMARK    1  A    between atoms: C_1  and  N_2
REMARK    2  A    between atoms: C_6  and  C_7
REMARK    3  A    between atoms: C_7  and  C_8
REMARK    4  A    between atoms: C_8  and  C_9
REMARK    5  A    between atoms: C_13  and  N_14
REMARK    6  A    between atoms: C_19  and  C_20
REMARK    7  A    between atoms: C_20  and  N_21
REMARK    8  A    between atoms: C_30  and  C_31
REMARK                            x       y       z     vdW  Elec       q    Type
REMARK                         _______ _______ _______ _____ _____    ______ ____
ROOT
ATOM      1  N   UNL     1       2.261   6.442  19.486  0.00  0.00    +0.000 N 
ATOM      2  C   UNL     1       2.233   7.739  18.870  0.00  0.00    +0.000 C 
ATOM      3  C   UNL     1       1.477   8.597  19.789  0.00  0.00    +0.000 A 
ATOM      4  C   UNL     1       1.156   7.907  20.959  0.00  0.00    +0.000 A 
ATOM      5  C   UNL     1       0.470   8.575  21.982  0.00  0.00    +0.000 A 
ATOM      6  C   UNL     1       0.099   9.934  21.773  0.00  0.00    +0.000 A 
ATOM      7  C   UNL     1       0.438  10.568  20.550  0.00  0.00    +0.000 A 
ATOM      8  C   UNL     1       1.104   9.905  19.531  0.00  0.00    +0.000 A 
ATOM      9  C   UNL     1       1.637   6.480  20.757  0.00  0.00    +0.000 C 
ATOM     10  O   UNL     1       1.438   5.577  21.549  0.00  0.00    +0.000 OA
ENDROOT
BRANCH   1  15
ATOM     11  C   UNL     1       4.676   4.585  17.259  0.00  0.00    +0.000 A 
ATOM     12  C   UNL     1       3.848   3.540  16.832  0.00  0.00    +0.000 A 
ATOM     13  C   UNL     1       2.534   3.392  17.319  0.00  0.00    +0.000 A 
ATOM     14  C   UNL     1       1.978   4.305  18.236  0.00  0.00    +0.000 A 
ATOM     15  C   UNL     1       2.741   5.375  18.669  0.00  0.00    +0.000 A 
ATOM     16  C   UNL     1       4.082   5.454  18.190  0.00  0.00    +0.000 A 
BRANCH  11  17
ATOM     17  C   UNL     1       6.204   4.822  16.755  0.00  0.00    +0.000 C 
ATOM     18  C   UNL     1       7.278   4.770  17.879  0.00  0.00    +0.000 C 
ATOM     19  O   UNL     1       7.647   6.147  17.687  0.00  0.00    +0.000 OA
ATOM     20  C   UNL     1       6.730   6.282  16.581  0.00  0.00    +0.000 C 
BRANCH  17  21
ATOM     21  C   UNL     1       6.555   3.912  15.557  0.00  0.00    +0.000 C 
BRANCH  21  27
ATOM     22  C   UNL     1       5.784   3.393  12.515  0.00  0.00    +0.000 C 
ATOM     23  N   UNL     1       6.742   4.334  13.029  0.00  0.00    +0.000 N 
ATOM     24  C   UNL     1       7.552   5.116  12.261  0.00  0.00    +0.000 A 
ATOM     25  N   UNL     1       8.315   5.849  13.034  0.00  0.00    +0.000 NA
ATOM     26  N   UNL     1       8.007   5.535  14.334  0.00  0.00    +0.000 NA
ATOM     27  C   UNL     1       7.063   4.611  14.335  0.00  0.00    +0.000 A 
ENDBRANCH  21  27
ENDBRANCH  17  21
ENDBRANCH  11  17
ENDBRANCH   1  15
BRANCH   8  28
ATOM     28  C   UNL     1       1.355  10.579  18.200  0.00  0.00    +0.000 C 
ATOM     29  F   UNL     1       0.796   9.921  17.145  0.00  0.00    +0.000 F 
ATOM     30  F   UNL     1       0.838  11.833  18.162  0.00  0.00    +0.000 F 
ATOM     31  F   UNL     1       2.674  10.683  17.912  0.00  0.00    +0.000 F 
ENDBRANCH   8  28
BRANCH   6  32
ATOM     32  C   UNL     1      -0.653  10.812  22.789  0.00  0.00    +0.000 C 
BRANCH  32  33
ATOM     33  N   UNL     1      -1.311  11.946  22.112  0.00  0.00    +0.000 NA
ATOM     34  C   UNL     1      -2.764  12.002  22.281  0.00  0.00    +0.000 C 
ATOM     35  C   UNL     1      -3.237  12.628  23.600  0.00  0.00    +0.000 C 
ATOM     36  C   UNL     1      -2.559  13.951  23.900  0.00  0.00    +0.000 C 
ATOM     37  C   UNL     1      -1.069  13.964  23.628  0.00  0.00    +0.000 C 
ATOM     38  C   UNL     1      -0.706  13.265  22.313  0.00  0.00    +0.000 C 
ATOM     39  C   UNL     1      -3.361  15.237  23.783  0.00  0.00    +0.000 C 
ATOM     40  C   UNL     1      -3.021  14.696  25.139  0.00  0.00    +0.000 C 
ENDBRANCH  32  33
ENDBRANCH   6  32
TORSDOF 7
ENDMDL
