MODEL 1
REMARK VINA RESULT:      -7.3      0.000      0.000
REMARK  Name = 
REMARK  9 active torsions:
REMARK  status: ('A' for Active; 'I' for Inactive)
REMARK    1  A    between atoms: C_1  and  O_2
REMARK    2  A    between atoms: O_2  and  C_3
REMARK    3  A    between atoms: C_7  and  C_8
REMARK    4  A    between atoms: N_10  and  C_11
REMARK    5  A    between atoms: C_15  and  C_16
REMARK    6  A    between atoms: C_16  and  C_17
REMARK    7  A    between atoms: C_16  and  S_18
REMARK    8  A    between atoms: S_18  and  C_19
REMARK    9  A    between atoms: N_23  and  C_24
REMARK                            x       y       z     vdW  Elec       q    Type
REMARK                         _______ _______ _______ _____ _____    ______ ____
ROOT
ATOM      1  C   UNL     1       2.694   6.063  17.991  0.00  0.00    +0.000 A 
ATOM      2  C   UNL     1       2.069   4.851  18.288  0.00  0.00    +0.000 A 
ATOM      3  C   UNL     1       2.644   3.642  17.914  0.00  0.00    +0.000 A 
ATOM      4  C   UNL     1       3.843   3.631  17.211  0.00  0.00    +0.000 A 
ATOM      5  C   UNL     1       4.469   4.832  16.836  0.00  0.00    +0.000 A 
ATOM      6  C   UNL     1       3.877   6.051  17.233  0.00  0.00    +0.000 A 
ENDROOT
BRANCH   1   9
ATOM      7  C   UNL     1       1.769   7.578  19.741  0.00  0.00    +0.000 C 
ATOM      8  O   UNL     1       1.768   6.812  20.699  0.00  0.00    +0.000 OA
ATOM      9  N   UNL     1       2.181   7.297  18.444  0.00  0.00    +0.000 N 
ATOM     10  H   UNL     1       2.225   8.102  17.827  0.00  0.00    +0.000 HD
BRANCH   7  15
ATOM     11  C   UNL     1       0.536  10.578  21.407  0.00  0.00    +0.000 A 
ATOM     12  C   UNL     1       0.527  11.549  20.416  0.00  0.00    +0.000 A 
ATOM     13  C   UNL     1       0.937  11.193  19.136  0.00  0.00    +0.000 A 
ATOM     14  C   UNL     1       1.348   9.888  18.894  0.00  0.00    +0.000 A 
ATOM     15  C   UNL     1       1.326   8.987  19.953  0.00  0.00    +0.000 A 
ATOM     16  N   UNL     1       0.915   9.298  21.210  0.00  0.00    +0.000 NA
BRANCH  11  18
ATOM     17  C   UNL     1      -0.833  10.111  23.237  0.00  0.00    +0.000 C 
ATOM     18  O   UNL     1       0.146  10.977  22.667  0.00  0.00    +0.000 OA
ENDBRANCH  11  18
ENDBRANCH   7  15
ENDBRANCH   1   9
BRANCH   5  19
ATOM     19  C   UNL     1       5.743   4.751  16.006  0.00  0.00    +0.000 C 
ATOM     20  C   UNL     1       5.703   3.616  14.980  0.00  0.00    +0.000 C 
BRANCH  19  21
ATOM     21  S   UNL     1       7.245   4.525  17.023  0.00  0.00    +0.000 S 
BRANCH  21  22
ATOM     22  C   UNL     1       7.608   6.156  17.441  0.00  0.00    +0.000 A 
ATOM     23  N   UNL     1       7.586   7.204  16.651  0.00  0.00    +0.000 NA
ATOM     24  N   UNL     1       7.958   8.299  17.407  0.00  0.00    +0.000 NA
ATOM     25  C   UNL     1       8.182   7.879  18.633  0.00  0.00    +0.000 A 
ATOM     26  N   UNL     1       7.971   6.539  18.700  0.00  0.00    +0.000 N 
ATOM     27  C   UNL     1       8.093   5.712  19.871  0.00  0.00    +0.000 C 
ENDBRANCH  21  22
ENDBRANCH  19  21
ENDBRANCH   5  19
TORSDOF 6
ENDMDL
MODEL 2
REMARK VINA RESULT:      -7.2      1.058      1.105
REMARK  Name = 
REMARK  9 active torsions:
REMARK  status: ('A' for Active; 'I' for Inactive)
REMARK    1  A    between atoms: C_1  and  O_2
REMARK    2  A    between atoms: O_2  and  C_3
REMARK    3  A    between atoms: C_7  and  C_8
REMARK    4  A    between atoms: N_10  and  C_11
REMARK    5  A    between atoms: C_15  and  C_16
REMARK    6  A    between atoms: C_16  and  C_17
REMARK    7  A    between atoms: C_16  and  S_18
REMARK    8  A    between atoms: S_18  and  C_19
REMARK    9  A    between atoms: N_23  and  C_24
REMARK                            x       y       z     vdW  Elec       q    Type
REMARK                         _______ _______ _______ _____ _____    ______ ____
ROOT
ATOM      1  C   UNL     1       2.534   6.224  18.216  0.00  0.00    +0.000 A 
ATOM      2  C   UNL     1       1.841   5.018  18.321  0.00  0.00    +0.000 A 
ATOM      3  C   UNL     1       2.353   3.851  17.767  0.00  0.00    +0.000 A 
ATOM      4  C   UNL     1       3.558   3.882  17.072  0.00  0.00    +0.000 A 
ATOM      5  C   UNL     1       4.252   5.089  16.887  0.00  0.00    +0.000 A 
ATOM      6  C   UNL     1       3.722   6.264  17.466  0.00  0.00    +0.000 A 
ENDROOT
BRANCH   1   9
ATOM      7  C   UNL     1       1.901   8.635  18.242  0.00  0.00    +0.000 C 
ATOM      8  O   UNL     1       2.105   8.916  17.065  0.00  0.00    +0.000 OA
ATOM      9  N   UNL     1       2.085   7.400  18.853  0.00  0.00    +0.000 N 
ATOM     10  H   UNL     1       1.737   7.340  19.805  0.00  0.00    +0.000 HD
BRANCH   7  15
ATOM     11  C   UNL     1       0.126  10.209  21.011  0.00  0.00    +0.000 A 
ATOM     12  C   UNL     1       0.357  11.567  20.847  0.00  0.00    +0.000 A 
ATOM     13  C   UNL     1       1.126  11.983  19.764  0.00  0.00    +0.000 A 
ATOM     14  C   UNL     1       1.641  11.031  18.894  0.00  0.00    +0.000 A 
ATOM     15  C   UNL     1       1.358   9.692  19.145  0.00  0.00    +0.000 A 
ATOM     16  N   UNL     1       0.597   9.255  20.182  0.00  0.00    +0.000 NA
BRANCH  11  18
ATOM     17  C   UNL     1       0.192   9.471  23.223  0.00  0.00    +0.000 C 
ATOM     18  O   UNL     1      -0.620   9.838  22.109  0.00  0.00    +0.000 OA
ENDBRANCH  11  18
ENDBRANCH   7  15
ENDBRANCH   1   9
BRANCH   5  19
ATOM     19  C   UNL     1       5.527   5.067  16.056  0.00  0.00    +0.000 C 
ATOM     20  C   UNL     1       5.465   4.050  14.915  0.00  0.00    +0.000 C 
BRANCH  19  21
ATOM     21  S   UNL     1       7.018   4.696  17.047  0.00  0.00    +0.000 S 
BRANCH  21  22
ATOM     22  C   UNL     1       7.515   6.282  17.500  0.00  0.00    +0.000 A 
ATOM     23  N   UNL     1       7.485   7.367  16.762  0.00  0.00    +0.000 NA
ATOM     24  N   UNL     1       7.990   8.401  17.526  0.00  0.00    +0.000 NA
ATOM     25  C   UNL     1       8.298   7.910  18.706  0.00  0.00    +0.000 A 
ATOM     26  N   UNL     1       8.013   6.582  18.735  0.00  0.00    +0.000 N 
ATOM     27  C   UNL     1       8.190   5.693  19.852  0.00  0.00    +0.000 C 
ENDBRANCH  21  22
ENDBRANCH  19  21
ENDBRANCH   5  19
TORSDOF 6
ENDMDL
MODEL 3
REMARK VINA RESULT:      -7.2      4.410      7.070
REMARK  Name = 
REMARK  9 active torsions:
REMARK  status: ('A' for Active; 'I' for Inactive)
REMARK    1  A    between atoms: C_1  and  O_2
REMARK    2  A    between atoms: O_2  and  C_3
REMARK    3  A    between atoms: C_7  and  C_8
REMARK    4  A    between atoms: N_10  and  C_11
REMARK    5  A    between atoms: C_15  and  C_16
REMARK    6  A    between atoms: C_16  and  C_17
REMARK    7  A    between atoms: C_16  and  S_18
REMARK    8  A    between atoms: S_18  and  C_19
REMARK    9  A    between atoms: N_23  and  C_24
REMARK                            x       y       z     vdW  Elec       q    Type
REMARK                         _______ _______ _______ _____ _____    ______ ____
ROOT
ATOM      1  C   UNL     1       6.483   6.717  16.907  0.00  0.00    +0.000 A 
ATOM      2  C   UNL     1       6.966   5.964  15.837  0.00  0.00    +0.000 A 
ATOM      3  C   UNL     1       6.329   4.792  15.445  0.00  0.00    +0.000 A 
ATOM      4  C   UNL     1       5.212   4.342  16.141  0.00  0.00    +0.000 A 
ATOM      5  C   UNL     1       4.735   5.038  17.264  0.00  0.00    +0.000 A 
ATOM      6  C   UNL     1       5.388   6.232  17.642  0.00  0.00    +0.000 A 
ENDROOT
BRANCH   1   9
ATOM      7  C   UNL     1       8.054   8.153  18.204  0.00  0.00    +0.000 C 
ATOM      8  O   UNL     1       8.602   7.295  18.889  0.00  0.00    +0.000 OA
ATOM      9  N   UNL     1       7.052   7.959  17.262  0.00  0.00    +0.000 N 
ATOM     10  H   UNL     1       6.821   8.779  16.709  0.00  0.00    +0.000 HD
BRANCH   7  15
ATOM     11  C   UNL     1       9.755  11.111  19.490  0.00  0.00    +0.000 A 
ATOM     12  C   UNL     1       9.397  12.127  18.616  0.00  0.00    +0.000 A 
ATOM     13  C   UNL     1       8.546  11.824  17.559  0.00  0.00    +0.000 A 
ATOM     14  C   UNL     1       8.091  10.520  17.408  0.00  0.00    +0.000 A 
ATOM     15  C   UNL     1       8.509   9.569  18.334  0.00  0.00    +0.000 A 
ATOM     16  N   UNL     1       9.326   9.837  19.386  0.00  0.00    +0.000 NA
BRANCH  11  18
ATOM     17  C   UNL     1      10.401  12.771  20.996  0.00  0.00    +0.000 C 
ATOM     18  O   UNL     1      10.619  11.449  20.510  0.00  0.00    +0.000 OA
ENDBRANCH  11  18
ENDBRANCH   7  15
ENDBRANCH   1   9
BRANCH   5  19
ATOM     19  C   UNL     1       3.552   4.454  18.024  0.00  0.00    +0.000 C 
ATOM     20  C   UNL     1       3.227   5.238  19.297  0.00  0.00    +0.000 C 
BRANCH  19  21
ATOM     21  S   UNL     1       3.800   2.707  18.499  0.00  0.00    +0.000 S 
BRANCH  21  22
ATOM     22  C   UNL     1       2.957   2.651  20.000  0.00  0.00    +0.000 A 
ATOM     23  N   UNL     1       3.476   2.661  21.206  0.00  0.00    +0.000 NA
ATOM     24  N   UNL     1       2.431   2.590  22.106  0.00  0.00    +0.000 NA
ATOM     25  C   UNL     1       1.312   2.550  21.416  0.00  0.00    +0.000 A 
ATOM     26  N   UNL     1       1.596   2.590  20.088  0.00  0.00    +0.000 N 
ATOM     27  C   UNL     1       0.644   2.585  19.010  0.00  0.00    +0.000 C 
ENDBRANCH  21  22
ENDBRANCH  19  21
ENDBRANCH   5  19
TORSDOF 6
ENDMDL
MODEL 4
REMARK VINA RESULT:      -7.2      4.059      8.918
REMARK  Name = 
REMARK  9 active torsions:
REMARK  status: ('A' for Active; 'I' for Inactive)
REMARK    1  A    between atoms: C_1  and  O_2
REMARK    2  A    between atoms: O_2  and  C_3
REMARK    3  A    between atoms: C_7  and  C_8
REMARK    4  A    between atoms: N_10  and  C_11
REMARK    5  A    between atoms: C_15  and  C_16
REMARK    6  A    between atoms: C_16  and  C_17
REMARK    7  A    between atoms: C_16  and  S_18
REMARK    8  A    between atoms: S_18  and  C_19
REMARK    9  A    between atoms: N_23  and  C_24
REMARK                            x       y       z     vdW  Elec       q    Type
REMARK                         _______ _______ _______ _____ _____    ______ ____
ROOT
ATOM      1  C   UNL     1       1.233   8.582  20.458  0.00  0.00    +0.000 A 
ATOM      2  C   UNL     1       1.088   8.794  21.829  0.00  0.00    +0.000 A 
ATOM      3  C   UNL     1       0.397   9.900  22.311  0.00  0.00    +0.000 A 
ATOM      4  C   UNL     1      -0.136  10.827  21.421  0.00  0.00    +0.000 A 
ATOM      5  C   UNL     1       0.046  10.683  20.036  0.00  0.00    +0.000 A 
ATOM      6  C   UNL     1       0.741   9.548  19.564  0.00  0.00    +0.000 A 
ENDROOT
BRANCH   1   9
ATOM      7  C   UNL     1       2.550   7.332  18.750  0.00  0.00    +0.000 C 
ATOM      8  O   UNL     1       2.753   8.234  17.944  0.00  0.00    +0.000 OA
ATOM      9  N   UNL     1       1.843   7.419  19.944  0.00  0.00    +0.000 N 
ATOM     10  H   UNL     1       1.898   6.593  20.533  0.00  0.00    +0.000 HD
BRANCH   7  15
ATOM     11  C   UNL     1       4.974   4.612  18.608  0.00  0.00    +0.000 A 
ATOM     12  C   UNL     1       4.276   3.552  18.045  0.00  0.00    +0.000 A 
ATOM     13  C   UNL     1       2.947   3.749  17.686  0.00  0.00    +0.000 A 
ATOM     14  C   UNL     1       2.361   4.989  17.909  0.00  0.00    +0.000 A 
ATOM     15  C   UNL     1       3.141   5.988  18.483  0.00  0.00    +0.000 A 
ATOM     16  N   UNL     1       4.446   5.833  18.828  0.00  0.00    +0.000 NA
BRANCH  11  18
ATOM     17  C   UNL     1       7.018   5.566  19.198  0.00  0.00    +0.000 C 
ATOM     18  O   UNL     1       6.281   4.367  18.970  0.00  0.00    +0.000 OA
ENDBRANCH  11  18
ENDBRANCH   7  15
ENDBRANCH   1   9
BRANCH   5  19
ATOM     19  C   UNL     1      -0.501  11.771  19.121  0.00  0.00    +0.000 C 
ATOM     20  C   UNL     1       0.054  13.155  19.459  0.00  0.00    +0.000 C 
BRANCH  19  21
ATOM     21  S   UNL     1      -2.325  11.882  19.157  0.00  0.00    +0.000 S 
BRANCH  21  22
ATOM     22  C   UNL     1      -2.723  11.270  17.596  0.00  0.00    +0.000 A 
ATOM     23  N   UNL     1      -1.926  10.654  16.756  0.00  0.00    +0.000 NA
ATOM     24  N   UNL     1      -2.666  10.355  15.628  0.00  0.00    +0.000 NA
ATOM     25  C   UNL     1      -3.890  10.790  15.828  0.00  0.00    +0.000 A 
ATOM     26  N   UNL     1      -3.972  11.369  17.054  0.00  0.00    +0.000 N 
ATOM     27  C   UNL     1      -5.147  11.948  17.649  0.00  0.00    +0.000 C 
ENDBRANCH  21  22
ENDBRANCH  19  21
ENDBRANCH   5  19
TORSDOF 6
ENDMDL
MODEL 5
REMARK VINA RESULT:      -7.2      6.046      9.719
REMARK  Name = 
REMARK  9 active torsions:
REMARK  status: ('A' for Active; 'I' for Inactive)
REMARK    1  A    between atoms: C_1  and  O_2
REMARK    2  A    between atoms: O_2  and  C_3
REMARK    3  A    between atoms: C_7  and  C_8
REMARK    4  A    between atoms: N_10  and  C_11
REMARK    5  A    between atoms: C_15  and  C_16
REMARK    6  A    between atoms: C_16  and  C_17
REMARK    7  A    between atoms: C_16  and  S_18
REMARK    8  A    between atoms: S_18  and  C_19
REMARK    9  A    between atoms: N_23  and  C_24
REMARK                            x       y       z     vdW  Elec       q    Type
REMARK                         _______ _______ _______ _____ _____    ______ ____
ROOT
ATOM      1  C   UNL     1       9.490  10.451  19.451  0.00  0.00    +0.000 A 
ATOM      2  C   UNL     1       9.525  10.870  20.781  0.00  0.00    +0.000 A 
ATOM      3  C   UNL     1       9.904  12.166  21.110  0.00  0.00    +0.000 A 
ATOM      4  C   UNL     1      10.282  13.055  20.109  0.00  0.00    +0.000 A 
ATOM      5  C   UNL     1      10.324  12.650  18.765  0.00  0.00    +0.000 A 
ATOM      6  C   UNL     1       9.925  11.333  18.447  0.00  0.00    +0.000 A 
ENDROOT
BRANCH   1   9
ATOM      7  C   UNL     1       8.058   8.912  18.111  0.00  0.00    +0.000 C 
ATOM      8  O   UNL     1       7.460   9.732  17.422  0.00  0.00    +0.000 OA
ATOM      9  N   UNL     1       9.015   9.174  19.084  0.00  0.00    +0.000 N 
ATOM     10  H   UNL     1       9.485   8.352  19.452  0.00  0.00    +0.000 HD
BRANCH   7  15
ATOM     11  C   UNL     1       7.043   5.819  16.469  0.00  0.00    +0.000 A 
ATOM     12  C   UNL     1       7.300   4.826  17.405  0.00  0.00    +0.000 A 
ATOM     13  C   UNL     1       7.822   5.198  18.639  0.00  0.00    +0.000 A 
ATOM     14  C   UNL     1       8.077   6.540  18.891  0.00  0.00    +0.000 A 
ATOM     15  C   UNL     1       7.790   7.461  17.888  0.00  0.00    +0.000 A 
ATOM     16  N   UNL     1       7.263   7.132  16.679  0.00  0.00    +0.000 NA
BRANCH  11  18
ATOM     17  C   UNL     1       6.262   4.009  15.222  0.00  0.00    +0.000 C 
ATOM     18  O   UNL     1       6.548   5.405  15.251  0.00  0.00    +0.000 OA
ENDBRANCH  11  18
ENDBRANCH   7  15
ENDBRANCH   1   9
BRANCH   5  19
ATOM     19  C   UNL     1      10.815  13.650  17.727  0.00  0.00    +0.000 C 
ATOM     20  C   UNL     1      11.922  13.077  16.840  0.00  0.00    +0.000 C 
BRANCH  19  21
ATOM     21  S   UNL     1      11.446  15.197  18.469  0.00  0.00    +0.000 S 
BRANCH  21  22
ATOM     22  C   UNL     1       9.998  16.125  18.574  0.00  0.00    +0.000 A 
ATOM     23  N   UNL     1       9.025  16.186  17.695  0.00  0.00    +0.000 NA
ATOM     24  N   UNL     1       8.077  17.061  18.188  0.00  0.00    +0.000 NA
ATOM     25  C   UNL     1       8.502  17.493  19.354  0.00  0.00    +0.000 A 
ATOM     26  N   UNL     1       9.704  16.927  19.639  0.00  0.00    +0.000 N 
ATOM     27  C   UNL     1      10.485  17.132  20.829  0.00  0.00    +0.000 C 
ENDBRANCH  21  22
ENDBRANCH  19  21
ENDBRANCH   5  19
TORSDOF 6
ENDMDL
MODEL 6
REMARK VINA RESULT:      -7.1      5.297      8.999
REMARK  Name = 
REMARK  9 active torsions:
REMARK  status: ('A' for Active; 'I' for Inactive)
REMARK    1  A    between atoms: C_1  and  O_2
REMARK    2  A    between atoms: O_2  and  C_3
REMARK    3  A    between atoms: C_7  and  C_8
REMARK    4  A    between atoms: N_10  and  C_11
REMARK    5  A    between atoms: C_15  and  C_16
REMARK    6  A    between atoms: C_16  and  C_17
REMARK    7  A    between atoms: C_16  and  S_18
REMARK    8  A    between atoms: S_18  and  C_19
REMARK    9  A    between atoms: N_23  and  C_24
REMARK                            x       y       z     vdW  Elec       q    Type
REMARK                         _______ _______ _______ _____ _____    ______ ____
ROOT
ATOM      1  C   UNL     1       8.673  10.092  18.368  0.00  0.00    +0.000 A 
ATOM      2  C   UNL     1       9.044   9.958  19.706  0.00  0.00    +0.000 A 
ATOM      3  C   UNL     1       9.710  10.983  20.368  0.00  0.00    +0.000 A 
ATOM      4  C   UNL     1      10.040  12.150  19.687  0.00  0.00    +0.000 A 
ATOM      5  C   UNL     1       9.742  12.296  18.322  0.00  0.00    +0.000 A 
ATOM      6  C   UNL     1       9.056  11.249  17.668  0.00  0.00    +0.000 A 
ENDROOT
BRANCH   1   9
ATOM      7  C   UNL     1       7.902   7.751  18.000  0.00  0.00    +0.000 C 
ATOM      8  O   UNL     1       8.551   7.179  18.870  0.00  0.00    +0.000 OA
ATOM      9  N   UNL     1       7.912   9.108  17.703  0.00  0.00    +0.000 N 
ATOM     10  H   UNL     1       7.207   9.403  17.033  0.00  0.00    +0.000 HD
BRANCH   7  15
ATOM     11  C   UNL     1       6.663   5.414  15.490  0.00  0.00    +0.000 A 
ATOM     12  C   UNL     1       5.284   5.435  15.644  0.00  0.00    +0.000 A 
ATOM     13  C   UNL     1       4.738   6.268  16.614  0.00  0.00    +0.000 A 
ATOM     14  C   UNL     1       5.585   7.040  17.399  0.00  0.00    +0.000 A 
ATOM     15  C   UNL     1       6.954   6.948  17.173  0.00  0.00    +0.000 A 
ATOM     16  N   UNL     1       7.518   6.157  16.222  0.00  0.00    +0.000 NA
BRANCH  11  18
ATOM     17  C   UNL     1       6.140   3.844  13.846  0.00  0.00    +0.000 C 
ATOM     18  O   UNL     1       7.165   4.558  14.533  0.00  0.00    +0.000 OA
ENDBRANCH  11  18
ENDBRANCH   7  15
ENDBRANCH   1   9
BRANCH   5  19
ATOM     19  C   UNL     1      10.194  13.569  17.619  0.00  0.00    +0.000 C 
ATOM     20  C   UNL     1      11.690  13.564  17.301  0.00  0.00    +0.000 C 
BRANCH  19  21
ATOM     21  S   UNL     1       9.838  15.081  18.583  0.00  0.00    +0.000 S 
BRANCH  21  22
ATOM     22  C   UNL     1       8.115  15.070  18.588  0.00  0.00    +0.000 A 
ATOM     23  N   UNL     1       7.316  15.073  17.548  0.00  0.00    +0.000 NA
ATOM     24  N   UNL     1       6.019  15.074  18.023  0.00  0.00    +0.000 NA
ATOM     25  C   UNL     1       6.076  15.060  19.337  0.00  0.00    +0.000 A 
ATOM     26  N   UNL     1       7.375  15.053  19.735  0.00  0.00    +0.000 N 
ATOM     27  C   UNL     1       7.853  15.018  21.091  0.00  0.00    +0.000 C 
ENDBRANCH  21  22
ENDBRANCH  19  21
ENDBRANCH   5  19
TORSDOF 6
ENDMDL
MODEL 7
REMARK VINA RESULT:      -7.1      3.426      8.461
REMARK  Name = 
REMARK  9 active torsions:
REMARK  status: ('A' for Active; 'I' for Inactive)
REMARK    1  A    between atoms: C_1  and  O_2
REMARK    2  A    between atoms: O_2  and  C_3
REMARK    3  A    between atoms: C_7  and  C_8
REMARK    4  A    between atoms: N_10  and  C_11
REMARK    5  A    between atoms: C_15  and  C_16
REMARK    6  A    between atoms: C_16  and  C_17
REMARK    7  A    between atoms: C_16  and  S_18
REMARK    8  A    between atoms: S_18  and  C_19
REMARK    9  A    between atoms: N_23  and  C_24
REMARK                            x       y       z     vdW  Elec       q    Type
REMARK                         _______ _______ _______ _____ _____    ______ ____
ROOT
ATOM      1  C   UNL     1       1.445   8.485  20.627  0.00  0.00    +0.000 A 
ATOM      2  C   UNL     1       1.330   8.504  22.017  0.00  0.00    +0.000 A 
ATOM      3  C   UNL     1       0.461   9.386  22.649  0.00  0.00    +0.000 A 
ATOM      4  C   UNL     1      -0.285  10.285  21.895  0.00  0.00    +0.000 A 
ATOM      5  C   UNL     1      -0.148  10.342  20.498  0.00  0.00    +0.000 A 
ATOM      6  C   UNL     1       0.731   9.431  19.872  0.00  0.00    +0.000 A 
ENDROOT
BRANCH   1   9
ATOM      7  C   UNL     1       2.098   6.155  20.031  0.00  0.00    +0.000 C 
ATOM      8  O   UNL     1       1.270   5.533  20.688  0.00  0.00    +0.000 OA
ATOM      9  N   UNL     1       2.244   7.535  19.957  0.00  0.00    +0.000 N 
ATOM     10  H   UNL     1       2.906   7.857  19.257  0.00  0.00    +0.000 HD
BRANCH   7  15
ATOM     11  C   UNL     1       5.211   4.746  18.758  0.00  0.00    +0.000 A 
ATOM     12  C   UNL     1       4.829   3.995  17.655  0.00  0.00    +0.000 A 
ATOM     13  C   UNL     1       3.482   3.962  17.310  0.00  0.00    +0.000 A 
ATOM     14  C   UNL     1       2.568   4.669  18.080  0.00  0.00    +0.000 A 
ATOM     15  C   UNL     1       3.046   5.390  19.169  0.00  0.00    +0.000 A 
ATOM     16  N   UNL     1       4.357   5.456  19.523  0.00  0.00    +0.000 NA
BRANCH  11  18
ATOM     17  C   UNL     1       7.390   4.752  17.928  0.00  0.00    +0.000 C 
ATOM     18  O   UNL     1       6.551   4.733  19.080  0.00  0.00    +0.000 OA
ENDBRANCH  11  18
ENDBRANCH   7  15
ENDBRANCH   1   9
BRANCH   5  19
ATOM     19  C   UNL     1      -0.941  11.397  19.739  0.00  0.00    +0.000 C 
ATOM     20  C   UNL     1      -1.818  10.794  18.640  0.00  0.00    +0.000 C 
BRANCH  19  21
ATOM     21  S   UNL     1       0.121  12.667  18.963  0.00  0.00    +0.000 S 
BRANCH  21  22
ATOM     22  C   UNL     1       0.642  13.551  20.348  0.00  0.00    +0.000 A 
ATOM     23  N   UNL     1       1.745  13.375  21.035  0.00  0.00    +0.000 NA
ATOM     24  N   UNL     1       1.742  14.296  22.065  0.00  0.00    +0.000 NA
ATOM     25  C   UNL     1       0.641  15.006  21.960  0.00  0.00    +0.000 A 
ATOM     26  N   UNL     1      -0.079  14.574  20.892  0.00  0.00    +0.000 N 
ATOM     27  C   UNL     1      -1.334  15.109  20.434  0.00  0.00    +0.000 C 
ENDBRANCH  21  22
ENDBRANCH  19  21
ENDBRANCH   5  19
TORSDOF 6
ENDMDL
MODEL 8
REMARK VINA RESULT:      -7.1      4.348      7.232
REMARK  Name = 
REMARK  9 active torsions:
REMARK  status: ('A' for Active; 'I' for Inactive)
REMARK    1  A    between atoms: C_1  and  O_2
REMARK    2  A    between atoms: O_2  and  C_3
REMARK    3  A    between atoms: C_7  and  C_8
REMARK    4  A    between atoms: N_10  and  C_11
REMARK    5  A    between atoms: C_15  and  C_16
REMARK    6  A    between atoms: C_16  and  C_17
REMARK    7  A    between atoms: C_16  and  S_18
REMARK    8  A    between atoms: S_18  and  C_19
REMARK    9  A    between atoms: N_23  and  C_24
REMARK                            x       y       z     vdW  Elec       q    Type
REMARK                         _______ _______ _______ _____ _____    ______ ____
ROOT
ATOM      1  C   UNL     1       7.761   7.991  18.005  0.00  0.00    +0.000 A 
ATOM      2  C   UNL     1       8.418   7.054  18.803  0.00  0.00    +0.000 A 
ATOM      3  C   UNL     1       7.936   5.756  18.923  0.00  0.00    +0.000 A 
ATOM      4  C   UNL     1       6.768   5.385  18.264  0.00  0.00    +0.000 A 
ATOM      5  C   UNL     1       6.043   6.317  17.504  0.00  0.00    +0.000 A 
ATOM      6  C   UNL     1       6.553   7.629  17.384  0.00  0.00    +0.000 A 
ENDROOT
BRANCH   1   9
ATOM      7  C   UNL     1       8.948  10.058  18.731  0.00  0.00    +0.000 C 
ATOM      8  O   UNL     1       9.182   9.763  19.899  0.00  0.00    +0.000 OA
ATOM      9  N   UNL     1       8.283   9.283  17.789  0.00  0.00    +0.000 N 
ATOM     10  H   UNL     1       8.304   9.652  16.843  0.00  0.00    +0.000 HD
BRANCH   7  15
ATOM     11  C   UNL     1       9.014  13.577  17.777  0.00  0.00    +0.000 A 
ATOM     12  C   UNL     1      10.300  13.785  17.300  0.00  0.00    +0.000 A 
ATOM     13  C   UNL     1      11.183  12.710  17.282  0.00  0.00    +0.000 A 
ATOM     14  C   UNL     1      10.755  11.474  17.748  0.00  0.00    +0.000 A 
ATOM     15  C   UNL     1       9.447  11.365  18.211  0.00  0.00    +0.000 A 
ATOM     16  N   UNL     1       8.556  12.390  18.226  0.00  0.00    +0.000 NA
BRANCH  11  18
ATOM     17  C   UNL     1       7.644  14.926  19.097  0.00  0.00    +0.000 C 
ATOM     18  O   UNL     1       8.179  14.673  17.800  0.00  0.00    +0.000 OA
ENDBRANCH  11  18
ENDBRANCH   7  15
ENDBRANCH   1   9
BRANCH   5  19
ATOM     19  C   UNL     1       4.736   5.866  16.866  0.00  0.00    +0.000 C 
ATOM     20  C   UNL     1       3.514   6.243  17.704  0.00  0.00    +0.000 C 
BRANCH  19  21
ATOM     21  S   UNL     1       4.671   4.062  16.573  0.00  0.00    +0.000 S 
BRANCH  21  22
ATOM     22  C   UNL     1       3.251   3.638  17.451  0.00  0.00    +0.000 A 
ATOM     23  N   UNL     1       2.010   3.675  17.025  0.00  0.00    +0.000 NA
ATOM     24  N   UNL     1       1.203   3.263  18.067  0.00  0.00    +0.000 NA
ATOM     25  C   UNL     1       1.982   2.978  19.087  0.00  0.00    +0.000 A 
ATOM     26  N   UNL     1       3.278   3.196  18.743  0.00  0.00    +0.000 N 
ATOM     27  C   UNL     1       4.431   2.984  19.577  0.00  0.00    +0.000 C 
ENDBRANCH  21  22
ENDBRANCH  19  21
ENDBRANCH   5  19
TORSDOF 6
ENDMDL
MODEL 9
REMARK VINA RESULT:      -7.0      2.119      3.131
REMARK  Name = 
REMARK  9 active torsions:
REMARK  status: ('A' for Active; 'I' for Inactive)
REMARK    1  A    between atoms: C_1  and  O_2
REMARK    2  A    between atoms: O_2  and  C_3
REMARK    3  A    between atoms: C_7  and  C_8
REMARK    4  A    between atoms: N_10  and  C_11
REMARK    5  A    between atoms: C_15  and  C_16
REMARK    6  A    between atoms: C_16  and  C_17
REMARK    7  A    between atoms: C_16  and  S_18
REMARK    8  A    between atoms: S_18  and  C_19
REMARK    9  A    between atoms: N_23  and  C_24
REMARK                            x       y       z     vdW  Elec       q    Type
REMARK                         _______ _______ _______ _____ _____    ______ ____
ROOT
ATOM      1  C   UNL     1       2.823   5.865  17.970  0.00  0.00    +0.000 A 
ATOM      2  C   UNL     1       2.052   4.711  17.830  0.00  0.00    +0.000 A 
ATOM      3  C   UNL     1       2.632   3.507  17.448  0.00  0.00    +0.000 A 
ATOM      4  C   UNL     1       3.994   3.450  17.171  0.00  0.00    +0.000 A 
ATOM      5  C   UNL     1       4.791   4.604  17.236  0.00  0.00    +0.000 A 
ATOM      6  C   UNL     1       4.187   5.816  17.637  0.00  0.00    +0.000 A 
ENDROOT
BRANCH   1   9
ATOM      7  C   UNL     1       1.875   7.319  19.759  0.00  0.00    +0.000 C 
ATOM      8  O   UNL     1       1.915   6.538  20.704  0.00  0.00    +0.000 OA
ATOM      9  N   UNL     1       2.276   7.073  18.451  0.00  0.00    +0.000 N 
ATOM     10  H   UNL     1       2.283   7.889  17.847  0.00  0.00    +0.000 HD
BRANCH   7  15
ATOM     11  C   UNL     1       0.539  10.239  21.486  0.00  0.00    +0.000 A 
ATOM     12  C   UNL     1       0.509  11.233  20.518  0.00  0.00    +0.000 A 
ATOM     13  C   UNL     1       0.940  10.921  19.233  0.00  0.00    +0.000 A 
ATOM     14  C   UNL     1       1.391   9.636  18.963  0.00  0.00    +0.000 A 
ATOM     15  C   UNL     1       1.388   8.708  20.001  0.00  0.00    +0.000 A 
ATOM     16  N   UNL     1       0.958   8.977  21.261  0.00  0.00    +0.000 NA
BRANCH  11  18
ATOM     17  C   UNL     1      -0.854  11.631  22.735  0.00  0.00    +0.000 C 
ATOM     18  O   UNL     1       0.126  10.596  22.752  0.00  0.00    +0.000 OA
ENDBRANCH  11  18
ENDBRANCH   7  15
ENDBRANCH   1   9
BRANCH   5  19
ATOM     19  C   UNL     1       6.260   4.487  16.852  0.00  0.00    +0.000 C 
ATOM     20  C   UNL     1       7.195   4.681  18.047  0.00  0.00    +0.000 C 
BRANCH  19  21
ATOM     21  S   UNL     1       6.757   5.682  15.561  0.00  0.00    +0.000 S 
BRANCH  21  22
ATOM     22  C   UNL     1       6.564   4.728  14.139  0.00  0.00    +0.000 A 
ATOM     23  N   UNL     1       5.667   3.795  13.922  0.00  0.00    +0.000 NA
ATOM     24  N   UNL     1       5.894   3.290  12.657  0.00  0.00    +0.000 NA
ATOM     25  C   UNL     1       6.914   3.942  12.144  0.00  0.00    +0.000 A 
ATOM     26  N   UNL     1       7.364   4.858  13.041  0.00  0.00    +0.000 N 
ATOM     27  C   UNL     1       8.453   5.780  12.849  0.00  0.00    +0.000 C 
ENDBRANCH  21  22
ENDBRANCH  19  21
ENDBRANCH   5  19
TORSDOF 6
ENDMDL
