MODEL 1
REMARK VINA RESULT:      -8.9      0.000      0.000
REMARK  Name = 
REMARK  9 active torsions:
REMARK  status: ('A' for Active; 'I' for Inactive)
REMARK    1  A    between atoms: C_1  and  C_2
REMARK    2  A    between atoms: C_5  and  C_6
REMARK    3  A    between atoms: N_8  and  C_9
REMARK    4  A    between atoms: C_13  and  C_14
REMARK    5  A    between atoms: C_14  and  C_15
REMARK    6  A    between atoms: C_14  and  C_16
REMARK    7  A    between atoms: C_16  and  C_19
REMARK    8  A    between atoms: N_23  and  C_24
REMARK    9  A    between atoms: C_27  and  C_28
REMARK                            x       y       z     vdW  Elec       q    Type
REMARK                         _______ _______ _______ _____ _____    ______ ____
ROOT
ATOM      1  C   UNL     1       2.820   5.527  18.914  0.00  0.00    +0.000 A 
ATOM      2  C   UNL     1       2.692   4.170  19.218  0.00  0.00    +0.000 A 
ATOM      3  C   UNL     1       3.371   3.205  18.479  0.00  0.00    +0.000 A 
ATOM      4  C   UNL     1       4.187   3.588  17.418  0.00  0.00    +0.000 A 
ATOM      5  C   UNL     1       4.321   4.941  17.068  0.00  0.00    +0.000 A 
ATOM      6  C   UNL     1       3.618   5.903  17.825  0.00  0.00    +0.000 A 
ENDROOT
BRANCH   1   9
ATOM      7  C   UNL     1       2.005   7.851  19.272  0.00  0.00    +0.000 C 
ATOM      8  O   UNL     1       2.366   8.341  18.202  0.00  0.00    +0.000 OA
ATOM      9  N   UNL     1       2.181   6.537  19.667  0.00  0.00    +0.000 N 
ATOM     10  H   UNL     1       1.719   6.283  20.537  0.00  0.00    +0.000 HD
BRANCH   7  15
ATOM     11  C   UNL     1      -0.907  11.189  22.900  0.00  0.00    +0.000 C 
ATOM     12  C   UNL     1      -0.120  10.340  21.942  0.00  0.00    +0.000 A 
ATOM     13  C   UNL     1       0.539   9.207  22.439  0.00  0.00    +0.000 A 
ATOM     14  C   UNL     1       1.244   8.383  21.576  0.00  0.00    +0.000 A 
ATOM     15  C   UNL     1       1.273   8.720  20.234  0.00  0.00    +0.000 A 
ATOM     16  N   UNL     1       0.664   9.815  19.719  0.00  0.00    +0.000 NA
ATOM     17  C   UNL     1      -0.024  10.631  20.567  0.00  0.00    +0.000 A 
BRANCH  17  18
ATOM     18  C   UNL     1      -0.695  11.813  19.896  0.00  0.00    +0.000 C 
ATOM     19  C   UNL     1      -0.788  12.008  18.405  0.00  0.00    +0.000 C 
ATOM     20  C   UNL     1      -1.988  11.517  19.149  0.00  0.00    +0.000 C 
ENDBRANCH  17  18
ENDBRANCH   7  15
ENDBRANCH   1   9
BRANCH   5  21
ATOM     21  C   UNL     1       5.241   5.312  15.906  0.00  0.00    +0.000 C 
ATOM     22  C   UNL     1       5.049   6.752  15.409  0.00  0.00    +0.000 C 
BRANCH  21  23
ATOM     23  C   UNL     1       6.729   4.968  16.161  0.00  0.00    +0.000 C 
ATOM     24  F   UNL     1       6.918   3.641  15.877  0.00  0.00    +0.000 F 
ATOM     25  F   UNL     1       7.485   5.617  15.224  0.00  0.00    +0.000 F 
BRANCH  23  26
ATOM     26  C   UNL     1       7.213   5.303  17.535  0.00  0.00    +0.000 A 
ATOM     27  N   UNL     1       7.344   4.464  18.549  0.00  0.00    +0.000 NA
ATOM     28  N   UNL     1       7.847   5.152  19.624  0.00  0.00    +0.000 NA
ATOM     29  C   UNL     1       7.993   6.401  19.259  0.00  0.00    +0.000 A 
ATOM     30  N   UNL     1       7.597   6.550  17.964  0.00  0.00    +0.000 N 
ATOM     31  C   UNL     1       7.585   7.790  17.234  0.00  0.00    +0.000 C 
ENDBRANCH  23  26
ENDBRANCH  21  23
ENDBRANCH   5  21
TORSDOF 6
ENDMDL
MODEL 2
REMARK VINA RESULT:      -8.9      3.656      9.426
REMARK  Name = 
REMARK  9 active torsions:
REMARK  status: ('A' for Active; 'I' for Inactive)
REMARK    1  A    between atoms: C_1  and  C_2
REMARK    2  A    between atoms: C_5  and  C_6
REMARK    3  A    between atoms: N_8  and  C_9
REMARK    4  A    between atoms: C_13  and  C_14
REMARK    5  A    between atoms: C_14  and  C_15
REMARK    6  A    between atoms: C_14  and  C_16
REMARK    7  A    between atoms: C_16  and  C_19
REMARK    8  A    between atoms: N_23  and  C_24
REMARK    9  A    between atoms: C_27  and  C_28
REMARK                            x       y       z     vdW  Elec       q    Type
REMARK                         _______ _______ _______ _____ _____    ______ ____
ROOT
ATOM      1  C   UNL     1       1.488   8.499  19.856  0.00  0.00    +0.000 A 
ATOM      2  C   UNL     1       1.189   8.209  21.189  0.00  0.00    +0.000 A 
ATOM      3  C   UNL     1       0.334   9.026  21.924  0.00  0.00    +0.000 A 
ATOM      4  C   UNL     1      -0.232  10.152  21.332  0.00  0.00    +0.000 A 
ATOM      5  C   UNL     1       0.065  10.488  20.002  0.00  0.00    +0.000 A 
ATOM      6  C   UNL     1       0.940   9.652  19.277  0.00  0.00    +0.000 A 
ENDROOT
BRANCH   1   9
ATOM      7  C   UNL     1       2.608   6.343  19.318  0.00  0.00    +0.000 C 
ATOM      8  O   UNL     1       2.185   5.674  20.260  0.00  0.00    +0.000 OA
ATOM      9  N   UNL     1       2.316   7.672  19.066  0.00  0.00    +0.000 N 
ATOM     10  H   UNL     1       2.666   8.030  18.179  0.00  0.00    +0.000 HD
BRANCH   7  15
ATOM     11  C   UNL     1       6.083   3.788  15.552  0.00  0.00    +0.000 C 
ATOM     12  C   UNL     1       5.168   4.486  16.518  0.00  0.00    +0.000 A 
ATOM     13  C   UNL     1       3.910   3.923  16.775  0.00  0.00    +0.000 A 
ATOM     14  C   UNL     1       3.057   4.524  17.687  0.00  0.00    +0.000 A 
ATOM     15  C   UNL     1       3.488   5.677  18.318  0.00  0.00    +0.000 A 
ATOM     16  N   UNL     1       4.688   6.261  18.084  0.00  0.00    +0.000 NA
ATOM     17  C   UNL     1       5.526   5.677  17.182  0.00  0.00    +0.000 A 
BRANCH  17  18
ATOM     18  C   UNL     1       6.855   6.383  17.008  0.00  0.00    +0.000 C 
ATOM     19  C   UNL     1       7.186   7.734  17.589  0.00  0.00    +0.000 C 
ATOM     20  C   UNL     1       7.719   6.506  18.255  0.00  0.00    +0.000 C 
ENDBRANCH  17  18
ENDBRANCH   7  15
ENDBRANCH   1   9
BRANCH   5  21
ATOM     21  C   UNL     1      -0.595  11.725  19.393  0.00  0.00    +0.000 C 
ATOM     22  C   UNL     1       0.389  12.639  18.649  0.00  0.00    +0.000 C 
BRANCH  21  23
ATOM     23  C   UNL     1      -1.855  11.403  18.554  0.00  0.00    +0.000 C 
ATOM     24  F   UNL     1      -1.646  11.851  17.276  0.00  0.00    +0.000 F 
ATOM     25  F   UNL     1      -1.943  10.045  18.417  0.00  0.00    +0.000 F 
BRANCH  23  26
ATOM     26  C   UNL     1      -3.128  11.947  19.118  0.00  0.00    +0.000 A 
ATOM     27  N   UNL     1      -3.268  12.593  20.264  0.00  0.00    +0.000 NA
ATOM     28  N   UNL     1      -4.583  12.954  20.404  0.00  0.00    +0.000 NA
ATOM     29  C   UNL     1      -5.230  12.504  19.358  0.00  0.00    +0.000 A 
ATOM     30  N   UNL     1      -4.366  11.855  18.529  0.00  0.00    +0.000 N 
ATOM     31  C   UNL     1      -4.724  11.202  17.298  0.00  0.00    +0.000 C 
ENDBRANCH  23  26
ENDBRANCH  21  23
ENDBRANCH   5  21
TORSDOF 6
ENDMDL
MODEL 3
REMARK VINA RESULT:      -8.6      2.634      4.169
REMARK  Name = 
REMARK  9 active torsions:
REMARK  status: ('A' for Active; 'I' for Inactive)
REMARK    1  A    between atoms: C_1  and  C_2
REMARK    2  A    between atoms: C_5  and  C_6
REMARK    3  A    between atoms: N_8  and  C_9
REMARK    4  A    between atoms: C_13  and  C_14
REMARK    5  A    between atoms: C_14  and  C_15
REMARK    6  A    between atoms: C_14  and  C_16
REMARK    7  A    between atoms: C_16  and  C_19
REMARK    8  A    between atoms: N_23  and  C_24
REMARK    9  A    between atoms: C_27  and  C_28
REMARK                            x       y       z     vdW  Elec       q    Type
REMARK                         _______ _______ _______ _____ _____    ______ ____
ROOT
ATOM      1  C   UNL     1       2.927   7.240  17.934  0.00  0.00    +0.000 A 
ATOM      2  C   UNL     1       4.195   7.534  17.430  0.00  0.00    +0.000 A 
ATOM      3  C   UNL     1       5.051   6.518  17.012  0.00  0.00    +0.000 A 
ATOM      4  C   UNL     1       4.647   5.189  17.098  0.00  0.00    +0.000 A 
ATOM      5  C   UNL     1       3.389   4.854  17.622  0.00  0.00    +0.000 A 
ATOM      6  C   UNL     1       2.540   5.898  18.047  0.00  0.00    +0.000 A 
ENDROOT
BRANCH   1   9
ATOM      7  C   UNL     1       1.591   8.489  19.622  0.00  0.00    +0.000 C 
ATOM      8  O   UNL     1       1.950   7.881  20.630  0.00  0.00    +0.000 OA
ATOM      9  N   UNL     1       2.015   8.244  18.328  0.00  0.00    +0.000 N 
ATOM     10  H   UNL     1       1.698   8.919  17.635  0.00  0.00    +0.000 HD
BRANCH   7  15
ATOM     11  C   UNL     1      -2.144  12.789  20.210  0.00  0.00    +0.000 C 
ATOM     12  C   UNL     1      -1.148  11.679  20.029  0.00  0.00    +0.000 A 
ATOM     13  C   UNL     1      -0.256  11.403  21.076  0.00  0.00    +0.000 A 
ATOM     14  C   UNL     1       0.652  10.363  20.954  0.00  0.00    +0.000 A 
ATOM     15  C   UNL     1       0.644   9.627  19.784  0.00  0.00    +0.000 A 
ATOM     16  N   UNL     1      -0.190   9.872  18.745  0.00  0.00    +0.000 NA
ATOM     17  C   UNL     1      -1.079  10.899  18.857  0.00  0.00    +0.000 A 
BRANCH  17  18
ATOM     18  C   UNL     1      -1.988  11.079  17.659  0.00  0.00    +0.000 C 
ATOM     19  C   UNL     1      -2.257  10.017  16.624  0.00  0.00    +0.000 C 
ATOM     20  C   UNL     1      -3.286  10.286  17.675  0.00  0.00    +0.000 C 
ENDBRANCH  17  18
ENDBRANCH   7  15
ENDBRANCH   1   9
BRANCH   5  21
ATOM     21  C   UNL     1       2.986   3.381  17.680  0.00  0.00    +0.000 C 
ATOM     22  C   UNL     1       3.131   2.654  16.335  0.00  0.00    +0.000 C 
BRANCH  21  23
ATOM     23  C   UNL     1       3.644   2.606  18.846  0.00  0.00    +0.000 C 
ATOM     24  F   UNL     1       3.866   1.318  18.435  0.00  0.00    +0.000 F 
ATOM     25  F   UNL     1       4.901   3.111  19.040  0.00  0.00    +0.000 F 
BRANCH  23  26
ATOM     26  C   UNL     1       2.872   2.642  20.126  0.00  0.00    +0.000 A 
ATOM     27  N   UNL     1       3.377   2.639  21.348  0.00  0.00    +0.000 NA
ATOM     28  N   UNL     1       2.345   2.713  22.248  0.00  0.00    +0.000 NA
ATOM     29  C   UNL     1       1.227   2.735  21.564  0.00  0.00    +0.000 A 
ATOM     30  N   UNL     1       1.504   2.678  20.232  0.00  0.00    +0.000 N 
ATOM     31  C   UNL     1       0.524   2.649  19.178  0.00  0.00    +0.000 C 
ENDBRANCH  23  26
ENDBRANCH  21  23
ENDBRANCH   5  21
TORSDOF 6
ENDMDL
MODEL 4
REMARK VINA RESULT:      -8.6      2.519      3.579
REMARK  Name = 
REMARK  9 active torsions:
REMARK  status: ('A' for Active; 'I' for Inactive)
REMARK    1  A    between atoms: C_1  and  C_2
REMARK    2  A    between atoms: C_5  and  C_6
REMARK    3  A    between atoms: N_8  and  C_9
REMARK    4  A    between atoms: C_13  and  C_14
REMARK    5  A    between atoms: C_14  and  C_15
REMARK    6  A    between atoms: C_14  and  C_16
REMARK    7  A    between atoms: C_16  and  C_19
REMARK    8  A    between atoms: N_23  and  C_24
REMARK    9  A    between atoms: C_27  and  C_28
REMARK                            x       y       z     vdW  Elec       q    Type
REMARK                         _______ _______ _______ _____ _____    ______ ____
ROOT
ATOM      1  C   UNL     1       2.859   6.621  18.320  0.00  0.00    +0.000 A 
ATOM      2  C   UNL     1       2.381   5.517  19.028  0.00  0.00    +0.000 A 
ATOM      3  C   UNL     1       3.070   4.307  19.016  0.00  0.00    +0.000 A 
ATOM      4  C   UNL     1       4.249   4.185  18.287  0.00  0.00    +0.000 A 
ATOM      5  C   UNL     1       4.747   5.267  17.543  0.00  0.00    +0.000 A 
ATOM      6  C   UNL     1       4.030   6.482  17.563  0.00  0.00    +0.000 A 
ENDROOT
BRANCH   1   9
ATOM      7  C   UNL     1       1.678   8.491  19.461  0.00  0.00    +0.000 C 
ATOM      8  O   UNL     1       1.693   8.047  20.609  0.00  0.00    +0.000 OA
ATOM      9  N   UNL     1       2.212   7.877  18.342  0.00  0.00    +0.000 N 
ATOM     10  H   UNL     1       2.206   8.441  17.496  0.00  0.00    +0.000 HD
BRANCH   7  15
ATOM     11  C   UNL     1      -0.605  13.647  18.467  0.00  0.00    +0.000 C 
ATOM     12  C   UNL     1       0.012  12.308  18.755  0.00  0.00    +0.000 A 
ATOM     13  C   UNL     1      -0.826  11.258  19.158  0.00  0.00    +0.000 A 
ATOM     14  C   UNL     1      -0.293  10.001  19.398  0.00  0.00    +0.000 A 
ATOM     15  C   UNL     1       1.069   9.830  19.230  0.00  0.00    +0.000 A 
ATOM     16  N   UNL     1       1.913  10.822  18.859  0.00  0.00    +0.000 NA
ATOM     17  C   UNL     1       1.394  12.062  18.629  0.00  0.00    +0.000 A 
BRANCH  17  18
ATOM     18  C   UNL     1       2.408  13.098  18.191  0.00  0.00    +0.000 C 
ATOM     19  C   UNL     1       2.252  14.584  18.394  0.00  0.00    +0.000 C 
ATOM     20  C   UNL     1       3.158  13.817  19.303  0.00  0.00    +0.000 C 
ENDBRANCH  17  18
ENDBRANCH   7  15
ENDBRANCH   1   9
BRANCH   5  21
ATOM     21  C   UNL     1       6.055   5.088  16.773  0.00  0.00    +0.000 C 
ATOM     22  C   UNL     1       7.210   4.566  17.641  0.00  0.00    +0.000 C 
BRANCH  21  23
ATOM     23  C   UNL     1       5.894   4.286  15.459  0.00  0.00    +0.000 C 
ATOM     24  F   UNL     1       6.076   2.958  15.741  0.00  0.00    +0.000 F 
ATOM     25  F   UNL     1       4.585   4.364  15.068  0.00  0.00    +0.000 F 
BRANCH  23  26
ATOM     26  C   UNL     1       6.790   4.733  14.349  0.00  0.00    +0.000 A 
ATOM     27  N   UNL     1       7.745   5.645  14.428  0.00  0.00    +0.000 NA
ATOM     28  N   UNL     1       8.357   5.744  13.205  0.00  0.00    +0.000 NA
ATOM     29  C   UNL     1       7.753   4.912  12.393  0.00  0.00    +0.000 A 
ATOM     30  N   UNL     1       6.756   4.266  13.058  0.00  0.00    +0.000 N 
ATOM     31  C   UNL     1       5.857   3.303  12.479  0.00  0.00    +0.000 C 
ENDBRANCH  23  26
ENDBRANCH  21  23
ENDBRANCH   5  21
TORSDOF 6
ENDMDL
MODEL 5
REMARK VINA RESULT:      -8.5      2.521      3.313
REMARK  Name = 
REMARK  9 active torsions:
REMARK  status: ('A' for Active; 'I' for Inactive)
REMARK    1  A    between atoms: C_1  and  C_2
REMARK    2  A    between atoms: C_5  and  C_6
REMARK    3  A    between atoms: N_8  and  C_9
REMARK    4  A    between atoms: C_13  and  C_14
REMARK    5  A    between atoms: C_14  and  C_15
REMARK    6  A    between atoms: C_14  and  C_16
REMARK    7  A    between atoms: C_16  and  C_19
REMARK    8  A    between atoms: N_23  and  C_24
REMARK    9  A    between atoms: C_27  and  C_28
REMARK                            x       y       z     vdW  Elec       q    Type
REMARK                         _______ _______ _______ _____ _____    ______ ____
ROOT
ATOM      1  C   UNL     1       2.726   6.490  18.492  0.00  0.00    +0.000 A 
ATOM      2  C   UNL     1       1.930   5.343  18.541  0.00  0.00    +0.000 A 
ATOM      3  C   UNL     1       2.381   4.137  18.013  0.00  0.00    +0.000 A 
ATOM      4  C   UNL     1       3.639   4.063  17.422  0.00  0.00    +0.000 A 
ATOM      5  C   UNL     1       4.457   5.201  17.333  0.00  0.00    +0.000 A 
ATOM      6  C   UNL     1       3.978   6.415  17.867  0.00  0.00    +0.000 A 
ENDROOT
BRANCH   1   9
ATOM      7  C   UNL     1       1.753   8.776  18.365  0.00  0.00    +0.000 C 
ATOM      8  O   UNL     1       1.503   8.805  17.160  0.00  0.00    +0.000 OA
ATOM      9  N   UNL     1       2.321   7.720  19.055  0.00  0.00    +0.000 N 
ATOM     10  H   UNL     1       2.351   7.831  20.066  0.00  0.00    +0.000 HD
BRANCH   7  15
ATOM     11  C   UNL     1       0.286  13.378  21.441  0.00  0.00    +0.000 C 
ATOM     12  C   UNL     1       0.706  12.179  20.638  0.00  0.00    +0.000 A 
ATOM     13  C   UNL     1       0.431  10.902  21.149  0.00  0.00    +0.000 A 
ATOM     14  C   UNL     1       0.773   9.777  20.417  0.00  0.00    +0.000 A 
ATOM     15  C   UNL     1       1.385   9.960  19.190  0.00  0.00    +0.000 A 
ATOM     16  N   UNL     1       1.683  11.175  18.671  0.00  0.00    +0.000 NA
ATOM     17  C   UNL     1       1.354  12.285  19.392  0.00  0.00    +0.000 A 
BRANCH  17  18
ATOM     18  C   UNL     1       1.698  13.598  18.719  0.00  0.00    +0.000 C 
ATOM     19  C   UNL     1       2.612  14.644  19.304  0.00  0.00    +0.000 C 
ATOM     20  C   UNL     1       3.131  13.746  18.227  0.00  0.00    +0.000 C 
ENDBRANCH  17  18
ENDBRANCH   7  15
ENDBRANCH   1   9
BRANCH   5  21
ATOM     21  C   UNL     1       5.837   5.064  16.689  0.00  0.00    +0.000 C 
ATOM     22  C   UNL     1       6.922   4.588  17.666  0.00  0.00    +0.000 C 
BRANCH  21  23
ATOM     23  C   UNL     1       5.827   4.250  15.373  0.00  0.00    +0.000 C 
ATOM     24  F   UNL     1       6.047   2.933  15.680  0.00  0.00    +0.000 F 
ATOM     25  F   UNL     1       4.554   4.264  14.871  0.00  0.00    +0.000 F 
BRANCH  23  26
ATOM     26  C   UNL     1       6.793   4.735  14.340  0.00  0.00    +0.000 A 
ATOM     27  N   UNL     1       7.759   5.620  14.521  0.00  0.00    +0.000 NA
ATOM     28  N   UNL     1       8.441   5.770  13.341  0.00  0.00    +0.000 NA
ATOM     29  C   UNL     1       7.869   4.994  12.454  0.00  0.00    +0.000 A 
ATOM     30  N   UNL     1       6.824   4.335  13.026  0.00  0.00    +0.000 N 
ATOM     31  C   UNL     1       5.942   3.423  12.348  0.00  0.00    +0.000 C 
ENDBRANCH  23  26
ENDBRANCH  21  23
ENDBRANCH   5  21
TORSDOF 6
ENDMDL
MODEL 6
REMARK VINA RESULT:      -8.5      3.655      9.472
REMARK  Name = 
REMARK  9 active torsions:
REMARK  status: ('A' for Active; 'I' for Inactive)
REMARK    1  A    between atoms: C_1  and  C_2
REMARK    2  A    between atoms: C_5  and  C_6
REMARK    3  A    between atoms: N_8  and  C_9
REMARK    4  A    between atoms: C_13  and  C_14
REMARK    5  A    between atoms: C_14  and  C_15
REMARK    6  A    between atoms: C_14  and  C_16
REMARK    7  A    between atoms: C_16  and  C_19
REMARK    8  A    between atoms: N_23  and  C_24
REMARK    9  A    between atoms: C_27  and  C_28
REMARK                            x       y       z     vdW  Elec       q    Type
REMARK                         _______ _______ _______ _____ _____    ______ ____
ROOT
ATOM      1  C   UNL     1       1.302   8.691  20.179  0.00  0.00    +0.000 A 
ATOM      2  C   UNL     1       1.002   8.510  21.530  0.00  0.00    +0.000 A 
ATOM      3  C   UNL     1       0.158   9.393  22.199  0.00  0.00    +0.000 A 
ATOM      4  C   UNL     1      -0.393  10.477  21.521  0.00  0.00    +0.000 A 
ATOM      5  C   UNL     1      -0.094  10.704  20.169  0.00  0.00    +0.000 A 
ATOM      6  C   UNL     1       0.769   9.802  19.511  0.00  0.00    +0.000 A 
ENDROOT
BRANCH   1   9
ATOM      7  C   UNL     1       2.548   7.961  18.152  0.00  0.00    +0.000 C 
ATOM      8  O   UNL     1       2.296   8.921  17.423  0.00  0.00    +0.000 OA
ATOM      9  N   UNL     1       2.119   7.793  19.456  0.00  0.00    +0.000 N 
ATOM     10  H   UNL     1       2.517   6.992  19.941  0.00  0.00    +0.000 HD
BRANCH   7  15
ATOM     11  C   UNL     1       5.828   3.749  16.083  0.00  0.00    +0.000 C 
ATOM     12  C   UNL     1       4.982   4.849  16.658  0.00  0.00    +0.000 A 
ATOM     13  C   UNL     1       5.191   6.160  16.206  0.00  0.00    +0.000 A 
ATOM     14  C   UNL     1       4.404   7.192  16.691  0.00  0.00    +0.000 A 
ATOM     15  C   UNL     1       3.427   6.883  17.620  0.00  0.00    +0.000 A 
ATOM     16  N   UNL     1       3.205   5.634  18.093  0.00  0.00    +0.000 NA
ATOM     17  C   UNL     1       3.983   4.617  17.624  0.00  0.00    +0.000 A 
BRANCH  17  18
ATOM     18  C   UNL     1       3.644   3.253  18.188  0.00  0.00    +0.000 C 
ATOM     19  C   UNL     1       2.360   2.921  18.906  0.00  0.00    +0.000 C 
ATOM     20  C   UNL     1       2.529   2.492  17.484  0.00  0.00    +0.000 C 
ENDBRANCH  17  18
ENDBRANCH   7  15
ENDBRANCH   1   9
BRANCH   5  21
ATOM     21  C   UNL     1      -0.738  11.898  19.465  0.00  0.00    +0.000 C 
ATOM     22  C   UNL     1       0.264  12.761  18.685  0.00  0.00    +0.000 C 
BRANCH  21  23
ATOM     23  C   UNL     1      -1.978  11.521  18.619  0.00  0.00    +0.000 C 
ATOM     24  F   UNL     1      -1.770  11.952  17.335  0.00  0.00    +0.000 F 
ATOM     25  F   UNL     1      -2.022  10.158  18.507  0.00  0.00    +0.000 F 
BRANCH  23  26
ATOM     26  C   UNL     1      -3.274  12.035  19.160  0.00  0.00    +0.000 A 
ATOM     27  N   UNL     1      -3.447  12.688  20.297  0.00  0.00    +0.000 NA
ATOM     28  N   UNL     1      -4.774  13.013  20.417  0.00  0.00    +0.000 NA
ATOM     29  C   UNL     1      -5.393  12.535  19.366  0.00  0.00    +0.000 A 
ATOM     30  N   UNL     1      -4.500  11.902  18.556  0.00  0.00    +0.000 N 
ATOM     31  C   UNL     1      -4.824  11.226  17.328  0.00  0.00    +0.000 C 
ENDBRANCH  23  26
ENDBRANCH  21  23
ENDBRANCH   5  21
TORSDOF 6
ENDMDL
MODEL 7
REMARK VINA RESULT:      -8.5      2.360      3.110
REMARK  Name = 
REMARK  9 active torsions:
REMARK  status: ('A' for Active; 'I' for Inactive)
REMARK    1  A    between atoms: C_1  and  C_2
REMARK    2  A    between atoms: C_5  and  C_6
REMARK    3  A    between atoms: N_8  and  C_9
REMARK    4  A    between atoms: C_13  and  C_14
REMARK    5  A    between atoms: C_14  and  C_15
REMARK    6  A    between atoms: C_14  and  C_16
REMARK    7  A    between atoms: C_16  and  C_19
REMARK    8  A    between atoms: N_23  and  C_24
REMARK    9  A    between atoms: C_27  and  C_28
REMARK                            x       y       z     vdW  Elec       q    Type
REMARK                         _______ _______ _______ _____ _____    ______ ____
ROOT
ATOM      1  C   UNL     1       2.554   6.078  18.313  0.00  0.00    +0.000 A 
ATOM      2  C   UNL     1       1.850   4.872  18.328  0.00  0.00    +0.000 A 
ATOM      3  C   UNL     1       2.402   3.716  17.783  0.00  0.00    +0.000 A 
ATOM      4  C   UNL     1       3.670   3.754  17.209  0.00  0.00    +0.000 A 
ATOM      5  C   UNL     1       4.396   4.954  17.155  0.00  0.00    +0.000 A 
ATOM      6  C   UNL     1       3.816   6.116  17.706  0.00  0.00    +0.000 A 
ENDROOT
BRANCH   1   9
ATOM      7  C   UNL     1       1.622   7.402  20.204  0.00  0.00    +0.000 C 
ATOM      8  O   UNL     1       1.634   6.526  21.068  0.00  0.00    +0.000 OA
ATOM      9  N   UNL     1       2.045   7.261  18.894  0.00  0.00    +0.000 N 
ATOM     10  H   UNL     1       2.068   8.123  18.353  0.00  0.00    +0.000 HD
BRANCH   7  15
ATOM     11  C   UNL     1      -0.250  12.639  21.564  0.00  0.00    +0.000 C 
ATOM     12  C   UNL     1       0.275  11.278  21.206  0.00  0.00    +0.000 A 
ATOM     13  C   UNL     1       0.159  10.247  22.149  0.00  0.00    +0.000 A 
ATOM     14  C   UNL     1       0.602   8.971  21.837  0.00  0.00    +0.000 A 
ATOM     15  C   UNL     1       1.151   8.763  20.585  0.00  0.00    +0.000 A 
ATOM     16  N   UNL     1       1.296   9.735  19.653  0.00  0.00    +0.000 NA
ATOM     17  C   UNL     1       0.869  10.993  19.960  0.00  0.00    +0.000 A 
BRANCH  17  18
ATOM     18  C   UNL     1       1.044  12.006  18.848  0.00  0.00    +0.000 C 
ATOM     19  C   UNL     1       1.986  13.182  18.904  0.00  0.00    +0.000 C 
ATOM     20  C   UNL     1       2.376  11.974  18.113  0.00  0.00    +0.000 C 
ENDBRANCH  17  18
ENDBRANCH   7  15
ENDBRANCH   1   9
BRANCH   5  21
ATOM     21  C   UNL     1       5.791   4.940  16.529  0.00  0.00    +0.000 C 
ATOM     22  C   UNL     1       6.900   4.546  17.516  0.00  0.00    +0.000 C 
BRANCH  21  23
ATOM     23  C   UNL     1       5.867   4.143  15.205  0.00  0.00    +0.000 C 
ATOM     24  F   UNL     1       6.145   2.836  15.506  0.00  0.00    +0.000 F 
ATOM     25  F   UNL     1       4.612   4.096  14.661  0.00  0.00    +0.000 F 
BRANCH  23  26
ATOM     26  C   UNL     1       6.839   4.689  14.209  0.00  0.00    +0.000 A 
ATOM     27  N   UNL     1       7.762   5.609  14.436  0.00  0.00    +0.000 NA
ATOM     28  N   UNL     1       8.469   5.812  13.278  0.00  0.00    +0.000 NA
ATOM     29  C   UNL     1       7.953   5.034  12.359  0.00  0.00    +0.000 A 
ATOM     30  N   UNL     1       6.921   4.321  12.889  0.00  0.00    +0.000 N 
ATOM     31  C   UNL     1       6.096   3.388  12.167  0.00  0.00    +0.000 C 
ENDBRANCH  23  26
ENDBRANCH  21  23
ENDBRANCH   5  21
TORSDOF 6
ENDMDL
MODEL 8
REMARK VINA RESULT:      -8.5      3.690      9.406
REMARK  Name = 
REMARK  9 active torsions:
REMARK  status: ('A' for Active; 'I' for Inactive)
REMARK    1  A    between atoms: C_1  and  C_2
REMARK    2  A    between atoms: C_5  and  C_6
REMARK    3  A    between atoms: N_8  and  C_9
REMARK    4  A    between atoms: C_13  and  C_14
REMARK    5  A    between atoms: C_14  and  C_15
REMARK    6  A    between atoms: C_14  and  C_16
REMARK    7  A    between atoms: C_16  and  C_19
REMARK    8  A    between atoms: N_23  and  C_24
REMARK    9  A    between atoms: C_27  and  C_28
REMARK                            x       y       z     vdW  Elec       q    Type
REMARK                         _______ _______ _______ _____ _____    ______ ____
ROOT
ATOM      1  C   UNL     1       0.992   8.854  20.617  0.00  0.00    +0.000 A 
ATOM      2  C   UNL     1       1.017   8.919  22.011  0.00  0.00    +0.000 A 
ATOM      3  C   UNL     1       0.236   9.846  22.697  0.00  0.00    +0.000 A 
ATOM      4  C   UNL     1      -0.579  10.727  21.992  0.00  0.00    +0.000 A 
ATOM      5  C   UNL     1      -0.611  10.706  20.588  0.00  0.00    +0.000 A 
ATOM      6  C   UNL     1       0.194   9.765  19.912  0.00  0.00    +0.000 A 
ENDROOT
BRANCH   1   9
ATOM      7  C   UNL     1       2.302   8.097  18.640  0.00  0.00    +0.000 C 
ATOM      8  O   UNL     1       2.253   9.133  17.977  0.00  0.00    +0.000 OA
ATOM      9  N   UNL     1       1.737   7.900  19.888  0.00  0.00    +0.000 N 
ATOM     10  H   UNL     1       1.974   7.017  20.334  0.00  0.00    +0.000 HD
BRANCH   7  15
ATOM     11  C   UNL     1       5.331   3.684  16.606  0.00  0.00    +0.000 C 
ATOM     12  C   UNL     1       4.538   4.858  17.108  0.00  0.00    +0.000 A 
ATOM     13  C   UNL     1       3.201   4.654  17.475  0.00  0.00    +0.000 A 
ATOM     14  C   UNL     1       2.453   5.709  17.975  0.00  0.00    +0.000 A 
ATOM     15  C   UNL     1       3.066   6.943  18.091  0.00  0.00    +0.000 A 
ATOM     16  N   UNL     1       4.349   7.184  17.731  0.00  0.00    +0.000 NA
ATOM     17  C   UNL     1       5.086   6.150  17.232  0.00  0.00    +0.000 A 
BRANCH  17  18
ATOM     18  C   UNL     1       6.517   6.507  16.885  0.00  0.00    +0.000 C 
ATOM     19  C   UNL     1       7.275   7.667  17.478  0.00  0.00    +0.000 C 
ATOM     20  C   UNL     1       7.549   6.286  17.981  0.00  0.00    +0.000 C 
ENDBRANCH  17  18
ENDBRANCH   7  15
ENDBRANCH   1   9
BRANCH   5  21
ATOM     21  C   UNL     1      -1.535  11.682  19.861  0.00  0.00    +0.000 C 
ATOM     22  C   UNL     1      -0.935  13.086  19.697  0.00  0.00    +0.000 C 
BRANCH  21  23
ATOM     23  C   UNL     1      -2.104  11.123  18.534  0.00  0.00    +0.000 C 
ATOM     24  F   UNL     1      -1.245  11.461  17.522  0.00  0.00    +0.000 F 
ATOM     25  F   UNL     1      -2.036   9.757  18.582  0.00  0.00    +0.000 F 
BRANCH  23  26
ATOM     26  C   UNL     1      -3.501  11.559  18.229  0.00  0.00    +0.000 A 
ATOM     27  N   UNL     1      -4.362  12.090  19.080  0.00  0.00    +0.000 NA
ATOM     28  N   UNL     1      -5.520  12.381  18.405  0.00  0.00    +0.000 NA
ATOM     29  C   UNL     1      -5.358  12.003  17.162  0.00  0.00    +0.000 A 
ATOM     30  N   UNL     1      -4.115  11.470  17.003  0.00  0.00    +0.000 N 
ATOM     31  C   UNL     1      -3.595  10.918  15.780  0.00  0.00    +0.000 C 
ENDBRANCH  23  26
ENDBRANCH  21  23
ENDBRANCH   5  21
TORSDOF 6
ENDMDL
MODEL 9
REMARK VINA RESULT:      -8.5      1.421      1.823
REMARK  Name = 
REMARK  9 active torsions:
REMARK  status: ('A' for Active; 'I' for Inactive)
REMARK    1  A    between atoms: C_1  and  C_2
REMARK    2  A    between atoms: C_5  and  C_6
REMARK    3  A    between atoms: N_8  and  C_9
REMARK    4  A    between atoms: C_13  and  C_14
REMARK    5  A    between atoms: C_14  and  C_15
REMARK    6  A    between atoms: C_14  and  C_16
REMARK    7  A    between atoms: C_16  and  C_19
REMARK    8  A    between atoms: N_23  and  C_24
REMARK    9  A    between atoms: C_27  and  C_28
REMARK                            x       y       z     vdW  Elec       q    Type
REMARK                         _______ _______ _______ _____ _____    ______ ____
ROOT
ATOM      1  C   UNL     1       2.143   5.372  20.669  0.00  0.00    +0.000 A 
ATOM      2  C   UNL     1       2.049   4.187  21.402  0.00  0.00    +0.000 A 
ATOM      3  C   UNL     1       2.669   3.022  20.959  0.00  0.00    +0.000 A 
ATOM      4  C   UNL     1       3.390   3.027  19.768  0.00  0.00    +0.000 A 
ATOM      5  C   UNL     1       3.486   4.193  18.993  0.00  0.00    +0.000 A 
ATOM      6  C   UNL     1       2.843   5.361  19.455  0.00  0.00    +0.000 A 
ENDROOT
BRANCH   1   9
ATOM      7  C   UNL     1       1.556   7.776  20.405  0.00  0.00    +0.000 C 
ATOM      8  O   UNL     1       2.040   7.964  19.290  0.00  0.00    +0.000 OA
ATOM      9  N   UNL     1       1.564   6.584  21.107  0.00  0.00    +0.000 N 
ATOM     10  H   UNL     1       1.017   6.585  21.965  0.00  0.00    +0.000 HD
BRANCH   7  15
ATOM     11  C   UNL     1      -1.189  12.163  22.856  0.00  0.00    +0.000 C 
ATOM     12  C   UNL     1      -0.437  11.027  22.221  0.00  0.00    +0.000 A 
ATOM     13  C   UNL     1      -0.514   9.759  22.813  0.00  0.00    +0.000 A 
ATOM     14  C   UNL     1       0.139   8.684  22.232  0.00  0.00    +0.000 A 
ATOM     15  C   UNL     1       0.855   8.909  21.071  0.00  0.00    +0.000 A 
ATOM     16  N   UNL     1       0.967  10.121  20.477  0.00  0.00    +0.000 NA
ATOM     17  C   UNL     1       0.332  11.183  21.050  0.00  0.00    +0.000 A 
BRANCH  17  18
ATOM     18  C   UNL     1       0.489  12.490  20.301  0.00  0.00    +0.000 C 
ATOM     19  C   UNL     1       0.939  12.603  18.867  0.00  0.00    +0.000 C 
ATOM     20  C   UNL     1      -0.514  12.752  19.187  0.00  0.00    +0.000 C 
ENDBRANCH  17  18
ENDBRANCH   7  15
ENDBRANCH   1   9
BRANCH   5  21
ATOM     21  C   UNL     1       4.303   4.151  17.702  0.00  0.00    +0.000 C 
ATOM     22  C   UNL     1       3.473   3.778  16.465  0.00  0.00    +0.000 C 
BRANCH  21  23
ATOM     23  C   UNL     1       5.166   5.416  17.476  0.00  0.00    +0.000 C 
ATOM     24  F   UNL     1       5.590   5.420  16.173  0.00  0.00    +0.000 F 
ATOM     25  F   UNL     1       4.351   6.512  17.561  0.00  0.00    +0.000 F 
BRANCH  23  26
ATOM     26  C   UNL     1       6.316   5.556  18.421  0.00  0.00    +0.000 A 
ATOM     27  N   UNL     1       6.535   4.831  19.506  0.00  0.00    +0.000 NA
ATOM     28  N   UNL     1       7.708   5.248  20.080  0.00  0.00    +0.000 NA
ATOM     29  C   UNL     1       8.175   6.233  19.354  0.00  0.00    +0.000 A 
ATOM     30  N   UNL     1       7.332   6.473  18.311  0.00  0.00    +0.000 N 
ATOM     31  C   UNL     1       7.503   7.505  17.323  0.00  0.00    +0.000 C 
ENDBRANCH  23  26
ENDBRANCH  21  23
ENDBRANCH   5  21
TORSDOF 6
ENDMDL
