MODEL 1
REMARK VINA RESULT:      -8.5      0.000      0.000
REMARK  Name = 
REMARK  7 active torsions:
REMARK  status: ('A' for Active; 'I' for Inactive)
REMARK    1  A    between atoms: C_1  and  C_2
REMARK    2  A    between atoms: C_8  and  C_9
REMARK    3  A    between atoms: C_13  and  C_14
REMARK    4  A    between atoms: C_14  and  C_15
REMARK    5  A    between atoms: C_14  and  C_16
REMARK    6  A    between atoms: C_16  and  C_17
REMARK    7  A    between atoms: N_21  and  C_22
REMARK                            x       y       z     vdW  Elec       q    Type
REMARK                         _______ _______ _______ _____ _____    ______ ____
ROOT
ATOM      1  C   UNL     1       4.574   5.186  16.664  0.00  0.00    +0.000 A 
ATOM      2  C   UNL     1       3.844   4.014  16.892  0.00  0.00    +0.000 A 
ATOM      3  C   UNL     1       2.740   4.016  17.749  0.00  0.00    +0.000 A 
ATOM      4  C   UNL     1       2.339   5.194  18.381  0.00  0.00    +0.000 A 
ATOM      5  C   UNL     1       3.032   6.391  18.163  0.00  0.00    +0.000 A 
ATOM      6  C   UNL     1       4.152   6.366  17.312  0.00  0.00    +0.000 A 
ENDROOT
BRANCH   1  14
ATOM      7  C   UNL     1       4.628   2.865  11.529  0.00  0.00    +0.000 C 
ATOM      8  C   UNL     1       5.555   3.638  12.425  0.00  0.00    +0.000 A 
ATOM      9  C   UNL     1       6.845   3.942  11.989  0.00  0.00    +0.000 A 
ATOM     10  C   UNL     1       7.712   4.645  12.822  0.00  0.00    +0.000 A 
ATOM     11  C   UNL     1       7.194   4.999  14.064  0.00  0.00    +0.000 A 
ATOM     12  N   UNL     1       7.719   5.674  15.120  0.00  0.00    +0.000 N 
ATOM     13  N   UNL     1       6.886   5.826  16.159  0.00  0.00    +0.000 NA
ATOM     14  C   UNL     1       5.745   5.216  15.769  0.00  0.00    +0.000 A 
ATOM     15  C   UNL     1       5.901   4.674  14.447  0.00  0.00    +0.000 A 
ATOM     16  N   UNL     1       5.057   3.984  13.634  0.00  0.00    +0.000 NA
ATOM     17  H   UNL     1       8.653   6.064  15.199  0.00  0.00    +0.000 HD
ENDBRANCH   1  14
BRANCH   5  18
ATOM     18  C   UNL     1       2.534   7.688  18.793  0.00  0.00    +0.000 C 
ATOM     19  C   UNL     1       1.897   7.390  20.160  0.00  0.00    +0.000 C 
BRANCH  18  20
ATOM     20  C   UNL     1       1.571   8.466  17.865  0.00  0.00    +0.000 C 
BRANCH  20  21
ATOM     21  C   UNL     1       1.611   9.937  18.133  0.00  0.00    +0.000 A 
ATOM     22  N   UNL     1       2.543  10.771  17.711  0.00  0.00    +0.000 NA
ATOM     23  N   UNL     1       2.268  12.020  18.215  0.00  0.00    +0.000 NA
ATOM     24  C   UNL     1       1.170  11.927  18.924  0.00  0.00    +0.000 A 
ATOM     25  N   UNL     1       0.710  10.647  18.886  0.00  0.00    +0.000 N 
ATOM     26  C   UNL     1      -0.489  10.173  19.523  0.00  0.00    +0.000 C 
ENDBRANCH  20  21
ENDBRANCH  18  20
ENDBRANCH   5  18
TORSDOF 4
ENDMDL
MODEL 2
REMARK VINA RESULT:      -8.4      2.431      7.902
REMARK  Name = 
REMARK  7 active torsions:
REMARK  status: ('A' for Active; 'I' for Inactive)
REMARK    1  A    between atoms: C_1  and  C_2
REMARK    2  A    between atoms: C_8  and  C_9
REMARK    3  A    between atoms: C_13  and  C_14
REMARK    4  A    between atoms: C_14  and  C_15
REMARK    5  A    between atoms: C_14  and  C_16
REMARK    6  A    between atoms: C_16  and  C_17
REMARK    7  A    between atoms: N_21  and  C_22
REMARK                            x       y       z     vdW  Elec       q    Type
REMARK                         _______ _______ _______ _____ _____    ______ ____
ROOT
ATOM      1  C   UNL     1       2.671   7.083  18.730  0.00  0.00    +0.000 A 
ATOM      2  C   UNL     1       2.525   6.249  19.844  0.00  0.00    +0.000 A 
ATOM      3  C   UNL     1       3.169   5.010  19.898  0.00  0.00    +0.000 A 
ATOM      4  C   UNL     1       3.981   4.590  18.843  0.00  0.00    +0.000 A 
ATOM      5  C   UNL     1       4.168   5.405  17.720  0.00  0.00    +0.000 A 
ATOM      6  C   UNL     1       3.497   6.640  17.675  0.00  0.00    +0.000 A 
ENDROOT
BRANCH   1  14
ATOM      7  C   UNL     1      -0.039   9.493  23.043  0.00  0.00    +0.000 C 
ATOM      8  C   UNL     1       0.290   9.799  21.609  0.00  0.00    +0.000 A 
ATOM      9  C   UNL     1      -0.139  10.998  21.040  0.00  0.00    +0.000 A 
ATOM     10  C   UNL     1       0.151  11.278  19.707  0.00  0.00    +0.000 A 
ATOM     11  C   UNL     1       0.876  10.299  19.034  0.00  0.00    +0.000 A 
ATOM     12  N   UNL     1       1.341  10.213  17.759  0.00  0.00    +0.000 N 
ATOM     13  N   UNL     1       2.019   9.091  17.484  0.00  0.00    +0.000 NA
ATOM     14  C   UNL     1       2.002   8.394  18.641  0.00  0.00    +0.000 A 
ATOM     15  C   UNL     1       1.283   9.124  19.648  0.00  0.00    +0.000 A 
ATOM     16  N   UNL     1       0.995   8.850  20.949  0.00  0.00    +0.000 NA
ATOM     17  H   UNL     1       1.229  10.895  17.016  0.00  0.00    +0.000 HD
ENDBRANCH   1  14
BRANCH   5  18
ATOM     18  C   UNL     1       5.123   4.972  16.613  0.00  0.00    +0.000 C 
ATOM     19  C   UNL     1       4.613   3.675  15.963  0.00  0.00    +0.000 C 
BRANCH  18  20
ATOM     20  C   UNL     1       6.582   4.833  17.109  0.00  0.00    +0.000 C 
BRANCH  20  21
ATOM     21  C   UNL     1       7.169   6.158  17.482  0.00  0.00    +0.000 A 
ATOM     22  N   UNL     1       7.173   7.238  16.724  0.00  0.00    +0.000 NA
ATOM     23  N   UNL     1       7.861   8.229  17.383  0.00  0.00    +0.000 NA
ATOM     24  C   UNL     1       8.253   7.739  18.534  0.00  0.00    +0.000 A 
ATOM     25  N   UNL     1       7.826   6.451  18.650  0.00  0.00    +0.000 N 
ATOM     26  C   UNL     1       8.042   5.602  19.789  0.00  0.00    +0.000 C 
ENDBRANCH  20  21
ENDBRANCH  18  20
ENDBRANCH   5  18
TORSDOF 4
ENDMDL
MODEL 3
REMARK VINA RESULT:      -8.3      2.565      7.822
REMARK  Name = 
REMARK  7 active torsions:
REMARK  status: ('A' for Active; 'I' for Inactive)
REMARK    1  A    between atoms: C_1  and  C_2
REMARK    2  A    between atoms: C_8  and  C_9
REMARK    3  A    between atoms: C_13  and  C_14
REMARK    4  A    between atoms: C_14  and  C_15
REMARK    5  A    between atoms: C_14  and  C_16
REMARK    6  A    between atoms: C_16  and  C_17
REMARK    7  A    between atoms: N_21  and  C_22
REMARK                            x       y       z     vdW  Elec       q    Type
REMARK                         _______ _______ _______ _____ _____    ______ ____
ROOT
ATOM      1  C   UNL     1       2.019   6.997  19.205  0.00  0.00    +0.000 A 
ATOM      2  C   UNL     1       1.954   6.517  20.518  0.00  0.00    +0.000 A 
ATOM      3  C   UNL     1       2.188   5.167  20.797  0.00  0.00    +0.000 A 
ATOM      4  C   UNL     1       2.505   4.278  19.768  0.00  0.00    +0.000 A 
ATOM      5  C   UNL     1       2.599   4.725  18.444  0.00  0.00    +0.000 A 
ATOM      6  C   UNL     1       2.341   6.082  18.180  0.00  0.00    +0.000 A 
ENDROOT
BRANCH   1  14
ATOM      7  C   UNL     1      -0.692  10.559  22.629  0.00  0.00    +0.000 C 
ATOM      8  C   UNL     1      -0.018  10.583  21.285  0.00  0.00    +0.000 A 
ATOM      9  C   UNL     1       0.024  11.768  20.551  0.00  0.00    +0.000 A 
ATOM     10  C   UNL     1       0.633  11.790  19.299  0.00  0.00    +0.000 A 
ATOM     11  C   UNL     1       1.172  10.579  18.875  0.00  0.00    +0.000 A 
ATOM     12  N   UNL     1       1.832  10.213  17.744  0.00  0.00    +0.000 N 
ATOM     13  N   UNL     1       2.209   8.928  17.707  0.00  0.00    +0.000 NA
ATOM     14  C   UNL     1       1.774   8.413  18.878  0.00  0.00    +0.000 A 
ATOM     15  C   UNL     1       1.106   9.428  19.645  0.00  0.00    +0.000 A 
ATOM     16  N   UNL     1       0.507   9.408  20.866  0.00  0.00    +0.000 NA
ATOM     17  H   UNL     1       2.061  10.799  16.948  0.00  0.00    +0.000 HD
ENDBRANCH   1  14
BRANCH   5  18
ATOM     18  C   UNL     1       3.027   3.762  17.342  0.00  0.00    +0.000 C 
ATOM     19  C   UNL     1       2.374   2.389  17.568  0.00  0.00    +0.000 C 
BRANCH  18  20
ATOM     20  C   UNL     1       4.565   3.655  17.213  0.00  0.00    +0.000 C 
BRANCH  20  21
ATOM     21  C   UNL     1       5.196   4.990  16.973  0.00  0.00    +0.000 A 
ATOM     22  N   UNL     1       5.162   5.664  15.840  0.00  0.00    +0.000 NA
ATOM     23  N   UNL     1       5.909   6.808  15.992  0.00  0.00    +0.000 NA
ATOM     24  C   UNL     1       6.373   6.816  17.218  0.00  0.00    +0.000 A 
ATOM     25  N   UNL     1       5.938   5.707  17.877  0.00  0.00    +0.000 N 
ATOM     26  C   UNL     1       6.221   5.390  19.250  0.00  0.00    +0.000 C 
ENDBRANCH  20  21
ENDBRANCH  18  20
ENDBRANCH   5  18
TORSDOF 4
ENDMDL
MODEL 4
REMARK VINA RESULT:      -8.2      2.332      8.235
REMARK  Name = 
REMARK  7 active torsions:
REMARK  status: ('A' for Active; 'I' for Inactive)
REMARK    1  A    between atoms: C_1  and  C_2
REMARK    2  A    between atoms: C_8  and  C_9
REMARK    3  A    between atoms: C_13  and  C_14
REMARK    4  A    between atoms: C_14  and  C_15
REMARK    5  A    between atoms: C_14  and  C_16
REMARK    6  A    between atoms: C_16  and  C_17
REMARK    7  A    between atoms: N_21  and  C_22
REMARK                            x       y       z     vdW  Elec       q    Type
REMARK                         _______ _______ _______ _____ _____    ______ ____
ROOT
ATOM      1  C   UNL     1       1.950   7.375  19.258  0.00  0.00    +0.000 A 
ATOM      2  C   UNL     1       1.614   6.889  20.527  0.00  0.00    +0.000 A 
ATOM      3  C   UNL     1       1.834   5.549  20.858  0.00  0.00    +0.000 A 
ATOM      4  C   UNL     1       2.407   4.677  19.931  0.00  0.00    +0.000 A 
ATOM      5  C   UNL     1       2.776   5.131  18.659  0.00  0.00    +0.000 A 
ATOM      6  C   UNL     1       2.530   6.478  18.336  0.00  0.00    +0.000 A 
ENDROOT
BRANCH   1  14
ATOM      7  C   UNL     1      -0.724  11.103  22.532  0.00  0.00    +0.000 C 
ATOM      8  C   UNL     1      -0.043  11.066  21.191  0.00  0.00    +0.000 A 
ATOM      9  C   UNL     1       0.019  12.223  20.415  0.00  0.00    +0.000 A 
ATOM     10  C   UNL     1       0.635  12.189  19.166  0.00  0.00    +0.000 A 
ATOM     11  C   UNL     1       1.158  10.955  18.790  0.00  0.00    +0.000 A 
ATOM     12  N   UNL     1       1.817  10.537  17.677  0.00  0.00    +0.000 N 
ATOM     13  N   UNL     1       2.176   9.246  17.690  0.00  0.00    +0.000 NA
ATOM     14  C   UNL     1       1.728   8.782  18.877  0.00  0.00    +0.000 A 
ATOM     15  C   UNL     1       1.072   9.834  19.603  0.00  0.00    +0.000 A 
ATOM     16  N   UNL     1       0.466   9.869  20.820  0.00  0.00    +0.000 NA
ATOM     17  H   UNL     1       2.059  11.089  16.860  0.00  0.00    +0.000 HD
ENDBRANCH   1  14
BRANCH   5  18
ATOM     18  C   UNL     1       3.477   4.191  17.685  0.00  0.00    +0.000 C 
ATOM     19  C   UNL     1       2.453   3.227  17.064  0.00  0.00    +0.000 C 
BRANCH  18  20
ATOM     20  C   UNL     1       4.658   3.434  18.338  0.00  0.00    +0.000 C 
BRANCH  20  21
ATOM     21  C   UNL     1       5.845   4.323  18.535  0.00  0.00    +0.000 A 
ATOM     22  N   UNL     1       6.218   4.865  19.679  0.00  0.00    +0.000 NA
ATOM     23  N   UNL     1       7.310   5.667  19.444  0.00  0.00    +0.000 NA
ATOM     24  C   UNL     1       7.589   5.590  18.166  0.00  0.00    +0.000 A 
ATOM     25  N   UNL     1       6.711   4.745  17.558  0.00  0.00    +0.000 N 
ATOM     26  C   UNL     1       6.725   4.390  16.166  0.00  0.00    +0.000 C 
ENDBRANCH  20  21
ENDBRANCH  18  20
ENDBRANCH   5  18
TORSDOF 4
ENDMDL
MODEL 5
REMARK VINA RESULT:      -8.2      4.145      9.731
REMARK  Name = 
REMARK  7 active torsions:
REMARK  status: ('A' for Active; 'I' for Inactive)
REMARK    1  A    between atoms: C_1  and  C_2
REMARK    2  A    between atoms: C_8  and  C_9
REMARK    3  A    between atoms: C_13  and  C_14
REMARK    4  A    between atoms: C_14  and  C_15
REMARK    5  A    between atoms: C_14  and  C_16
REMARK    6  A    between atoms: C_16  and  C_17
REMARK    7  A    between atoms: N_21  and  C_22
REMARK                            x       y       z     vdW  Elec       q    Type
REMARK                         _______ _______ _______ _____ _____    ______ ____
ROOT
ATOM      1  C   UNL     1       0.983   9.195  20.079  0.00  0.00    +0.000 A 
ATOM      2  C   UNL     1       0.994   9.945  18.898  0.00  0.00    +0.000 A 
ATOM      3  C   UNL     1       1.721   9.514  17.785  0.00  0.00    +0.000 A 
ATOM      4  C   UNL     1       2.439   8.317  17.831  0.00  0.00    +0.000 A 
ATOM      5  C   UNL     1       2.436   7.529  18.989  0.00  0.00    +0.000 A 
ATOM      6  C   UNL     1       1.714   7.988  20.105  0.00  0.00    +0.000 A 
ENDROOT
BRANCH   1  14
ATOM      7  C   UNL     1      -1.748  14.112  20.430  0.00  0.00    +0.000 C 
ATOM      8  C   UNL     1      -1.507  12.895  21.280  0.00  0.00    +0.000 A 
ATOM      9  C   UNL     1      -2.059  12.823  22.559  0.00  0.00    +0.000 A 
ATOM     10  C   UNL     1      -1.824  11.704  23.354  0.00  0.00    +0.000 A 
ATOM     11  C   UNL     1      -1.031  10.716  22.779  0.00  0.00    +0.000 A 
ATOM     12  N   UNL     1      -0.596   9.509  23.229  0.00  0.00    +0.000 N 
ATOM     13  N   UNL     1       0.159   8.825  22.358  0.00  0.00    +0.000 NA
ATOM     14  C   UNL     1       0.229   9.624  21.271  0.00  0.00    +0.000 A 
ATOM     15  C   UNL     1      -0.509  10.835  21.499  0.00  0.00    +0.000 A 
ATOM     16  N   UNL     1      -0.736  11.931  20.725  0.00  0.00    +0.000 NA
ATOM     17  H   UNL     1      -0.781   9.086  24.133  0.00  0.00    +0.000 HD
ENDBRANCH   1  14
BRANCH   5  18
ATOM     18  C   UNL     1       3.155   6.183  18.998  0.00  0.00    +0.000 C 
ATOM     19  C   UNL     1       4.233   6.162  17.903  0.00  0.00    +0.000 C 
BRANCH  18  20
ATOM     20  C   UNL     1       2.179   4.990  18.870  0.00  0.00    +0.000 C 
BRANCH  20  21
ATOM     21  C   UNL     1       2.298   4.049  20.028  0.00  0.00    +0.000 A 
ATOM     22  N   UNL     1       1.723   4.203  21.206  0.00  0.00    +0.000 NA
ATOM     23  N   UNL     1       2.123   3.172  22.023  0.00  0.00    +0.000 NA
ATOM     24  C   UNL     1       2.923   2.404  21.325  0.00  0.00    +0.000 A 
ATOM     25  N   UNL     1       3.048   2.901  20.064  0.00  0.00    +0.000 N 
ATOM     26  C   UNL     1       3.822   2.309  19.008  0.00  0.00    +0.000 C 
ENDBRANCH  20  21
ENDBRANCH  18  20
ENDBRANCH   5  18
TORSDOF 4
ENDMDL
MODEL 6
REMARK VINA RESULT:      -8.1      2.712      7.869
REMARK  Name = 
REMARK  7 active torsions:
REMARK  status: ('A' for Active; 'I' for Inactive)
REMARK    1  A    between atoms: C_1  and  C_2
REMARK    2  A    between atoms: C_8  and  C_9
REMARK    3  A    between atoms: C_13  and  C_14
REMARK    4  A    between atoms: C_14  and  C_15
REMARK    5  A    between atoms: C_14  and  C_16
REMARK    6  A    between atoms: C_16  and  C_17
REMARK    7  A    between atoms: N_21  and  C_22
REMARK                            x       y       z     vdW  Elec       q    Type
REMARK                         _______ _______ _______ _____ _____    ______ ____
ROOT
ATOM      1  C   UNL     1       2.029   6.882  19.155  0.00  0.00    +0.000 A 
ATOM      2  C   UNL     1       1.936   6.421  20.473  0.00  0.00    +0.000 A 
ATOM      3  C   UNL     1       2.132   5.069  20.772  0.00  0.00    +0.000 A 
ATOM      4  C   UNL     1       2.438   4.159  19.758  0.00  0.00    +0.000 A 
ATOM      5  C   UNL     1       2.560   4.587  18.430  0.00  0.00    +0.000 A 
ATOM      6  C   UNL     1       2.341   5.947  18.146  0.00  0.00    +0.000 A 
ENDROOT
BRANCH   1  14
ATOM      7  C   UNL     1      -0.577  10.571  22.527  0.00  0.00    +0.000 C 
ATOM      8  C   UNL     1       0.097  10.555  21.183  0.00  0.00    +0.000 A 
ATOM      9  C   UNL     1       0.173  11.728  20.432  0.00  0.00    +0.000 A 
ATOM     10  C   UNL     1       0.783  11.715  19.180  0.00  0.00    +0.000 A 
ATOM     11  C   UNL     1       1.286  10.482  18.774  0.00  0.00    +0.000 A 
ATOM     12  N   UNL     1       1.935  10.081  17.648  0.00  0.00    +0.000 N 
ATOM     13  N   UNL     1       2.275   8.785  17.630  0.00  0.00    +0.000 NA
ATOM     14  C   UNL     1       1.826   8.300  18.808  0.00  0.00    +0.000 A 
ATOM     15  C   UNL     1       1.188   9.345  19.561  0.00  0.00    +0.000 A 
ATOM     16  N   UNL     1       0.588   9.360  20.782  0.00  0.00    +0.000 NA
ATOM     17  H   UNL     1       2.181  10.648  16.844  0.00  0.00    +0.000 HD
ENDBRANCH   1  14
BRANCH   5  18
ATOM     18  C   UNL     1       2.976   3.599  17.345  0.00  0.00    +0.000 C 
ATOM     19  C   UNL     1       2.915   2.166  17.895  0.00  0.00    +0.000 C 
BRANCH  18  20
ATOM     20  C   UNL     1       4.364   3.928  16.746  0.00  0.00    +0.000 C 
BRANCH  20  21
ATOM     21  C   UNL     1       5.289   4.503  17.772  0.00  0.00    +0.000 A 
ATOM     22  N   UNL     1       5.719   3.882  18.855  0.00  0.00    +0.000 NA
ATOM     23  N   UNL     1       6.493   4.757  19.579  0.00  0.00    +0.000 NA
ATOM     24  C   UNL     1       6.530   5.890  18.920  0.00  0.00    +0.000 A 
ATOM     25  N   UNL     1       5.808   5.773  17.772  0.00  0.00    +0.000 N 
ATOM     26  C   UNL     1       5.647   6.802  16.782  0.00  0.00    +0.000 C 
ENDBRANCH  20  21
ENDBRANCH  18  20
ENDBRANCH   5  18
TORSDOF 4
ENDMDL
MODEL 7
REMARK VINA RESULT:      -8.0      2.508      8.079
REMARK  Name = 
REMARK  7 active torsions:
REMARK  status: ('A' for Active; 'I' for Inactive)
REMARK    1  A    between atoms: C_1  and  C_2
REMARK    2  A    between atoms: C_8  and  C_9
REMARK    3  A    between atoms: C_13  and  C_14
REMARK    4  A    between atoms: C_14  and  C_15
REMARK    5  A    between atoms: C_14  and  C_16
REMARK    6  A    between atoms: C_16  and  C_17
REMARK    7  A    between atoms: N_21  and  C_22
REMARK                            x       y       z     vdW  Elec       q    Type
REMARK                         _______ _______ _______ _____ _____    ______ ____
ROOT
ATOM      1  C   UNL     1       2.502   7.274  18.728  0.00  0.00    +0.000 A 
ATOM      2  C   UNL     1       2.367   6.435  19.840  0.00  0.00    +0.000 A 
ATOM      3  C   UNL     1       2.926   5.153  19.839  0.00  0.00    +0.000 A 
ATOM      4  C   UNL     1       3.642   4.696  18.732  0.00  0.00    +0.000 A 
ATOM      5  C   UNL     1       3.815   5.513  17.608  0.00  0.00    +0.000 A 
ATOM      6  C   UNL     1       3.230   6.792  17.619  0.00  0.00    +0.000 A 
ENDROOT
BRANCH   1  14
ATOM      7  C   UNL     1      -0.209   9.602  23.086  0.00  0.00    +0.000 C 
ATOM      8  C   UNL     1       0.193   9.968  21.684  0.00  0.00    +0.000 A 
ATOM      9  C   UNL     1      -0.138  11.224  21.174  0.00  0.00    +0.000 A 
ATOM     10  C   UNL     1       0.218  11.561  19.871  0.00  0.00    +0.000 A 
ATOM     11  C   UNL     1       0.904  10.577  19.165  0.00  0.00    +0.000 A 
ATOM     12  N   UNL     1       1.410  10.535  17.903  0.00  0.00    +0.000 N 
ATOM     13  N   UNL     1       2.025   9.389  17.584  0.00  0.00    +0.000 NA
ATOM     14  C   UNL     1       1.922   8.628  18.696  0.00  0.00    +0.000 A 
ATOM     15  C   UNL     1       1.213   9.345  19.720  0.00  0.00    +0.000 A 
ATOM     16  N   UNL     1       0.860   9.016  20.992  0.00  0.00    +0.000 NA
ATOM     17  H   UNL     1       1.368  11.264  17.199  0.00  0.00    +0.000 HD
ENDBRANCH   1  14
BRANCH   5  18
ATOM     18  C   UNL     1       4.670   5.034  16.439  0.00  0.00    +0.000 C 
ATOM     19  C   UNL     1       4.980   3.538  16.602  0.00  0.00    +0.000 C 
BRANCH  18  20
ATOM     20  C   UNL     1       5.956   5.874  16.262  0.00  0.00    +0.000 C 
BRANCH  20  21
ATOM     21  C   UNL     1       6.854   5.773  17.455  0.00  0.00    +0.000 A 
ATOM     22  N   UNL     1       7.085   4.677  18.153  0.00  0.00    +0.000 NA
ATOM     23  N   UNL     1       7.906   4.998  19.207  0.00  0.00    +0.000 NA
ATOM     24  C   UNL     1       8.170   6.280  19.125  0.00  0.00    +0.000 A 
ATOM     25  N   UNL     1       7.549   6.804  18.033  0.00  0.00    +0.000 N 
ATOM     26  C   UNL     1       7.634   8.174  17.605  0.00  0.00    +0.000 C 
ENDBRANCH  20  21
ENDBRANCH  18  20
ENDBRANCH   5  18
TORSDOF 4
ENDMDL
MODEL 8
REMARK VINA RESULT:      -7.9      1.751      8.204
REMARK  Name = 
REMARK  7 active torsions:
REMARK  status: ('A' for Active; 'I' for Inactive)
REMARK    1  A    between atoms: C_1  and  C_2
REMARK    2  A    between atoms: C_8  and  C_9
REMARK    3  A    between atoms: C_13  and  C_14
REMARK    4  A    between atoms: C_14  and  C_15
REMARK    5  A    between atoms: C_14  and  C_16
REMARK    6  A    between atoms: C_16  and  C_17
REMARK    7  A    between atoms: N_21  and  C_22
REMARK                            x       y       z     vdW  Elec       q    Type
REMARK                         _______ _______ _______ _____ _____    ______ ____
ROOT
ATOM      1  C   UNL     1       1.950   7.232  19.190  0.00  0.00    +0.000 A 
ATOM      2  C   UNL     1       1.751   6.753  20.490  0.00  0.00    +0.000 A 
ATOM      3  C   UNL     1       1.971   5.407  20.796  0.00  0.00    +0.000 A 
ATOM      4  C   UNL     1       2.407   4.520  19.810  0.00  0.00    +0.000 A 
ATOM      5  C   UNL     1       2.637   4.966  18.503  0.00  0.00    +0.000 A 
ATOM      6  C   UNL     1       2.392   6.319  18.208  0.00  0.00    +0.000 A 
ENDROOT
BRANCH   1  14
ATOM      7  C   UNL     1      -0.708  10.900  22.542  0.00  0.00    +0.000 C 
ATOM      8  C   UNL     1      -0.036  10.886  21.197  0.00  0.00    +0.000 A 
ATOM      9  C   UNL     1       0.021  12.056  20.440  0.00  0.00    +0.000 A 
ATOM     10  C   UNL     1       0.630  12.044  19.187  0.00  0.00    +0.000 A 
ATOM     11  C   UNL     1       1.152  10.817  18.787  0.00  0.00    +0.000 A 
ATOM     12  N   UNL     1       1.805  10.419  17.664  0.00  0.00    +0.000 N 
ATOM     13  N   UNL     1       2.165   9.129  17.652  0.00  0.00    +0.000 NA
ATOM     14  C   UNL     1       1.725   8.644  18.834  0.00  0.00    +0.000 A 
ATOM     15  C   UNL     1       1.071   9.683  19.581  0.00  0.00    +0.000 A 
ATOM     16  N   UNL     1       0.473   9.696  20.803  0.00  0.00    +0.000 NA
ATOM     17  H   UNL     1       2.042  10.985  16.855  0.00  0.00    +0.000 HD
ENDBRANCH   1  14
BRANCH   5  18
ATOM     18  C   UNL     1       3.193   4.006  17.455  0.00  0.00    +0.000 C 
ATOM     19  C   UNL     1       2.427   2.675  17.511  0.00  0.00    +0.000 C 
BRANCH  18  20
ATOM     20  C   UNL     1       4.719   3.799  17.593  0.00  0.00    +0.000 C 
BRANCH  20  21
ATOM     21  C   UNL     1       5.445   4.169  16.339  0.00  0.00    +0.000 A 
ATOM     22  N   UNL     1       5.811   3.332  15.386  0.00  0.00    +0.000 NA
ATOM     23  N   UNL     1       6.510   4.036  14.434  0.00  0.00    +0.000 NA
ATOM     24  C   UNL     1       6.547   5.289  14.818  0.00  0.00    +0.000 A 
ATOM     25  N   UNL     1       5.877   5.425  15.995  0.00  0.00    +0.000 N 
ATOM     26  C   UNL     1       5.682   6.660  16.704  0.00  0.00    +0.000 C 
ENDBRANCH  20  21
ENDBRANCH  18  20
ENDBRANCH   5  18
TORSDOF 4
ENDMDL
MODEL 9
REMARK VINA RESULT:      -7.9      3.911      9.753
REMARK  Name = 
REMARK  7 active torsions:
REMARK  status: ('A' for Active; 'I' for Inactive)
REMARK    1  A    between atoms: C_1  and  C_2
REMARK    2  A    between atoms: C_8  and  C_9
REMARK    3  A    between atoms: C_13  and  C_14
REMARK    4  A    between atoms: C_14  and  C_15
REMARK    5  A    between atoms: C_14  and  C_16
REMARK    6  A    between atoms: C_16  and  C_17
REMARK    7  A    between atoms: N_21  and  C_22
REMARK                            x       y       z     vdW  Elec       q    Type
REMARK                         _______ _______ _______ _____ _____    ______ ____
ROOT
ATOM      1  C   UNL     1       1.049   9.211  20.190  0.00  0.00    +0.000 A 
ATOM      2  C   UNL     1       1.068   9.971  19.016  0.00  0.00    +0.000 A 
ATOM      3  C   UNL     1       1.771   9.529  17.891  0.00  0.00    +0.000 A 
ATOM      4  C   UNL     1       2.453   8.311  17.918  0.00  0.00    +0.000 A 
ATOM      5  C   UNL     1       2.440   7.513  19.069  0.00  0.00    +0.000 A 
ATOM      6  C   UNL     1       1.744   7.983  20.197  0.00  0.00    +0.000 A 
ENDROOT
BRANCH   1  14
ATOM      7  C   UNL     1      -2.664  13.451  20.206  0.00  0.00    +0.000 C 
ATOM      8  C   UNL     1      -2.088  12.455  21.174  0.00  0.00    +0.000 A 
ATOM      9  C   UNL     1      -2.501  12.466  22.506  0.00  0.00    +0.000 A 
ATOM     10  C   UNL     1      -1.959  11.555  23.409  0.00  0.00    +0.000 A 
ATOM     11  C   UNL     1      -1.019  10.676  22.881  0.00  0.00    +0.000 A 
ATOM     12  N   UNL     1      -0.291   9.668  23.432  0.00  0.00    +0.000 N 
ATOM     13  N   UNL     1       0.521   9.031  22.577  0.00  0.00    +0.000 NA
ATOM     14  C   UNL     1       0.321   9.652  21.394  0.00  0.00    +0.000 A 
ATOM     15  C   UNL     1      -0.645  10.704  21.545  0.00  0.00    +0.000 A 
ATOM     16  N   UNL     1      -1.173  11.598  20.666  0.00  0.00    +0.000 NA
ATOM     17  H   UNL     1      -0.300   9.359  24.399  0.00  0.00    +0.000 HD
ENDBRANCH   1  14
BRANCH   5  18
ATOM     18  C   UNL     1       3.118   6.147  19.058  0.00  0.00    +0.000 C 
ATOM     19  C   UNL     1       3.742   5.887  17.678  0.00  0.00    +0.000 C 
BRANCH  18  20
ATOM     20  C   UNL     1       2.162   5.007  19.483  0.00  0.00    +0.000 C 
BRANCH  20  21
ATOM     21  C   UNL     1       2.407   3.756  18.699  0.00  0.00    +0.000 A 
ATOM     22  N   UNL     1       1.728   3.370  17.636  0.00  0.00    +0.000 NA
ATOM     23  N   UNL     1       2.204   2.142  17.239  0.00  0.00    +0.000 NA
ATOM     24  C   UNL     1       3.171   1.810  18.060  0.00  0.00    +0.000 A 
ATOM     25  N   UNL     1       3.348   2.798  18.979  0.00  0.00    +0.000 N 
ATOM     26  C   UNL     1       4.338   2.798  20.021  0.00  0.00    +0.000 C 
ENDBRANCH  20  21
ENDBRANCH  18  20
ENDBRANCH   5  18
TORSDOF 4
ENDMDL
