MODEL 1
REMARK VINA RESULT:     -10.7      0.000      0.000
REMARK  Name = 
REMARK  8 active torsions:
REMARK  status: ('A' for Active; 'I' for Inactive)
REMARK    1  A    between atoms: C_1  and  N_2
REMARK    2  A    between atoms: C_6  and  C_7
REMARK    3  A    between atoms: C_7  and  C_8
REMARK    4  A    between atoms: C_8  and  C_9
REMARK    5  A    between atoms: C_13  and  N_14
REMARK    6  A    between atoms: C_19  and  C_20
REMARK    7  A    between atoms: C_20  and  N_21
REMARK    8  A    between atoms: C_30  and  C_31
REMARK                            x       y       z     vdW  Elec       q    Type
REMARK                         _______ _______ _______ _____ _____    ______ ____
ROOT
ATOM      1  N   UNL     1       1.437   8.248  20.186  0.00  0.00    +0.000 N 
ATOM      2  C   UNL     1       1.557   6.907  20.709  0.00  0.00    +0.000 C 
ATOM      3  C   UNL     1       2.268   6.169  19.649  0.00  0.00    +0.000 A 
ATOM      4  C   UNL     1       2.679   7.038  18.650  0.00  0.00    +0.000 A 
ATOM      5  C   UNL     1       3.488   6.595  17.615  0.00  0.00    +0.000 A 
ATOM      6  C   UNL     1       3.866   5.227  17.595  0.00  0.00    +0.000 A 
ATOM      7  C   UNL     1       3.371   4.358  18.598  0.00  0.00    +0.000 A 
ATOM      8  C   UNL     1       2.555   4.814  19.631  0.00  0.00    +0.000 A 
ATOM      9  C   UNL     1       2.088   8.380  18.954  0.00  0.00    +0.000 C 
ATOM     10  O   UNL     1       2.162   9.341  18.206  0.00  0.00    +0.000 OA
ENDROOT
BRANCH   1  15
ATOM     11  C   UNL     1      -0.783  11.222  20.663  0.00  0.00    +0.000 A 
ATOM     12  C   UNL     1      -0.927  11.190  22.057  0.00  0.00    +0.000 A 
ATOM     13  C   UNL     1      -0.392  10.144  22.829  0.00  0.00    +0.000 A 
ATOM     14  C   UNL     1       0.337   9.102  22.237  0.00  0.00    +0.000 A 
ATOM     15  C   UNL     1       0.554   9.127  20.867  0.00  0.00    +0.000 A 
ATOM     16  C   UNL     1      -0.041  10.164  20.121  0.00  0.00    +0.000 A 
BRANCH  11  17
ATOM     17  C   UNL     1      -1.400  12.357  19.693  0.00  0.00    +0.000 C 
ATOM     18  C   UNL     1      -0.487  12.778  18.507  0.00  0.00    +0.000 C 
ATOM     19  O   UNL     1      -0.401  14.141  18.964  0.00  0.00    +0.000 OA
ATOM     20  C   UNL     1      -1.231  13.854  20.109  0.00  0.00    +0.000 C 
BRANCH  17  21
ATOM     21  C   UNL     1      -2.843  12.008  19.265  0.00  0.00    +0.000 C 
BRANCH  21  27
ATOM     22  C   UNL     1      -5.339  12.020  17.307  0.00  0.00    +0.000 C 
ATOM     23  N   UNL     1      -4.068  11.382  17.096  0.00  0.00    +0.000 N 
ATOM     24  C   UNL     1      -3.753  10.613  16.017  0.00  0.00    +0.000 A 
ATOM     25  N   UNL     1      -2.524  10.173  16.137  0.00  0.00    +0.000 NA
ATOM     26  N   UNL     1      -2.024  10.660  17.320  0.00  0.00    +0.000 NA
ATOM     27  C   UNL     1      -2.957  11.383  17.907  0.00  0.00    +0.000 A 
ENDBRANCH  21  27
ENDBRANCH  17  21
ENDBRANCH  11  17
ENDBRANCH   1  15
BRANCH   8  28
ATOM     28  C   UNL     1       2.000   3.860  20.665  0.00  0.00    +0.000 C 
ATOM     29  F   UNL     1       2.363   4.160  21.934  0.00  0.00    +0.000 F 
ATOM     30  F   UNL     1       0.639   3.832  20.666  0.00  0.00    +0.000 F 
ATOM     31  F   UNL     1       2.410   2.576  20.457  0.00  0.00    +0.000 F 
ENDBRANCH   8  28
BRANCH   6  32
ATOM     32  C   UNL     1       4.868   4.664  16.603  0.00  0.00    +0.000 C 
BRANCH  32  33
ATOM     33  N   UNL     1       6.295   4.729  16.900  0.00  0.00    +0.000 NA
ATOM     34  C   UNL     1       6.718   4.289  18.219  0.00  0.00    +0.000 C 
ATOM     35  C   UNL     1       6.754   5.401  19.265  0.00  0.00    +0.000 C 
ATOM     36  C   UNL     1       7.520   6.644  18.811  0.00  0.00    +0.000 C 
ATOM     37  C   UNL     1       7.220   7.068  17.384  0.00  0.00    +0.000 C 
ATOM     38  F   UNL     1       6.116   7.854  17.365  0.00  0.00    +0.000 F 
ATOM     39  F   UNL     1       8.237   7.862  16.946  0.00  0.00    +0.000 F 
ATOM     40  C   UNL     1       7.052   5.889  16.413  0.00  0.00    +0.000 C 
ENDBRANCH  32  33
ENDBRANCH   6  32
TORSDOF 7
ENDMDL
MODEL 2
REMARK VINA RESULT:     -10.6      1.748      2.816
REMARK  Name = 
REMARK  8 active torsions:
REMARK  status: ('A' for Active; 'I' for Inactive)
REMARK    1  A    between atoms: C_1  and  N_2
REMARK    2  A    between atoms: C_6  and  C_7
REMARK    3  A    between atoms: C_7  and  C_8
REMARK    4  A    between atoms: C_8  and  C_9
REMARK    5  A    between atoms: C_13  and  N_14
REMARK    6  A    between atoms: C_19  and  C_20
REMARK    7  A    between atoms: C_20  and  N_21
REMARK    8  A    between atoms: C_30  and  C_31
REMARK                            x       y       z     vdW  Elec       q    Type
REMARK                         _______ _______ _______ _____ _____    ______ ____
ROOT
ATOM      1  N   UNL     1       1.487   8.234  20.101  0.00  0.00    +0.000 N 
ATOM      2  C   UNL     1       1.583   6.894  20.631  0.00  0.00    +0.000 C 
ATOM      3  C   UNL     1       2.282   6.138  19.577  0.00  0.00    +0.000 A 
ATOM      4  C   UNL     1       2.709   6.994  18.572  0.00  0.00    +0.000 A 
ATOM      5  C   UNL     1       3.511   6.531  17.541  0.00  0.00    +0.000 A 
ATOM      6  C   UNL     1       3.866   5.156  17.529  0.00  0.00    +0.000 A 
ATOM      7  C   UNL     1       3.354   4.303  18.537  0.00  0.00    +0.000 A 
ATOM      8  C   UNL     1       2.545   4.779  19.566  0.00  0.00    +0.000 A 
ATOM      9  C   UNL     1       2.141   8.348  18.869  0.00  0.00    +0.000 C 
ATOM     10  O   UNL     1       2.232   9.303  18.115  0.00  0.00    +0.000 OA
ENDROOT
BRANCH   1  15
ATOM     11  C   UNL     1      -0.822  11.150  20.509  0.00  0.00    +0.000 A 
ATOM     12  C   UNL     1      -0.861  11.229  21.908  0.00  0.00    +0.000 A 
ATOM     13  C   UNL     1      -0.224  10.272  22.718  0.00  0.00    +0.000 A 
ATOM     14  C   UNL     1       0.505   9.213  22.156  0.00  0.00    +0.000 A 
ATOM     15  C   UNL     1       0.618   9.133  20.775  0.00  0.00    +0.000 A 
ATOM     16  C   UNL     1      -0.076  10.080  19.997  0.00  0.00    +0.000 A 
BRANCH  11  17
ATOM     17  C   UNL     1      -1.560  12.177  19.502  0.00  0.00    +0.000 C 
ATOM     18  C   UNL     1      -3.104  12.255  19.657  0.00  0.00    +0.000 C 
ATOM     19  O   UNL     1      -3.334  11.795  18.312  0.00  0.00    +0.000 OA
ATOM     20  C   UNL     1      -1.917  11.672  18.067  0.00  0.00    +0.000 C 
BRANCH  17  21
ATOM     21  C   UNL     1      -0.869  13.559  19.502  0.00  0.00    +0.000 C 
BRANCH  21  27
ATOM     22  C   UNL     1       1.274  14.440  21.669  0.00  0.00    +0.000 C 
ATOM     23  N   UNL     1       1.528  13.928  20.350  0.00  0.00    +0.000 N 
ATOM     24  C   UNL     1       2.762  13.796  19.790  0.00  0.00    +0.000 A 
ATOM     25  N   UNL     1       2.643  13.314  18.577  0.00  0.00    +0.000 NA
ATOM     26  N   UNL     1       1.304  13.130  18.334  0.00  0.00    +0.000 NA
ATOM     27  C   UNL     1       0.626  13.509  19.399  0.00  0.00    +0.000 A 
ENDBRANCH  21  27
ENDBRANCH  17  21
ENDBRANCH  11  17
ENDBRANCH   1  15
BRANCH   8  28
ATOM     28  C   UNL     1       1.973   3.840  20.605  0.00  0.00    +0.000 C 
ATOM     29  F   UNL     1       0.621   3.842  20.657  0.00  0.00    +0.000 F 
ATOM     30  F   UNL     1       2.334   2.545  20.388  0.00  0.00    +0.000 F 
ATOM     31  F   UNL     1       2.391   4.148  21.866  0.00  0.00    +0.000 F 
ENDBRANCH   8  28
BRANCH   6  32
ATOM     32  C   UNL     1       4.858   4.571  16.542  0.00  0.00    +0.000 C 
BRANCH  32  33
ATOM     33  N   UNL     1       6.288   4.644  16.823  0.00  0.00    +0.000 NA
ATOM     34  C   UNL     1       6.728   4.205  18.136  0.00  0.00    +0.000 C 
ATOM     35  C   UNL     1       6.768   5.316  19.184  0.00  0.00    +0.000 C 
ATOM     36  C   UNL     1       7.522   6.564  18.723  0.00  0.00    +0.000 C 
ATOM     37  C   UNL     1       7.204   6.989  17.300  0.00  0.00    +0.000 C 
ATOM     38  F   UNL     1       6.095   7.767  17.293  0.00  0.00    +0.000 F 
ATOM     39  F   UNL     1       8.212   7.789  16.852  0.00  0.00    +0.000 F 
ATOM     40  C   UNL     1       7.033   5.809  16.329  0.00  0.00    +0.000 C 
ENDBRANCH  32  33
ENDBRANCH   6  32
TORSDOF 7
ENDMDL
MODEL 3
REMARK VINA RESULT:     -10.5      1.923      2.928
REMARK  Name = 
REMARK  8 active torsions:
REMARK  status: ('A' for Active; 'I' for Inactive)
REMARK    1  A    between atoms: C_1  and  N_2
REMARK    2  A    between atoms: C_6  and  C_7
REMARK    3  A    between atoms: C_7  and  C_8
REMARK    4  A    between atoms: C_8  and  C_9
REMARK    5  A    between atoms: C_13  and  N_14
REMARK    6  A    between atoms: C_19  and  C_20
REMARK    7  A    between atoms: C_20  and  N_21
REMARK    8  A    between atoms: C_30  and  C_31
REMARK                            x       y       z     vdW  Elec       q    Type
REMARK                         _______ _______ _______ _____ _____    ______ ____
ROOT
ATOM      1  N   UNL     1       1.461   8.174  20.243  0.00  0.00    +0.000 N 
ATOM      2  C   UNL     1       1.589   6.820  20.732  0.00  0.00    +0.000 C 
ATOM      3  C   UNL     1       2.272   6.105  19.640  0.00  0.00    +0.000 A 
ATOM      4  C   UNL     1       2.662   6.995  18.651  0.00  0.00    +0.000 A 
ATOM      5  C   UNL     1       3.445   6.573  17.587  0.00  0.00    +0.000 A 
ATOM      6  C   UNL     1       3.818   5.204  17.528  0.00  0.00    +0.000 A 
ATOM      7  C   UNL     1       3.343   4.315  18.522  0.00  0.00    +0.000 A 
ATOM      8  C   UNL     1       2.552   4.750  19.584  0.00  0.00    +0.000 A 
ATOM      9  C   UNL     1       2.084   8.331  19.000  0.00  0.00    +0.000 C 
ATOM     10  O   UNL     1       2.144   9.309  18.272  0.00  0.00    +0.000 OA
ENDROOT
BRANCH   1  15
ATOM     11  C   UNL     1      -0.806  11.094  20.813  0.00  0.00    +0.000 A 
ATOM     12  C   UNL     1      -0.864  11.082  22.214  0.00  0.00    +0.000 A 
ATOM     13  C   UNL     1      -0.253  10.063  22.966  0.00  0.00    +0.000 A 
ATOM     14  C   UNL     1       0.467   9.031  22.345  0.00  0.00    +0.000 A 
ATOM     15  C   UNL     1       0.598   9.040  20.965  0.00  0.00    +0.000 A 
ATOM     16  C   UNL     1      -0.070  10.048  20.241  0.00  0.00    +0.000 A 
BRANCH  11  17
ATOM     17  C   UNL     1      -1.513  12.197  19.866  0.00  0.00    +0.000 C 
ATOM     18  C   UNL     1      -2.602  13.060  20.562  0.00  0.00    +0.000 C 
ATOM     19  O   UNL     1      -3.639  12.591  19.679  0.00  0.00    +0.000 OA
ATOM     20  C   UNL     1      -2.711  11.742  18.973  0.00  0.00    +0.000 C 
BRANCH  17  21
ATOM     21  C   UNL     1      -0.466  13.031  19.095  0.00  0.00    +0.000 C 
BRANCH  21  27
ATOM     22  C   UNL     1       2.611  12.749  18.375  0.00  0.00    +0.000 C 
ATOM     23  N   UNL     1       2.044  13.289  19.580  0.00  0.00    +0.000 N 
ATOM     24  C   UNL     1       2.762  13.721  20.654  0.00  0.00    +0.000 A 
ATOM     25  N   UNL     1       1.943  14.140  21.588  0.00  0.00    +0.000 NA
ATOM     26  N   UNL     1       0.662  13.977  21.120  0.00  0.00    +0.000 NA
ATOM     27  C   UNL     1       0.719  13.454  19.911  0.00  0.00    +0.000 A 
ENDBRANCH  21  27
ENDBRANCH  17  21
ENDBRANCH  11  17
ENDBRANCH   1  15
BRANCH   8  28
ATOM     28  C   UNL     1       2.019   3.774  20.609  0.00  0.00    +0.000 C 
ATOM     29  F   UNL     1       2.398   4.053  21.877  0.00  0.00    +0.000 F 
ATOM     30  F   UNL     1       0.657   3.737  20.629  0.00  0.00    +0.000 F 
ATOM     31  F   UNL     1       2.432   2.496  20.371  0.00  0.00    +0.000 F 
ENDBRANCH   8  28
BRANCH   6  32
ATOM     32  C   UNL     1       4.793   4.661  16.500  0.00  0.00    +0.000 C 
BRANCH  32  33
ATOM     33  N   UNL     1       6.226   4.698  16.772  0.00  0.00    +0.000 NA
ATOM     34  C   UNL     1       6.667   4.215  18.070  0.00  0.00    +0.000 C 
ATOM     35  C   UNL     1       6.737   5.295  19.147  0.00  0.00    +0.000 C 
ATOM     36  C   UNL     1       7.512   6.540  18.714  0.00  0.00    +0.000 C 
ATOM     37  C   UNL     1       7.193   7.010  17.305  0.00  0.00    +0.000 C 
ATOM     38  F   UNL     1       6.100   7.810  17.328  0.00  0.00    +0.000 F 
ATOM     39  F   UNL     1       8.214   7.801  16.871  0.00  0.00    +0.000 F 
ATOM     40  C   UNL     1       6.991   5.861  16.304  0.00  0.00    +0.000 C 
ENDBRANCH  32  33
ENDBRANCH   6  32
TORSDOF 7
ENDMDL
MODEL 4
REMARK VINA RESULT:     -10.4      1.896      2.725
REMARK  Name = 
REMARK  8 active torsions:
REMARK  status: ('A' for Active; 'I' for Inactive)
REMARK    1  A    between atoms: C_1  and  N_2
REMARK    2  A    between atoms: C_6  and  C_7
REMARK    3  A    between atoms: C_7  and  C_8
REMARK    4  A    between atoms: C_8  and  C_9
REMARK    5  A    between atoms: C_13  and  N_14
REMARK    6  A    between atoms: C_19  and  C_20
REMARK    7  A    between atoms: C_20  and  N_21
REMARK    8  A    between atoms: C_30  and  C_31
REMARK                            x       y       z     vdW  Elec       q    Type
REMARK                         _______ _______ _______ _____ _____    ______ ____
ROOT
ATOM      1  N   UNL     1       1.500   8.157  20.191  0.00  0.00    +0.000 N 
ATOM      2  C   UNL     1       1.608   6.809  20.696  0.00  0.00    +0.000 C 
ATOM      3  C   UNL     1       2.303   6.076  19.622  0.00  0.00    +0.000 A 
ATOM      4  C   UNL     1       2.717   6.953  18.631  0.00  0.00    +0.000 A 
ATOM      5  C   UNL     1       3.514   6.513  17.585  0.00  0.00    +0.000 A 
ATOM      6  C   UNL     1       3.877   5.141  17.546  0.00  0.00    +0.000 A 
ATOM      7  C   UNL     1       3.378   4.266  18.541  0.00  0.00    +0.000 A 
ATOM      8  C   UNL     1       2.574   4.718  19.585  0.00  0.00    +0.000 A 
ATOM      9  C   UNL     1       2.144   8.297  18.956  0.00  0.00    +0.000 C 
ATOM     10  O   UNL     1       2.224   9.266  18.219  0.00  0.00    +0.000 OA
ENDROOT
BRANCH   1  15
ATOM     11  C   UNL     1      -0.704  11.136  20.710  0.00  0.00    +0.000 A 
ATOM     12  C   UNL     1      -0.823  11.103  22.107  0.00  0.00    +0.000 A 
ATOM     13  C   UNL     1      -0.276  10.056  22.868  0.00  0.00    +0.000 A 
ATOM     14  C   UNL     1       0.440   9.012  22.262  0.00  0.00    +0.000 A 
ATOM     15  C   UNL     1       0.631   9.038  20.888  0.00  0.00    +0.000 A 
ATOM     16  C   UNL     1       0.026  10.077  20.154  0.00  0.00    +0.000 A 
BRANCH  11  17
ATOM     17  C   UNL     1      -1.336  12.274  19.753  0.00  0.00    +0.000 C 
ATOM     18  C   UNL     1      -2.844  12.093  19.422  0.00  0.00    +0.000 C 
ATOM     19  O   UNL     1      -2.593  11.968  18.010  0.00  0.00    +0.000 OA
ATOM     20  C   UNL     1      -1.171  12.112  18.208  0.00  0.00    +0.000 C 
BRANCH  17  21
ATOM     21  C   UNL     1      -0.981  13.692  20.254  0.00  0.00    +0.000 C 
BRANCH  21  27
ATOM     22  C   UNL     1      -0.342  16.295  18.559  0.00  0.00    +0.000 C 
ATOM     23  N   UNL     1       0.595  15.317  19.040  0.00  0.00    +0.000 N 
ATOM     24  C   UNL     1       1.932  15.327  18.784  0.00  0.00    +0.000 A 
ATOM     25  N   UNL     1       2.495  14.291  19.358  0.00  0.00    +0.000 NA
ATOM     26  N   UNL     1       1.507  13.585  20.000  0.00  0.00    +0.000 NA
ATOM     27  C   UNL     1       0.356  14.197  19.802  0.00  0.00    +0.000 A 
ENDBRANCH  21  27
ENDBRANCH  17  21
ENDBRANCH  11  17
ENDBRANCH   1  15
BRANCH   8  28
ATOM     28  C   UNL     1       2.016   3.758  20.611  0.00  0.00    +0.000 C 
ATOM     29  F   UNL     1       2.395   2.473  20.420  0.00  0.00    +0.000 F 
ATOM     30  F   UNL     1       2.401   4.073  21.879  0.00  0.00    +0.000 F 
ATOM     31  F   UNL     1       0.652   3.744  20.619  0.00  0.00    +0.000 F 
ENDBRANCH   8  28
BRANCH   6  32
ATOM     32  C   UNL     1       4.865   4.579  16.540  0.00  0.00    +0.000 C 
BRANCH  32  33
ATOM     33  N   UNL     1       6.296   4.663  16.808  0.00  0.00    +0.000 NA
ATOM     34  C   UNL     1       6.753   4.222  18.115  0.00  0.00    +0.000 C 
ATOM     35  C   UNL     1       6.794   5.329  19.168  0.00  0.00    +0.000 C 
ATOM     36  C   UNL     1       7.533   6.585  18.705  0.00  0.00    +0.000 C 
ATOM     37  C   UNL     1       7.199   7.013  17.286  0.00  0.00    +0.000 C 
ATOM     38  F   UNL     1       6.083   7.783  17.293  0.00  0.00    +0.000 F 
ATOM     39  F   UNL     1       8.195   7.822  16.832  0.00  0.00    +0.000 F 
ATOM     40  C   UNL     1       7.028   5.836  16.312  0.00  0.00    +0.000 C 
ENDBRANCH  32  33
ENDBRANCH   6  32
TORSDOF 7
ENDMDL
MODEL 5
REMARK VINA RESULT:     -10.3      2.069      3.020
REMARK  Name = 
REMARK  8 active torsions:
REMARK  status: ('A' for Active; 'I' for Inactive)
REMARK    1  A    between atoms: C_1  and  N_2
REMARK    2  A    between atoms: C_6  and  C_7
REMARK    3  A    between atoms: C_7  and  C_8
REMARK    4  A    between atoms: C_8  and  C_9
REMARK    5  A    between atoms: C_13  and  N_14
REMARK    6  A    between atoms: C_19  and  C_20
REMARK    7  A    between atoms: C_20  and  N_21
REMARK    8  A    between atoms: C_30  and  C_31
REMARK                            x       y       z     vdW  Elec       q    Type
REMARK                         _______ _______ _______ _____ _____    ______ ____
ROOT
ATOM      1  N   UNL     1       1.451   8.129  20.334  0.00  0.00    +0.000 N 
ATOM      2  C   UNL     1       1.578   6.774  20.817  0.00  0.00    +0.000 C 
ATOM      3  C   UNL     1       2.257   6.062  19.720  0.00  0.00    +0.000 A 
ATOM      4  C   UNL     1       2.645   6.955  18.733  0.00  0.00    +0.000 A 
ATOM      5  C   UNL     1       3.424   6.536  17.665  0.00  0.00    +0.000 A 
ATOM      6  C   UNL     1       3.795   5.167  17.599  0.00  0.00    +0.000 A 
ATOM      7  C   UNL     1       3.322   4.275  18.591  0.00  0.00    +0.000 A 
ATOM      8  C   UNL     1       2.536   4.706  19.657  0.00  0.00    +0.000 A 
ATOM      9  C   UNL     1       2.070   8.291  19.089  0.00  0.00    +0.000 C 
ATOM     10  O   UNL     1       2.128   9.271  18.365  0.00  0.00    +0.000 OA
ENDROOT
BRANCH   1  15
ATOM     11  C   UNL     1      -0.555  11.208  21.038  0.00  0.00    +0.000 A 
ATOM     12  C   UNL     1      -0.809  11.019  22.404  0.00  0.00    +0.000 A 
ATOM     13  C   UNL     1      -0.419   9.844  23.070  0.00  0.00    +0.000 A 
ATOM     14  C   UNL     1       0.268   8.821  22.399  0.00  0.00    +0.000 A 
ATOM     15  C   UNL     1       0.591   8.994  21.061  0.00  0.00    +0.000 A 
ATOM     16  C   UNL     1       0.140  10.162  20.415  0.00  0.00    +0.000 A 
BRANCH  11  17
ATOM     17  C   UNL     1      -1.004  12.503  20.182  0.00  0.00    +0.000 C 
ATOM     18  C   UNL     1      -2.056  12.226  19.072  0.00  0.00    +0.000 C 
ATOM     19  O   UNL     1      -1.167  12.653  18.023  0.00  0.00    +0.000 OA
ATOM     20  C   UNL     1      -0.115  12.930  18.971  0.00  0.00    +0.000 C 
BRANCH  17  21
ATOM     21  C   UNL     1      -1.378  13.684  21.104  0.00  0.00    +0.000 C 
BRANCH  21  27
ATOM     22  C   UNL     1      -0.711  16.583  20.001  0.00  0.00    +0.000 C 
ATOM     23  N   UNL     1       0.046  15.817  20.953  0.00  0.00    +0.000 N 
ATOM     24  C   UNL     1       1.233  16.205  21.497  0.00  0.00    +0.000 A 
ATOM     25  N   UNL     1       1.664  15.276  22.315  0.00  0.00    +0.000 NA
ATOM     26  N   UNL     1       0.745  14.255  22.304  0.00  0.00    +0.000 NA
ATOM     27  C   UNL     1      -0.229  14.574  21.475  0.00  0.00    +0.000 A 
ENDBRANCH  21  27
ENDBRANCH  17  21
ENDBRANCH  11  17
ENDBRANCH   1  15
BRANCH   8  28
ATOM     28  C   UNL     1       2.004   3.728  20.680  0.00  0.00    +0.000 C 
ATOM     29  F   UNL     1       2.399   3.993  21.947  0.00  0.00    +0.000 F 
ATOM     30  F   UNL     1       0.643   3.702  20.714  0.00  0.00    +0.000 F 
ATOM     31  F   UNL     1       2.405   2.449  20.429  0.00  0.00    +0.000 F 
ENDBRANCH   8  28
BRANCH   6  32
ATOM     32  C   UNL     1       4.766   4.627  16.566  0.00  0.00    +0.000 C 
BRANCH  32  33
ATOM     33  N   UNL     1       6.200   4.654  16.836  0.00  0.00    +0.000 NA
ATOM     34  C   UNL     1       6.635   4.209  18.149  0.00  0.00    +0.000 C 
ATOM     35  C   UNL     1       6.719   5.323  19.190  0.00  0.00    +0.000 C 
ATOM     36  C   UNL     1       7.510   6.543  18.717  0.00  0.00    +0.000 C 
ATOM     37  C   UNL     1       7.197   6.970  17.293  0.00  0.00    +0.000 C 
ATOM     38  F   UNL     1       6.113   7.785  17.290  0.00  0.00    +0.000 F 
ATOM     39  F   UNL     1       8.226   7.734  16.834  0.00  0.00    +0.000 F 
ATOM     40  C   UNL     1       6.979   5.792  16.331  0.00  0.00    +0.000 C 
ENDBRANCH  32  33
ENDBRANCH   6  32
TORSDOF 7
ENDMDL
MODEL 6
REMARK VINA RESULT:     -10.2      3.020      8.996
REMARK  Name = 
REMARK  8 active torsions:
REMARK  status: ('A' for Active; 'I' for Inactive)
REMARK    1  A    between atoms: C_1  and  N_2
REMARK    2  A    between atoms: C_6  and  C_7
REMARK    3  A    between atoms: C_7  and  C_8
REMARK    4  A    between atoms: C_8  and  C_9
REMARK    5  A    between atoms: C_13  and  N_14
REMARK    6  A    between atoms: C_19  and  C_20
REMARK    7  A    between atoms: C_20  and  N_21
REMARK    8  A    between atoms: C_30  and  C_31
REMARK                            x       y       z     vdW  Elec       q    Type
REMARK                         _______ _______ _______ _____ _____    ______ ____
ROOT
ATOM      1  N   UNL     1       2.366   7.253  19.309  0.00  0.00    +0.000 N 
ATOM      2  C   UNL     1       1.588   7.623  20.468  0.00  0.00    +0.000 C 
ATOM      3  C   UNL     1       1.027   8.941  20.121  0.00  0.00    +0.000 A 
ATOM      4  C   UNL     1       1.317   9.255  18.801  0.00  0.00    +0.000 A 
ATOM      5  C   UNL     1       0.775  10.385  18.207  0.00  0.00    +0.000 A 
ATOM      6  C   UNL     1      -0.066  11.219  18.990  0.00  0.00    +0.000 A 
ATOM      7  C   UNL     1      -0.282  10.899  20.353  0.00  0.00    +0.000 A 
ATOM      8  C   UNL     1       0.272   9.763  20.940  0.00  0.00    +0.000 A 
ATOM      9  C   UNL     1       2.241   8.198  18.284  0.00  0.00    +0.000 C 
ATOM     10  O   UNL     1       2.778   8.241  17.189  0.00  0.00    +0.000 OA
ENDROOT
BRANCH   1  15
ATOM     11  C   UNL     1       5.500   5.262  18.851  0.00  0.00    +0.000 A 
ATOM     12  C   UNL     1       5.053   4.009  19.293  0.00  0.00    +0.000 A 
ATOM     13  C   UNL     1       3.768   3.835  19.837  0.00  0.00    +0.000 A 
ATOM     14  C   UNL     1       2.867   4.907  19.933  0.00  0.00    +0.000 A 
ATOM     15  C   UNL     1       3.249   6.151  19.452  0.00  0.00    +0.000 A 
ATOM     16  C   UNL     1       4.561   6.297  18.961  0.00  0.00    +0.000 A 
BRANCH  11  17
ATOM     17  C   UNL     1       6.971   5.563  18.255  0.00  0.00    +0.000 C 
ATOM     18  C   UNL     1       8.043   5.951  19.311  0.00  0.00    +0.000 C 
ATOM     19  O   UNL     1       8.254   7.250  18.725  0.00  0.00    +0.000 OA
ATOM     20  C   UNL     1       7.265   6.996  17.706  0.00  0.00    +0.000 C 
BRANCH  17  21
ATOM     21  C   UNL     1       7.429   4.442  17.295  0.00  0.00    +0.000 C 
BRANCH  21  27
ATOM     22  C   UNL     1       4.730   3.472  15.940  0.00  0.00    +0.000 C 
ATOM     23  N   UNL     1       5.823   4.160  15.310  0.00  0.00    +0.000 N 
ATOM     24  C   UNL     1       5.896   4.457  13.982  0.00  0.00    +0.000 A 
ATOM     25  N   UNL     1       7.025   5.074  13.733  0.00  0.00    +0.000 NA
ATOM     26  N   UNL     1       7.709   5.181  14.919  0.00  0.00    +0.000 NA
ATOM     27  C   UNL     1       6.991   4.621  15.872  0.00  0.00    +0.000 A 
ENDBRANCH  21  27
ENDBRANCH  17  21
ENDBRANCH  11  17
ENDBRANCH   1  15
BRANCH   8  28
ATOM     28  C   UNL     1       0.064   9.466  22.408  0.00  0.00    +0.000 C 
ATOM     29  F   UNL     1       1.209   9.202  23.079  0.00  0.00    +0.000 F 
ATOM     30  F   UNL     1      -0.522  10.502  23.069  0.00  0.00    +0.000 F 
ATOM     31  F   UNL     1      -0.740   8.382  22.607  0.00  0.00    +0.000 F 
ENDBRANCH   8  28
BRANCH   6  32
ATOM     32  C   UNL     1      -0.834  12.392  18.408  0.00  0.00    +0.000 C 
BRANCH  32  33
ATOM     33  N   UNL     1      -2.146  12.172  17.809  0.00  0.00    +0.000 NA
ATOM     34  C   UNL     1      -3.225  11.782  18.701  0.00  0.00    +0.000 C 
ATOM     35  C   UNL     1      -3.380  10.272  18.872  0.00  0.00    +0.000 C 
ATOM     36  C   UNL     1      -3.439   9.511  17.547  0.00  0.00    +0.000 C 
ATOM     37  C   UNL     1      -2.420   9.975  16.520  0.00  0.00    +0.000 C 
ATOM     38  F   UNL     1      -1.242   9.338  16.728  0.00  0.00    +0.000 F 
ATOM     39  F   UNL     1      -2.836   9.574  15.286  0.00  0.00    +0.000 F 
ATOM     40  C   UNL     1      -2.209  11.497  16.506  0.00  0.00    +0.000 C 
ENDBRANCH  32  33
ENDBRANCH   6  32
TORSDOF 7
ENDMDL
MODEL 7
REMARK VINA RESULT:     -10.1      3.446      9.062
REMARK  Name = 
REMARK  8 active torsions:
REMARK  status: ('A' for Active; 'I' for Inactive)
REMARK    1  A    between atoms: C_1  and  N_2
REMARK    2  A    between atoms: C_6  and  C_7
REMARK    3  A    between atoms: C_7  and  C_8
REMARK    4  A    between atoms: C_8  and  C_9
REMARK    5  A    between atoms: C_13  and  N_14
REMARK    6  A    between atoms: C_19  and  C_20
REMARK    7  A    between atoms: C_20  and  N_21
REMARK    8  A    between atoms: C_30  and  C_31
REMARK                            x       y       z     vdW  Elec       q    Type
REMARK                         _______ _______ _______ _____ _____    ______ ____
ROOT
ATOM      1  N   UNL     1       2.319   7.297  19.323  0.00  0.00    +0.000 N 
ATOM      2  C   UNL     1       1.546   7.650  20.490  0.00  0.00    +0.000 C 
ATOM      3  C   UNL     1       1.014   8.989  20.179  0.00  0.00    +0.000 A 
ATOM      4  C   UNL     1       1.314   9.334  18.870  0.00  0.00    +0.000 A 
ATOM      5  C   UNL     1       0.798  10.491  18.307  0.00  0.00    +0.000 A 
ATOM      6  C   UNL     1      -0.027  11.321  19.111  0.00  0.00    +0.000 A 
ATOM      7  C   UNL     1      -0.255  10.967  20.463  0.00  0.00    +0.000 A 
ATOM      8  C   UNL     1       0.274   9.804  21.019  0.00  0.00    +0.000 A 
ATOM      9  C   UNL     1       2.217   8.272  18.324  0.00  0.00    +0.000 C 
ATOM     10  O   UNL     1       2.758   8.335  17.232  0.00  0.00    +0.000 OA
ENDROOT
BRANCH   1  15
ATOM     11  C   UNL     1       5.417   5.258  18.826  0.00  0.00    +0.000 A 
ATOM     12  C   UNL     1       4.940   4.001  19.222  0.00  0.00    +0.000 A 
ATOM     13  C   UNL     1       3.647   3.836  19.749  0.00  0.00    +0.000 A 
ATOM     14  C   UNL     1       2.767   4.922  19.872  0.00  0.00    +0.000 A 
ATOM     15  C   UNL     1       3.179   6.173  19.437  0.00  0.00    +0.000 A 
ATOM     16  C   UNL     1       4.499   6.309  18.962  0.00  0.00    +0.000 A 
BRANCH  11  17
ATOM     17  C   UNL     1       6.900   5.549  18.253  0.00  0.00    +0.000 C 
ATOM     18  C   UNL     1       7.958   5.925  19.327  0.00  0.00    +0.000 C 
ATOM     19  O   UNL     1       8.189   7.223  18.748  0.00  0.00    +0.000 OA
ATOM     20  C   UNL     1       7.213   6.981  17.713  0.00  0.00    +0.000 C 
BRANCH  17  21
ATOM     21  C   UNL     1       7.363   4.427  17.297  0.00  0.00    +0.000 C 
BRANCH  21  27
ATOM     22  C   UNL     1       4.679   3.503  15.879  0.00  0.00    +0.000 C 
ATOM     23  N   UNL     1       5.796   4.179  15.276  0.00  0.00    +0.000 N 
ATOM     24  C   UNL     1       5.901   4.482  13.953  0.00  0.00    +0.000 A 
ATOM     25  N   UNL     1       7.044   5.084  13.731  0.00  0.00    +0.000 NA
ATOM     26  N   UNL     1       7.704   5.175  14.932  0.00  0.00    +0.000 NA
ATOM     27  C   UNL     1       6.958   4.620  15.866  0.00  0.00    +0.000 A 
ENDBRANCH  21  27
ENDBRANCH  17  21
ENDBRANCH  11  17
ENDBRANCH   1  15
BRANCH   8  28
ATOM     28  C   UNL     1       0.055   9.469  22.478  0.00  0.00    +0.000 C 
ATOM     29  F   UNL     1      -0.559  10.451  23.177  0.00  0.00    +0.000 F 
ATOM     30  F   UNL     1      -0.715   8.358  22.645  0.00  0.00    +0.000 F 
ATOM     31  F   UNL     1       1.226   9.225  23.133  0.00  0.00    +0.000 F 
ENDBRANCH   8  28
BRANCH   6  32
ATOM     32  C   UNL     1      -0.769  12.525  18.561  0.00  0.00    +0.000 C 
BRANCH  32  33
ATOM     33  N   UNL     1      -0.209  13.861  18.734  0.00  0.00    +0.000 NA
ATOM     34  C   UNL     1       1.235  13.993  18.631  0.00  0.00    +0.000 C 
ATOM     35  C   UNL     1       1.973  13.836  19.959  0.00  0.00    +0.000 C 
ATOM     36  C   UNL     1       1.405  14.706  21.080  0.00  0.00    +0.000 C 
ATOM     37  C   UNL     1      -0.113  14.717  21.147  0.00  0.00    +0.000 C 
ATOM     38  F   UNL     1      -0.545  13.658  21.874  0.00  0.00    +0.000 F 
ATOM     39  F   UNL     1      -0.507  15.820  21.843  0.00  0.00    +0.000 F 
ATOM     40  C   UNL     1      -0.790  14.728  19.767  0.00  0.00    +0.000 C 
ENDBRANCH  32  33
ENDBRANCH   6  32
TORSDOF 7
ENDMDL
MODEL 8
REMARK VINA RESULT:     -10.0      1.087      1.591
REMARK  Name = 
REMARK  8 active torsions:
REMARK  status: ('A' for Active; 'I' for Inactive)
REMARK    1  A    between atoms: C_1  and  N_2
REMARK    2  A    between atoms: C_6  and  C_7
REMARK    3  A    between atoms: C_7  and  C_8
REMARK    4  A    between atoms: C_8  and  C_9
REMARK    5  A    between atoms: C_13  and  N_14
REMARK    6  A    between atoms: C_19  and  C_20
REMARK    7  A    between atoms: C_20  and  N_21
REMARK    8  A    between atoms: C_30  and  C_31
REMARK                            x       y       z     vdW  Elec       q    Type
REMARK                         _______ _______ _______ _____ _____    ______ ____
ROOT
ATOM      1  N   UNL     1       1.498   8.206  20.129  0.00  0.00    +0.000 N 
ATOM      2  C   UNL     1       1.588   6.861  20.646  0.00  0.00    +0.000 C 
ATOM      3  C   UNL     1       2.281   6.110  19.583  0.00  0.00    +0.000 A 
ATOM      4  C   UNL     1       2.710   6.974  18.586  0.00  0.00    +0.000 A 
ATOM      5  C   UNL     1       3.507   6.515  17.549  0.00  0.00    +0.000 A 
ATOM      6  C   UNL     1       3.854   5.139  17.524  0.00  0.00    +0.000 A 
ATOM      7  C   UNL     1       3.340   4.278  18.524  0.00  0.00    +0.000 A 
ATOM      8  C   UNL     1       2.535   4.749  19.560  0.00  0.00    +0.000 A 
ATOM      9  C   UNL     1       2.151   8.327  18.896  0.00  0.00    +0.000 C 
ATOM     10  O   UNL     1       2.247   9.289  18.152  0.00  0.00    +0.000 OA
ENDROOT
BRANCH   1  15
ATOM     11  C   UNL     1      -0.560  11.285  20.660  0.00  0.00    +0.000 A 
ATOM     12  C   UNL     1      -0.776  11.191  22.042  0.00  0.00    +0.000 A 
ATOM     13  C   UNL     1      -0.344  10.076  22.781  0.00  0.00    +0.000 A 
ATOM     14  C   UNL     1       0.351   9.021  22.168  0.00  0.00    +0.000 A 
ATOM     15  C   UNL     1       0.637   9.103  20.814  0.00  0.00    +0.000 A 
ATOM     16  C   UNL     1       0.143  10.211  20.097  0.00  0.00    +0.000 A 
BRANCH  11  17
ATOM     17  C   UNL     1      -1.059  12.504  19.724  0.00  0.00    +0.000 C 
ATOM     18  C   UNL     1       0.066  13.237  18.942  0.00  0.00    +0.000 C 
ATOM     19  O   UNL     1      -0.199  14.492  19.596  0.00  0.00    +0.000 OA
ATOM     20  C   UNL     1      -1.256  13.907  20.384  0.00  0.00    +0.000 C 
BRANCH  17  21
ATOM     21  C   UNL     1      -2.252  12.081  18.837  0.00  0.00    +0.000 C 
BRANCH  21  27
ATOM     22  C   UNL     1      -5.102  11.407  17.619  0.00  0.00    +0.000 C 
ATOM     23  N   UNL     1      -4.810  11.877  18.945  0.00  0.00    +0.000 N 
ATOM     24  C   UNL     1      -5.746  12.172  19.891  0.00  0.00    +0.000 A 
ATOM     25  N   UNL     1      -5.149  12.586  20.982  0.00  0.00    +0.000 NA
ATOM     26  N   UNL     1      -3.796  12.567  20.747  0.00  0.00    +0.000 NA
ATOM     27  C   UNL     1      -3.588  12.149  19.515  0.00  0.00    +0.000 A 
ENDBRANCH  21  27
ENDBRANCH  17  21
ENDBRANCH  11  17
ENDBRANCH   1  15
BRANCH   8  28
ATOM     28  C   UNL     1       1.960   3.805  20.591  0.00  0.00    +0.000 C 
ATOM     29  F   UNL     1       2.308   2.511  20.400  0.00  0.00    +0.000 F 
ATOM     30  F   UNL     1       2.360   4.113  21.856  0.00  0.00    +0.000 F 
ATOM     31  F   UNL     1       0.597   3.823  20.606  0.00  0.00    +0.000 F 
ENDBRANCH   8  28
BRANCH   6  32
ATOM     32  C   UNL     1       4.841   4.556  16.529  0.00  0.00    +0.000 C 
BRANCH  32  33
ATOM     33  N   UNL     1       6.273   4.626  16.803  0.00  0.00    +0.000 NA
ATOM     34  C   UNL     1       6.720   4.171  18.109  0.00  0.00    +0.000 C 
ATOM     35  C   UNL     1       6.765   5.268  19.171  0.00  0.00    +0.000 C 
ATOM     36  C   UNL     1       7.515   6.523  18.722  0.00  0.00    +0.000 C 
ATOM     37  C   UNL     1       7.191   6.965  17.306  0.00  0.00    +0.000 C 
ATOM     38  F   UNL     1       6.081   7.744  17.315  0.00  0.00    +0.000 F 
ATOM     39  F   UNL     1       8.196   7.771  16.863  0.00  0.00    +0.000 F 
ATOM     40  C   UNL     1       7.015   5.798  16.321  0.00  0.00    +0.000 C 
ENDBRANCH  32  33
ENDBRANCH   6  32
TORSDOF 7
ENDMDL
MODEL 9
REMARK VINA RESULT:     -10.0      2.269      3.230
REMARK  Name = 
REMARK  8 active torsions:
REMARK  status: ('A' for Active; 'I' for Inactive)
REMARK    1  A    between atoms: C_1  and  N_2
REMARK    2  A    between atoms: C_6  and  C_7
REMARK    3  A    between atoms: C_7  and  C_8
REMARK    4  A    between atoms: C_8  and  C_9
REMARK    5  A    between atoms: C_13  and  N_14
REMARK    6  A    between atoms: C_19  and  C_20
REMARK    7  A    between atoms: C_20  and  N_21
REMARK    8  A    between atoms: C_30  and  C_31
REMARK                            x       y       z     vdW  Elec       q    Type
REMARK                         _______ _______ _______ _____ _____    ______ ____
ROOT
ATOM      1  N   UNL     1       1.428   8.404  20.316  0.00  0.00    +0.000 N 
ATOM      2  C   UNL     1       1.564   7.055  20.813  0.00  0.00    +0.000 C 
ATOM      3  C   UNL     1       2.213   6.327  19.708  0.00  0.00    +0.000 A 
ATOM      4  C   UNL     1       2.579   7.207  18.700  0.00  0.00    +0.000 A 
ATOM      5  C   UNL     1       3.330   6.772  17.619  0.00  0.00    +0.000 A 
ATOM      6  C   UNL     1       3.695   5.401  17.561  0.00  0.00    +0.000 A 
ATOM      7  C   UNL     1       3.245   4.522  18.576  0.00  0.00    +0.000 A 
ATOM      8  C   UNL     1       2.487   4.970  19.656  0.00  0.00    +0.000 A 
ATOM      9  C   UNL     1       2.016   8.548  19.054  0.00  0.00    +0.000 C 
ATOM     10  O   UNL     1       2.059   9.519  18.316  0.00  0.00    +0.000 OA
ENDROOT
BRANCH   1  15
ATOM     11  C   UNL     1      -0.013  11.669  21.440  0.00  0.00    +0.000 A 
ATOM     12  C   UNL     1      -0.696  11.244  22.588  0.00  0.00    +0.000 A 
ATOM     13  C   UNL     1      -0.776   9.885  22.938  0.00  0.00    +0.000 A 
ATOM     14  C   UNL     1      -0.148   8.896  22.165  0.00  0.00    +0.000 A 
ATOM     15  C   UNL     1       0.589   9.280  21.053  0.00  0.00    +0.000 A 
ATOM     16  C   UNL     1       0.604  10.646  20.707  0.00  0.00    +0.000 A 
BRANCH  11  17
ATOM     17  C   UNL     1       0.093  13.201  20.938  0.00  0.00    +0.000 C 
ATOM     18  C   UNL     1      -0.943  14.173  21.567  0.00  0.00    +0.000 C 
ATOM     19  O   UNL     1      -1.535  14.482  20.291  0.00  0.00    +0.000 OA
ATOM     20  C   UNL     1      -0.627  13.592  19.608  0.00  0.00    +0.000 C 
BRANCH  17  21
ATOM     21  C   UNL     1       1.548  13.717  21.012  0.00  0.00    +0.000 C 
BRANCH  21  27
ATOM     22  C   UNL     1       2.794  13.026  18.178  0.00  0.00    +0.000 C 
ATOM     23  N   UNL     1       2.498  14.330  18.706  0.00  0.00    +0.000 N 
ATOM     24  C   UNL     1       2.771  15.506  18.075  0.00  0.00    +0.000 A 
ATOM     25  N   UNL     1       2.388  16.507  18.830  0.00  0.00    +0.000 NA
ATOM     26  N   UNL     1       1.857  15.978  19.981  0.00  0.00    +0.000 NA
ATOM     27  C   UNL     1       1.931  14.663  19.914  0.00  0.00    +0.000 A 
ENDBRANCH  21  27
ENDBRANCH  17  21
ENDBRANCH  11  17
ENDBRANCH   1  15
BRANCH   8  28
ATOM     28  C   UNL     1       1.978   4.006  20.704  0.00  0.00    +0.000 C 
ATOM     29  F   UNL     1       2.351   2.723  20.492  0.00  0.00    +0.000 F 
ATOM     30  F   UNL     1       2.421   4.318  21.954  0.00  0.00    +0.000 F 
ATOM     31  F   UNL     1       0.617   3.989  20.774  0.00  0.00    +0.000 F 
ENDBRANCH   8  28
BRANCH   6  32
ATOM     32  C   UNL     1       4.639   4.845  16.511  0.00  0.00    +0.000 C 
BRANCH  32  33
ATOM     33  N   UNL     1       6.071   4.778  16.787  0.00  0.00    +0.000 NA
ATOM     34  C   UNL     1       6.472   4.259  18.083  0.00  0.00    +0.000 C 
ATOM     35  C   UNL     1       6.615   5.326  19.167  0.00  0.00    +0.000 C 
ATOM     36  C   UNL     1       7.478   6.515  18.743  0.00  0.00    +0.000 C 
ATOM     37  C   UNL     1       7.198   7.013  17.335  0.00  0.00    +0.000 C 
ATOM     38  F   UNL     1       6.164   7.889  17.360  0.00  0.00    +0.000 F 
ATOM     39  F   UNL     1       8.273   7.733  16.908  0.00  0.00    +0.000 F 
ATOM     40  C   UNL     1       6.918   5.887  16.328  0.00  0.00    +0.000 C 
ENDBRANCH  32  33
ENDBRANCH   6  32
TORSDOF 7
ENDMDL
