MODEL 1
REMARK VINA RESULT:      -7.7      0.000      0.000
REMARK  Name = 
REMARK  7 active torsions:
REMARK  status: ('A' for Active; 'I' for Inactive)
REMARK    1  A    between atoms: C_1  and  C_2
REMARK    2  A    between atoms: C_2  and  S_3
REMARK    3  A    between atoms: C_2  and  C_10
REMARK    4  A    between atoms: S_3  and  C_4
REMARK    5  A    between atoms: N_8  and  C_9
REMARK    6  A    between atoms: C_14  and  N_15
REMARK    7  A    between atoms: C_16  and  C_18
REMARK                            x       y       z     vdW  Elec       q    Type
REMARK                         _______ _______ _______ _____ _____    ______ ____
ROOT
ATOM      1  C   UNL     1       4.233   4.915  16.744  0.00  0.00    +0.000 A 
ATOM      2  C   UNL     1       3.544   3.702  16.904  0.00  0.00    +0.000 A 
ATOM      3  C   UNL     1       2.373   3.637  17.650  0.00  0.00    +0.000 A 
ATOM      4  C   UNL     1       1.884   4.777  18.278  0.00  0.00    +0.000 A 
ATOM      5  C   UNL     1       2.553   6.001  18.180  0.00  0.00    +0.000 A 
ATOM      6  C   UNL     1       3.708   6.068  17.383  0.00  0.00    +0.000 A 
ENDROOT
BRANCH   5   7
ATOM      7  N   UNL     1       2.093   7.168  18.845  0.00  0.00    +0.000 N 
ATOM      8  C   UNL     1       1.782   7.238  20.195  0.00  0.00    +0.000 C 
ATOM      9  O   UNL     1       1.974   6.336  21.010  0.00  0.00    +0.000 OA
ATOM     10  H   UNL     1       2.047   8.035  18.312  0.00  0.00    +0.000 HD
BRANCH   8  11
ATOM     11  C   UNL     1       1.191   8.492  20.731  0.00  0.00    +0.000 A 
ATOM     12  C   UNL     1       0.653   8.446  22.038  0.00  0.00    +0.000 A 
ATOM     13  C   UNL     1       0.037   9.549  22.613  0.00  0.00    +0.000 A 
ATOM     14  C   UNL     1      -0.062  10.740  21.902  0.00  0.00    +0.000 A 
ATOM     15  C   UNL     1       0.482  10.796  20.605  0.00  0.00    +0.000 A 
ATOM     16  S   UNL     1       0.497  12.136  19.519  0.00  0.00    +0.000 S 
ATOM     17  C   UNL     1       1.322  11.183  18.366  0.00  0.00    +0.000 A 
ATOM     18  N   UNL     1       1.598   9.945  18.712  0.00  0.00    +0.000 NA
ATOM     19  C   UNL     1       1.114   9.699  20.000  0.00  0.00    +0.000 A 
ENDBRANCH   8  11
ENDBRANCH   5   7
BRANCH   1  21
ATOM     20  C   UNL     1       5.567   4.037  14.727  0.00  0.00    +0.000 C 
ATOM     21  C   UNL     1       5.527   5.004  15.924  0.00  0.00    +0.000 C 
BRANCH  21  22
ATOM     22  S   UNL     1       6.963   4.681  17.029  0.00  0.00    +0.000 S 
BRANCH  22  23
ATOM     23  C   UNL     1       7.457   6.271  17.484  0.00  0.00    +0.000 A 
ATOM     24  N   UNL     1       7.438   7.361  16.753  0.00  0.00    +0.000 NA
ATOM     25  N   UNL     1       7.974   8.382  17.511  0.00  0.00    +0.000 NA
ATOM     26  C   UNL     1       8.286   7.883  18.687  0.00  0.00    +0.000 A 
ATOM     27  N   UNL     1       7.962   6.560  18.718  0.00  0.00    +0.000 N 
ATOM     28  C   UNL     1       8.139   5.669  19.833  0.00  0.00    +0.000 C 
ENDBRANCH  22  23
ENDBRANCH  21  22
ENDBRANCH   1  21
TORSDOF 5
ENDMDL
MODEL 2
REMARK VINA RESULT:      -7.6      3.278      8.755
REMARK  Name = 
REMARK  7 active torsions:
REMARK  status: ('A' for Active; 'I' for Inactive)
REMARK    1  A    between atoms: C_1  and  C_2
REMARK    2  A    between atoms: C_2  and  S_3
REMARK    3  A    between atoms: C_2  and  C_10
REMARK    4  A    between atoms: S_3  and  C_4
REMARK    5  A    between atoms: N_8  and  C_9
REMARK    6  A    between atoms: C_14  and  N_15
REMARK    7  A    between atoms: C_16  and  C_18
REMARK                            x       y       z     vdW  Elec       q    Type
REMARK                         _______ _______ _______ _____ _____    ______ ____
ROOT
ATOM      1  C   UNL     1      -0.129  11.034  20.748  0.00  0.00    +0.000 A 
ATOM      2  C   UNL     1      -0.623  11.027  22.062  0.00  0.00    +0.000 A 
ATOM      3  C   UNL     1      -0.296  10.003  22.944  0.00  0.00    +0.000 A 
ATOM      4  C   UNL     1       0.505   8.949  22.519  0.00  0.00    +0.000 A 
ATOM      5  C   UNL     1       0.992   8.891  21.210  0.00  0.00    +0.000 A 
ATOM      6  C   UNL     1       0.698   9.956  20.341  0.00  0.00    +0.000 A 
ENDROOT
BRANCH   5   7
ATOM      7  N   UNL     1       1.778   7.805  20.744  0.00  0.00    +0.000 N 
ATOM      8  C   UNL     1       2.159   7.613  19.423  0.00  0.00    +0.000 C 
ATOM      9  O   UNL     1       1.965   8.415  18.511  0.00  0.00    +0.000 OA
ATOM     10  H   UNL     1       2.145   7.151  21.433  0.00  0.00    +0.000 HD
BRANCH   8  11
ATOM     11  C   UNL     1       2.875   6.363  19.057  0.00  0.00    +0.000 A 
ATOM     12  C   UNL     1       3.669   6.392  17.888  0.00  0.00    +0.000 A 
ATOM     13  C   UNL     1       4.341   5.266  17.434  0.00  0.00    +0.000 A 
ATOM     14  C   UNL     1       4.245   4.068  18.135  0.00  0.00    +0.000 A 
ATOM     15  C   UNL     1       3.466   4.037  19.307  0.00  0.00    +0.000 A 
ATOM     16  S   UNL     1       3.184   2.696  20.355  0.00  0.00    +0.000 S 
ATOM     17  C   UNL     1       2.204   3.685  21.345  0.00  0.00    +0.000 A 
ATOM     18  N   UNL     1       2.064   4.939  20.972  0.00  0.00    +0.000 NA
ATOM     19  C   UNL     1       2.779   5.160  19.792  0.00  0.00    +0.000 A 
ENDBRANCH   8  11
ENDBRANCH   5   7
BRANCH   1  21
ATOM     20  C   UNL     1       0.049  13.539  20.188  0.00  0.00    +0.000 C 
ATOM     21  C   UNL     1      -0.479  12.158  19.763  0.00  0.00    +0.000 C 
BRANCH  21  22
ATOM     22  S   UNL     1      -2.307  12.231  19.560  0.00  0.00    +0.000 S 
BRANCH  22  23
ATOM     23  C   UNL     1      -2.565  11.330  18.110  0.00  0.00    +0.000 A 
ATOM     24  N   UNL     1      -1.692  10.612  17.442  0.00  0.00    +0.000 NA
ATOM     25  N   UNL     1      -2.327  10.117  16.322  0.00  0.00    +0.000 NA
ATOM     26  C   UNL     1      -3.573  10.537  16.354  0.00  0.00    +0.000 A 
ATOM     27  N   UNL     1      -3.769  11.291  17.471  0.00  0.00    +0.000 N 
ATOM     28  C   UNL     1      -5.002  11.916  17.868  0.00  0.00    +0.000 C 
ENDBRANCH  22  23
ENDBRANCH  21  22
ENDBRANCH   1  21
TORSDOF 5
ENDMDL
MODEL 3
REMARK VINA RESULT:      -7.6      2.970      8.970
REMARK  Name = 
REMARK  7 active torsions:
REMARK  status: ('A' for Active; 'I' for Inactive)
REMARK    1  A    between atoms: C_1  and  C_2
REMARK    2  A    between atoms: C_2  and  S_3
REMARK    3  A    between atoms: C_2  and  C_10
REMARK    4  A    between atoms: S_3  and  C_4
REMARK    5  A    between atoms: N_8  and  C_9
REMARK    6  A    between atoms: C_14  and  N_15
REMARK    7  A    between atoms: C_16  and  C_18
REMARK                            x       y       z     vdW  Elec       q    Type
REMARK                         _______ _______ _______ _____ _____    ______ ____
ROOT
ATOM      1  C   UNL     1      -0.399  11.211  18.789  0.00  0.00    +0.000 A 
ATOM      2  C   UNL     1       0.527  12.260  18.898  0.00  0.00    +0.000 A 
ATOM      3  C   UNL     1       1.864  12.071  18.567  0.00  0.00    +0.000 A 
ATOM      4  C   UNL     1       2.308  10.820  18.153  0.00  0.00    +0.000 A 
ATOM      5  C   UNL     1       1.432   9.734  18.063  0.00  0.00    +0.000 A 
ATOM      6  C   UNL     1       0.074   9.947  18.350  0.00  0.00    +0.000 A 
ENDROOT
BRANCH   5   7
ATOM      7  N   UNL     1       1.872   8.439  17.680  0.00  0.00    +0.000 N 
ATOM      8  C   UNL     1       2.278   7.449  18.563  0.00  0.00    +0.000 C 
ATOM      9  O   UNL     1       2.200   7.522  19.789  0.00  0.00    +0.000 OA
ATOM     10  H   UNL     1       1.827   8.193  16.693  0.00  0.00    +0.000 HD
BRANCH   8  11
ATOM     11  C   UNL     1       2.834   6.184  18.016  0.00  0.00    +0.000 A 
ATOM     12  C   UNL     1       1.999   5.043  18.049  0.00  0.00    +0.000 A 
ATOM     13  C   UNL     1       2.439   3.804  17.606  0.00  0.00    +0.000 A 
ATOM     14  C   UNL     1       3.731   3.660  17.110  0.00  0.00    +0.000 A 
ATOM     15  C   UNL     1       4.562   4.795  17.062  0.00  0.00    +0.000 A 
ATOM     16  S   UNL     1       6.189   4.893  16.497  0.00  0.00    +0.000 S 
ATOM     17  C   UNL     1       6.208   6.562  16.863  0.00  0.00    +0.000 A 
ATOM     18  N   UNL     1       5.104   7.068  17.369  0.00  0.00    +0.000 NA
ATOM     19  C   UNL     1       4.144   6.061  17.500  0.00  0.00    +0.000 A 
ENDBRANCH   8  11
ENDBRANCH   5   7
BRANCH   1  21
ATOM     20  C   UNL     1      -2.831  11.256  17.948  0.00  0.00    +0.000 C 
ATOM     21  C   UNL     1      -1.879  11.404  19.148  0.00  0.00    +0.000 C 
BRANCH  21  22
ATOM     22  S   UNL     1      -2.101  13.064  19.912  0.00  0.00    +0.000 S 
BRANCH  22  23
ATOM     23  C   UNL     1      -2.904  12.695  21.395  0.00  0.00    +0.000 A 
ATOM     24  N   UNL     1      -4.191  12.749  21.649  0.00  0.00    +0.000 NA
ATOM     25  N   UNL     1      -4.369  12.421  22.978  0.00  0.00    +0.000 NA
ATOM     26  C   UNL     1      -3.184  12.162  23.485  0.00  0.00    +0.000 A 
ATOM     27  N   UNL     1      -2.235  12.307  22.518  0.00  0.00    +0.000 N 
ATOM     28  C   UNL     1      -0.821  12.098  22.678  0.00  0.00    +0.000 C 
ENDBRANCH  22  23
ENDBRANCH  21  22
ENDBRANCH   1  21
TORSDOF 5
ENDMDL
MODEL 4
REMARK VINA RESULT:      -7.5      2.125      2.950
REMARK  Name = 
REMARK  7 active torsions:
REMARK  status: ('A' for Active; 'I' for Inactive)
REMARK    1  A    between atoms: C_1  and  C_2
REMARK    2  A    between atoms: C_2  and  S_3
REMARK    3  A    between atoms: C_2  and  C_10
REMARK    4  A    between atoms: S_3  and  C_4
REMARK    5  A    between atoms: N_8  and  C_9
REMARK    6  A    between atoms: C_14  and  N_15
REMARK    7  A    between atoms: C_16  and  C_18
REMARK                            x       y       z     vdW  Elec       q    Type
REMARK                         _______ _______ _______ _____ _____    ______ ____
ROOT
ATOM      1  C   UNL     1       4.148   5.132  18.480  0.00  0.00    +0.000 A 
ATOM      2  C   UNL     1       4.029   3.823  18.973  0.00  0.00    +0.000 A 
ATOM      3  C   UNL     1       3.135   3.521  19.993  0.00  0.00    +0.000 A 
ATOM      4  C   UNL     1       2.365   4.528  20.564  0.00  0.00    +0.000 A 
ATOM      5  C   UNL     1       2.474   5.854  20.134  0.00  0.00    +0.000 A 
ATOM      6  C   UNL     1       3.343   6.141  19.068  0.00  0.00    +0.000 A 
ENDROOT
BRANCH   5   7
ATOM      7  N   UNL     1       1.726   6.905  20.729  0.00  0.00    +0.000 N 
ATOM      8  C   UNL     1       1.530   8.156  20.163  0.00  0.00    +0.000 C 
ATOM      9  O   UNL     1       1.877   8.476  19.026  0.00  0.00    +0.000 OA
ATOM     10  H   UNL     1       1.245   6.711  21.606  0.00  0.00    +0.000 HD
BRANCH   8  11
ATOM     11  C   UNL     1       0.833   9.202  20.955  0.00  0.00    +0.000 A 
ATOM     12  C   UNL     1       0.431   8.858  22.266  0.00  0.00    +0.000 A 
ATOM     13  C   UNL     1      -0.267   9.747  23.072  0.00  0.00    +0.000 A 
ATOM     14  C   UNL     1      -0.587  11.015  22.596  0.00  0.00    +0.000 A 
ATOM     15  C   UNL     1      -0.177  11.367  21.296  0.00  0.00    +0.000 A 
ATOM     16  S   UNL     1      -0.439  12.859  20.471  0.00  0.00    +0.000 S 
ATOM     17  C   UNL     1       0.391  12.244  19.110  0.00  0.00    +0.000 A 
ATOM     18  N   UNL     1       0.858  11.018  19.208  0.00  0.00    +0.000 NA
ATOM     19  C   UNL     1       0.532  10.491  20.460  0.00  0.00    +0.000 A 
ENDBRANCH   8  11
ENDBRANCH   5   7
BRANCH   1  21
ATOM     20  C   UNL     1       4.735   6.737  16.557  0.00  0.00    +0.000 C 
ATOM     21  C   UNL     1       5.130   5.481  17.353  0.00  0.00    +0.000 C 
BRANCH  21  22
ATOM     22  S   UNL     1       5.271   4.044  16.211  0.00  0.00    +0.000 S 
BRANCH  22  23
ATOM     23  C   UNL     1       6.445   4.583  15.066  0.00  0.00    +0.000 A 
ATOM     24  N   UNL     1       7.499   5.333  15.286  0.00  0.00    +0.000 NA
ATOM     25  N   UNL     1       8.117   5.553  14.071  0.00  0.00    +0.000 NA
ATOM     26  C   UNL     1       7.427   4.914  13.153  0.00  0.00    +0.000 A 
ATOM     27  N   UNL     1       6.374   4.276  13.739  0.00  0.00    +0.000 N 
ATOM     28  C   UNL     1       5.396   3.462  13.069  0.00  0.00    +0.000 C 
ENDBRANCH  22  23
ENDBRANCH  21  22
ENDBRANCH   1  21
TORSDOF 5
ENDMDL
MODEL 5
REMARK VINA RESULT:      -7.5      2.835      8.719
REMARK  Name = 
REMARK  7 active torsions:
REMARK  status: ('A' for Active; 'I' for Inactive)
REMARK    1  A    between atoms: C_1  and  C_2
REMARK    2  A    between atoms: C_2  and  S_3
REMARK    3  A    between atoms: C_2  and  C_10
REMARK    4  A    between atoms: S_3  and  C_4
REMARK    5  A    between atoms: N_8  and  C_9
REMARK    6  A    between atoms: C_14  and  N_15
REMARK    7  A    between atoms: C_16  and  C_18
REMARK                            x       y       z     vdW  Elec       q    Type
REMARK                         _______ _______ _______ _____ _____    ______ ____
ROOT
ATOM      1  C   UNL     1       0.260  10.615  20.017  0.00  0.00    +0.000 A 
ATOM      2  C   UNL     1      -0.017  10.622  21.394  0.00  0.00    +0.000 A 
ATOM      3  C   UNL     1       0.446   9.607  22.222  0.00  0.00    +0.000 A 
ATOM      4  C   UNL     1       1.168   8.546  21.685  0.00  0.00    +0.000 A 
ATOM      5  C   UNL     1       1.438   8.474  20.316  0.00  0.00    +0.000 A 
ATOM      6  C   UNL     1       1.010   9.530  19.494  0.00  0.00    +0.000 A 
ENDROOT
BRANCH   5   7
ATOM      7  N   UNL     1       2.139   7.380  19.741  0.00  0.00    +0.000 N 
ATOM      8  C   UNL     1       2.464   7.268  18.397  0.00  0.00    +0.000 C 
ATOM      9  O   UNL     1       2.292   8.148  17.555  0.00  0.00    +0.000 OA
ATOM     10  H   UNL     1       2.485   6.654  20.366  0.00  0.00    +0.000 HD
BRANCH   8  11
ATOM     11  C   UNL     1       3.087   6.009  17.912  0.00  0.00    +0.000 A 
ATOM     12  C   UNL     1       2.275   4.852  17.890  0.00  0.00    +0.000 A 
ATOM     13  C   UNL     1       2.774   3.617  17.500  0.00  0.00    +0.000 A 
ATOM     14  C   UNL     1       4.104   3.495  17.113  0.00  0.00    +0.000 A 
ATOM     15  C   UNL     1       4.915   4.646  17.120  0.00  0.00    +0.000 A 
ATOM     16  S   UNL     1       6.580   4.771  16.691  0.00  0.00    +0.000 S 
ATOM     17  C   UNL     1       6.537   6.443  17.036  0.00  0.00    +0.000 A 
ATOM     18  N   UNL     1       5.386   6.932  17.444  0.00  0.00    +0.000 NA
ATOM     19  C   UNL     1       4.437   5.907  17.507  0.00  0.00    +0.000 A 
ENDBRANCH   8  11
ENDBRANCH   5   7
BRANCH   1  21
ATOM     20  C   UNL     1       0.490  13.069  19.279  0.00  0.00    +0.000 C 
ATOM     21  C   UNL     1      -0.243  11.729  19.090  0.00  0.00    +0.000 C 
BRANCH  21  22
ATOM     22  S   UNL     1      -2.048  11.968  19.360  0.00  0.00    +0.000 S 
BRANCH  22  23
ATOM     23  C   UNL     1      -2.728  11.458  17.858  0.00  0.00    +0.000 A 
ATOM     24  N   UNL     1      -2.102  10.958  16.819  0.00  0.00    +0.000 NA
ATOM     25  N   UNL     1      -3.039  10.747  15.828  0.00  0.00    +0.000 NA
ATOM     26  C   UNL     1      -4.209  11.111  16.303  0.00  0.00    +0.000 A 
ATOM     27  N   UNL     1      -4.062  11.550  17.584  0.00  0.00    +0.000 N 
ATOM     28  C   UNL     1      -5.112  12.021  18.447  0.00  0.00    +0.000 C 
ENDBRANCH  22  23
ENDBRANCH  21  22
ENDBRANCH   1  21
TORSDOF 5
ENDMDL
MODEL 6
REMARK VINA RESULT:      -7.5      1.940      2.787
REMARK  Name = 
REMARK  7 active torsions:
REMARK  status: ('A' for Active; 'I' for Inactive)
REMARK    1  A    between atoms: C_1  and  C_2
REMARK    2  A    between atoms: C_2  and  S_3
REMARK    3  A    between atoms: C_2  and  C_10
REMARK    4  A    between atoms: S_3  and  C_4
REMARK    5  A    between atoms: N_8  and  C_9
REMARK    6  A    between atoms: C_14  and  N_15
REMARK    7  A    between atoms: C_16  and  C_18
REMARK                            x       y       z     vdW  Elec       q    Type
REMARK                         _______ _______ _______ _____ _____    ______ ____
ROOT
ATOM      1  C   UNL     1       2.762   5.632  18.766  0.00  0.00    +0.000 A 
ATOM      2  C   UNL     1       2.436   4.543  19.590  0.00  0.00    +0.000 A 
ATOM      3  C   UNL     1       1.734   4.727  20.775  0.00  0.00    +0.000 A 
ATOM      4  C   UNL     1       1.372   6.008  21.177  0.00  0.00    +0.000 A 
ATOM      5  C   UNL     1       1.705   7.129  20.411  0.00  0.00    +0.000 A 
ATOM      6  C   UNL     1       2.370   6.928  19.189  0.00  0.00    +0.000 A 
ENDROOT
BRANCH   5   7
ATOM      7  N   UNL     1       1.381   8.449  20.822  0.00  0.00    +0.000 N 
ATOM      8  C   UNL     1       0.164   8.831  21.368  0.00  0.00    +0.000 C 
ATOM      9  O   UNL     1      -0.744   8.058  21.674  0.00  0.00    +0.000 OA
ATOM     10  H   UNL     1       2.111   9.157  20.773  0.00  0.00    +0.000 HD
BRANCH   8  11
ATOM     11  C   UNL     1      -0.082  10.272  21.635  0.00  0.00    +0.000 A 
ATOM     12  C   UNL     1      -0.875  10.595  22.760  0.00  0.00    +0.000 A 
ATOM     13  C   UNL     1      -1.203  11.908  23.069  0.00  0.00    +0.000 A 
ATOM     14  C   UNL     1      -0.746  12.947  22.265  0.00  0.00    +0.000 A 
ATOM     15  C   UNL     1       0.054  12.632  21.151  0.00  0.00    +0.000 A 
ATOM     16  S   UNL     1       0.745  13.719  20.003  0.00  0.00    +0.000 S 
ATOM     17  C   UNL     1       1.439  12.394  19.178  0.00  0.00    +0.000 A 
ATOM     18  N   UNL     1       1.210  11.200  19.679  0.00  0.00    +0.000 NA
ATOM     19  C   UNL     1       0.404  11.316  20.815  0.00  0.00    +0.000 A 
ENDBRANCH   8  11
ENDBRANCH   5   7
BRANCH   1  21
ATOM     20  C   UNL     1       3.906   3.981  17.159  0.00  0.00    +0.000 C 
ATOM     21  C   UNL     1       3.535   5.445  17.454  0.00  0.00    +0.000 C 
BRANCH  21  22
ATOM     22  S   UNL     1       5.062   6.471  17.504  0.00  0.00    +0.000 S 
BRANCH  22  23
ATOM     23  C   UNL     1       5.980   5.852  16.179  0.00  0.00    +0.000 A 
ATOM     24  N   UNL     1       5.779   6.052  14.898  0.00  0.00    +0.000 NA
ATOM     25  N   UNL     1       6.723   5.319  14.208  0.00  0.00    +0.000 NA
ATOM     26  C   UNL     1       7.479   4.710  15.094  0.00  0.00    +0.000 A 
ATOM     27  N   UNL     1       7.056   5.031  16.349  0.00  0.00    +0.000 N 
ATOM     28  C   UNL     1       7.635   4.574  17.583  0.00  0.00    +0.000 C 
ENDBRANCH  22  23
ENDBRANCH  21  22
ENDBRANCH   1  21
TORSDOF 5
ENDMDL
MODEL 7
REMARK VINA RESULT:      -7.4      3.039      8.642
REMARK  Name = 
REMARK  7 active torsions:
REMARK  status: ('A' for Active; 'I' for Inactive)
REMARK    1  A    between atoms: C_1  and  C_2
REMARK    2  A    between atoms: C_2  and  S_3
REMARK    3  A    between atoms: C_2  and  C_10
REMARK    4  A    between atoms: S_3  and  C_4
REMARK    5  A    between atoms: N_8  and  C_9
REMARK    6  A    between atoms: C_14  and  N_15
REMARK    7  A    between atoms: C_16  and  C_18
REMARK                            x       y       z     vdW  Elec       q    Type
REMARK                         _______ _______ _______ _____ _____    ______ ____
ROOT
ATOM      1  C   UNL     1       0.231  10.530  20.057  0.00  0.00    +0.000 A 
ATOM      2  C   UNL     1      -0.121  10.680  21.408  0.00  0.00    +0.000 A 
ATOM      3  C   UNL     1       0.329   9.782  22.369  0.00  0.00    +0.000 A 
ATOM      4  C   UNL     1       1.112   8.697  21.993  0.00  0.00    +0.000 A 
ATOM      5  C   UNL     1       1.459   8.481  20.656  0.00  0.00    +0.000 A 
ATOM      6  C   UNL     1       1.043   9.422  19.699  0.00  0.00    +0.000 A 
ENDROOT
BRANCH   5   7
ATOM      7  N   UNL     1       2.224   7.358  20.246  0.00  0.00    +0.000 N 
ATOM      8  C   UNL     1       1.817   6.037  20.366  0.00  0.00    +0.000 C 
ATOM      9  O   UNL     1       0.700   5.675  20.733  0.00  0.00    +0.000 OA
ATOM     10  H   UNL     1       3.109   7.531  19.771  0.00  0.00    +0.000 HD
BRANCH   8  11
ATOM     11  C   UNL     1       2.774   4.956  20.011  0.00  0.00    +0.000 A 
ATOM     12  C   UNL     1       2.581   3.696  20.622  0.00  0.00    +0.000 A 
ATOM     13  C   UNL     1       3.446   2.635  20.395  0.00  0.00    +0.000 A 
ATOM     14  C   UNL     1       4.535   2.794  19.544  0.00  0.00    +0.000 A 
ATOM     15  C   UNL     1       4.725   4.043  18.923  0.00  0.00    +0.000 A 
ATOM     16  S   UNL     1       5.980   4.503  17.834  0.00  0.00    +0.000 S 
ATOM     17  C   UNL     1       5.301   6.067  17.723  0.00  0.00    +0.000 A 
ATOM     18  N   UNL     1       4.211   6.288  18.424  0.00  0.00    +0.000 NA
ATOM     19  C   UNL     1       3.866   5.132  19.131  0.00  0.00    +0.000 A 
ENDBRANCH   8  11
ENDBRANCH   5   7
BRANCH   1  21
ATOM     20  C   UNL     1       0.606  12.783  18.873  0.00  0.00    +0.000 C 
ATOM     21  C   UNL     1      -0.256  11.513  18.984  0.00  0.00    +0.000 C 
BRANCH  21  22
ATOM     22  S   UNL     1      -2.000  11.980  19.343  0.00  0.00    +0.000 S 
BRANCH  22  23
ATOM     23  C   UNL     1      -2.816  11.548  17.884  0.00  0.00    +0.000 A 
ATOM     24  N   UNL     1      -2.287  11.130  16.758  0.00  0.00    +0.000 NA
ATOM     25  N   UNL     1      -3.314  10.958  15.852  0.00  0.00    +0.000 NA
ATOM     26  C   UNL     1      -4.437  11.262  16.462  0.00  0.00    +0.000 A 
ATOM     27  N   UNL     1      -4.172  11.623  17.749  0.00  0.00    +0.000 N 
ATOM     28  C   UNL     1      -5.140  12.012  18.739  0.00  0.00    +0.000 C 
ENDBRANCH  22  23
ENDBRANCH  21  22
ENDBRANCH   1  21
TORSDOF 5
ENDMDL
MODEL 8
REMARK VINA RESULT:      -7.4      2.185      3.007
REMARK  Name = 
REMARK  7 active torsions:
REMARK  status: ('A' for Active; 'I' for Inactive)
REMARK    1  A    between atoms: C_1  and  C_2
REMARK    2  A    between atoms: C_2  and  S_3
REMARK    3  A    between atoms: C_2  and  C_10
REMARK    4  A    between atoms: S_3  and  C_4
REMARK    5  A    between atoms: N_8  and  C_9
REMARK    6  A    between atoms: C_14  and  N_15
REMARK    7  A    between atoms: C_16  and  C_18
REMARK                            x       y       z     vdW  Elec       q    Type
REMARK                         _______ _______ _______ _____ _____    ______ ____
ROOT
ATOM      1  C   UNL     1       4.162   4.941  17.309  0.00  0.00    +0.000 A 
ATOM      2  C   UNL     1       3.728   3.607  17.361  0.00  0.00    +0.000 A 
ATOM      3  C   UNL     1       2.604   3.248  18.095  0.00  0.00    +0.000 A 
ATOM      4  C   UNL     1       1.909   4.211  18.818  0.00  0.00    +0.000 A 
ATOM      5  C   UNL     1       2.322   5.547  18.829  0.00  0.00    +0.000 A 
ATOM      6  C   UNL     1       3.429   5.909  18.044  0.00  0.00    +0.000 A 
ENDROOT
BRANCH   5   7
ATOM      7  N   UNL     1       1.651   6.539  19.592  0.00  0.00    +0.000 N 
ATOM      8  C   UNL     1       1.777   7.906  19.397  0.00  0.00    +0.000 C 
ATOM      9  O   UNL     1       2.390   8.432  18.469  0.00  0.00    +0.000 OA
ATOM     10  H   UNL     1       0.980   6.229  20.293  0.00  0.00    +0.000 HD
BRANCH   8  11
ATOM     11  C   UNL     1       1.114   8.832  20.353  0.00  0.00    +0.000 A 
ATOM     12  C   UNL     1       1.340   8.609  21.730  0.00  0.00    +0.000 A 
ATOM     13  C   UNL     1       0.731   9.388  22.705  0.00  0.00    +0.000 A 
ATOM     14  C   UNL     1      -0.125  10.420  22.336  0.00  0.00    +0.000 A 
ATOM     15  C   UNL     1      -0.344  10.655  20.966  0.00  0.00    +0.000 A 
ATOM     16  S   UNL     1      -1.346  11.859  20.245  0.00  0.00    +0.000 S 
ATOM     17  C   UNL     1      -0.908  11.286  18.696  0.00  0.00    +0.000 A 
ATOM     18  N   UNL     1      -0.071  10.272  18.657  0.00  0.00    +0.000 NA
ATOM     19  C   UNL     1       0.260   9.887  19.959  0.00  0.00    +0.000 A 
ENDBRANCH   8  11
ENDBRANCH   5   7
BRANCH   1  21
ATOM     20  C   UNL     1       5.137   6.498  15.508  0.00  0.00    +0.000 C 
ATOM     21  C   UNL     1       5.401   5.354  16.503  0.00  0.00    +0.000 C 
BRANCH  21  22
ATOM     22  S   UNL     1       6.047   3.886  15.600  0.00  0.00    +0.000 S 
BRANCH  22  23
ATOM     23  C   UNL     1       6.955   4.599  14.316  0.00  0.00    +0.000 A 
ATOM     24  N   UNL     1       7.910   5.494  14.406  0.00  0.00    +0.000 NA
ATOM     25  N   UNL     1       8.309   5.811  13.123  0.00  0.00    +0.000 NA
ATOM     26  C   UNL     1       7.594   5.083  12.294  0.00  0.00    +0.000 A 
ATOM     27  N   UNL     1       6.739   4.294  13.004  0.00  0.00    +0.000 N 
ATOM     28  C   UNL     1       5.803   3.350  12.457  0.00  0.00    +0.000 C 
ENDBRANCH  22  23
ENDBRANCH  21  22
ENDBRANCH   1  21
TORSDOF 5
ENDMDL
MODEL 9
REMARK VINA RESULT:      -7.4      3.203      9.268
REMARK  Name = 
REMARK  7 active torsions:
REMARK  status: ('A' for Active; 'I' for Inactive)
REMARK    1  A    between atoms: C_1  and  C_2
REMARK    2  A    between atoms: C_2  and  S_3
REMARK    3  A    between atoms: C_2  and  C_10
REMARK    4  A    between atoms: S_3  and  C_4
REMARK    5  A    between atoms: N_8  and  C_9
REMARK    6  A    between atoms: C_14  and  N_15
REMARK    7  A    between atoms: C_16  and  C_18
REMARK                            x       y       z     vdW  Elec       q    Type
REMARK                         _______ _______ _______ _____ _____    ______ ____
ROOT
ATOM      1  C   UNL     1      -0.201  11.325  18.939  0.00  0.00    +0.000 A 
ATOM      2  C   UNL     1       0.739  12.368  18.910  0.00  0.00    +0.000 A 
ATOM      3  C   UNL     1       2.031  12.154  18.447  0.00  0.00    +0.000 A 
ATOM      4  C   UNL     1       2.421  10.884  18.034  0.00  0.00    +0.000 A 
ATOM      5  C   UNL     1       1.534   9.805  18.077  0.00  0.00    +0.000 A 
ATOM      6  C   UNL     1       0.215  10.041  18.499  0.00  0.00    +0.000 A 
ENDROOT
BRANCH   5   7
ATOM      7  N   UNL     1       1.922   8.493  17.697  0.00  0.00    +0.000 N 
ATOM      8  C   UNL     1       2.265   7.481  18.583  0.00  0.00    +0.000 C 
ATOM      9  O   UNL     1       2.165   7.554  19.808  0.00  0.00    +0.000 OA
ATOM     10  H   UNL     1       1.887   8.252  16.708  0.00  0.00    +0.000 HD
BRANCH   8  11
ATOM     11  C   UNL     1       2.774   6.195  18.042  0.00  0.00    +0.000 A 
ATOM     12  C   UNL     1       1.923   5.070  18.141  0.00  0.00    +0.000 A 
ATOM     13  C   UNL     1       2.322   3.813  17.708  0.00  0.00    +0.000 A 
ATOM     14  C   UNL     1       3.587   3.635  17.156  0.00  0.00    +0.000 A 
ATOM     15  C   UNL     1       4.433   4.754  17.043  0.00  0.00    +0.000 A 
ATOM     16  S   UNL     1       6.033   4.811  16.402  0.00  0.00    +0.000 S 
ATOM     17  C   UNL     1       6.096   6.487  16.726  0.00  0.00    +0.000 A 
ATOM     18  N   UNL     1       5.026   7.024  17.270  0.00  0.00    +0.000 NA
ATOM     19  C   UNL     1       4.056   6.037  17.469  0.00  0.00    +0.000 A 
ENDBRANCH   8  11
ENDBRANCH   5   7
BRANCH   1  21
ATOM     20  C   UNL     1      -2.699  11.471  18.339  0.00  0.00    +0.000 C 
ATOM     21  C   UNL     1      -1.632  11.545  19.446  0.00  0.00    +0.000 C 
BRANCH  21  22
ATOM     22  S   UNL     1      -1.728  13.180  20.287  0.00  0.00    +0.000 S 
BRANCH  22  23
ATOM     23  C   UNL     1      -2.773  12.859  21.623  0.00  0.00    +0.000 A 
ATOM     24  N   UNL     1      -2.503  12.174  22.710  0.00  0.00    +0.000 NA
ATOM     25  N   UNL     1      -3.652  12.133  23.474  0.00  0.00    +0.000 NA
ATOM     26  C   UNL     1      -4.579  12.810  22.834  0.00  0.00    +0.000 A 
ATOM     27  N   UNL     1      -4.063  13.298  21.671  0.00  0.00    +0.000 N 
ATOM     28  C   UNL     1      -4.762  14.099  20.702  0.00  0.00    +0.000 C 
ENDBRANCH  22  23
ENDBRANCH  21  22
ENDBRANCH   1  21
TORSDOF 5
ENDMDL
