MODEL 1
REMARK VINA RESULT:      -9.3      0.000      0.000
REMARK  Name = 
REMARK  8 active torsions:
REMARK  status: ('A' for Active; 'I' for Inactive)
REMARK    1  A    between atoms: C_1  and  C_2
REMARK    2  A    between atoms: C_2  and  C_3
REMARK    3  A    between atoms: C_2  and  C_10
REMARK    4  A    between atoms: C_3  and  C_4
REMARK    5  A    between atoms: N_8  and  C_9
REMARK    6  A    between atoms: C_14  and  N_15
REMARK    7  A    between atoms: C_20  and  N_21
REMARK    8  A    between atoms: C_27  and  C_28
REMARK                            x       y       z     vdW  Elec       q    Type
REMARK                         _______ _______ _______ _____ _____    ______ ____
ROOT
ATOM      1  N   UNL     1       1.964   7.788  19.442  0.00  0.00    +0.000 N 
ATOM      2  C   UNL     1       1.286   8.073  20.690  0.00  0.00    +0.000 C 
ATOM      3  C   UNL     1       0.798   9.457  20.537  0.00  0.00    +0.000 A 
ATOM      4  C   UNL     1       1.151   9.949  19.284  0.00  0.00    +0.000 A 
ATOM      5  C   UNL     1       0.844  11.251  18.919  0.00  0.00    +0.000 A 
ATOM      6  C   UNL     1       0.193  12.057  19.877  0.00  0.00    +0.000 A 
ATOM      7  C   UNL     1      -0.161  11.531  21.146  0.00  0.00    +0.000 A 
ATOM      8  C   UNL     1       0.124  10.209  21.491  0.00  0.00    +0.000 A 
ATOM      9  C   UNL     1       1.899   8.876  18.558  0.00  0.00    +0.000 C 
ATOM     10  O   UNL     1       2.334   9.008  17.432  0.00  0.00    +0.000 OA
ENDROOT
BRANCH   1  15
ATOM     11  C   UNL     1       4.192   5.172  17.956  0.00  0.00    +0.000 A 
ATOM     12  C   UNL     1       3.969   4.105  18.828  0.00  0.00    +0.000 A 
ATOM     13  C   UNL     1       3.039   4.221  19.873  0.00  0.00    +0.000 A 
ATOM     14  C   UNL     1       2.338   5.419  20.093  0.00  0.00    +0.000 A 
ATOM     15  C   UNL     1       2.594   6.522  19.290  0.00  0.00    +0.000 A 
ATOM     16  C   UNL     1       3.527   6.366  18.241  0.00  0.00    +0.000 A 
BRANCH  11  18
ATOM     17  C   UNL     1       4.699   3.909  15.733  0.00  0.00    +0.000 C 
ATOM     18  C   UNL     1       5.075   5.043  16.715  0.00  0.00    +0.000 C 
BRANCH  18  19
ATOM     19  C   UNL     1       6.575   4.941  17.082  0.00  0.00    +0.000 C 
BRANCH  19  20
ATOM     20  C   UNL     1       7.207   6.248  17.445  0.00  0.00    +0.000 A 
ATOM     21  N   UNL     1       7.215   7.345  16.713  0.00  0.00    +0.000 NA
ATOM     22  N   UNL     1       7.864   8.332  17.416  0.00  0.00    +0.000 NA
ATOM     23  C   UNL     1       8.222   7.823  18.569  0.00  0.00    +0.000 A 
ATOM     24  N   UNL     1       7.845   6.518  18.627  0.00  0.00    +0.000 N 
ATOM     25  C   UNL     1       8.058   5.630  19.737  0.00  0.00    +0.000 C 
ENDBRANCH  19  20
ENDBRANCH  18  19
ENDBRANCH  11  18
ENDBRANCH   1  15
BRANCH   6  26
ATOM     26  N   UNL     1      -0.092  13.429  19.629  0.00  0.00    +0.000 N 
ATOM     27  C   UNL     1       0.174  14.170  18.500  0.00  0.00    +0.000 A 
ATOM     28  C   UNL     1      -0.206  15.465  18.774  0.00  0.00    +0.000 A 
ATOM     29  C   UNL     1      -0.713  15.420  20.077  0.00  0.00    +0.000 A 
ATOM     30  N   UNL     1      -0.685  14.191  20.587  0.00  0.00    +0.000 NA
ENDBRANCH   6  26
BRANCH   8  31
ATOM     31  C   UNL     1      -0.271   9.649  22.836  0.00  0.00    +0.000 C 
ATOM     32  F   UNL     1      -1.093  10.465  23.550  0.00  0.00    +0.000 F 
ATOM     33  F   UNL     1      -0.927   8.463  22.739  0.00  0.00    +0.000 F 
ATOM     34  F   UNL     1       0.805   9.428  23.640  0.00  0.00    +0.000 F 
ENDBRANCH   8  31
TORSDOF 6
ENDMDL
MODEL 2
REMARK VINA RESULT:      -9.3      3.084      9.007
REMARK  Name = 
REMARK  8 active torsions:
REMARK  status: ('A' for Active; 'I' for Inactive)
REMARK    1  A    between atoms: C_1  and  C_2
REMARK    2  A    between atoms: C_2  and  C_3
REMARK    3  A    between atoms: C_2  and  C_10
REMARK    4  A    between atoms: C_3  and  C_4
REMARK    5  A    between atoms: N_8  and  C_9
REMARK    6  A    between atoms: C_14  and  N_15
REMARK    7  A    between atoms: C_20  and  N_21
REMARK    8  A    between atoms: C_27  and  C_28
REMARK                            x       y       z     vdW  Elec       q    Type
REMARK                         _______ _______ _______ _____ _____    ______ ____
ROOT
ATOM      1  N   UNL     1       1.410   8.477  20.032  0.00  0.00    +0.000 N 
ATOM      2  C   UNL     1       1.530   7.113  20.503  0.00  0.00    +0.000 C 
ATOM      3  C   UNL     1       2.438   6.467  19.536  0.00  0.00    +0.000 A 
ATOM      4  C   UNL     1       2.835   7.387  18.571  0.00  0.00    +0.000 A 
ATOM      5  C   UNL     1       3.657   7.006  17.521  0.00  0.00    +0.000 A 
ATOM      6  C   UNL     1       4.040   5.650  17.456  0.00  0.00    +0.000 A 
ATOM      7  C   UNL     1       3.626   4.731  18.455  0.00  0.00    +0.000 A 
ATOM      8  C   UNL     1       2.826   5.133  19.526  0.00  0.00    +0.000 A 
ATOM      9  C   UNL     1       2.186   8.697  18.884  0.00  0.00    +0.000 C 
ATOM     10  O   UNL     1       2.348   9.701  18.219  0.00  0.00    +0.000 OA
ENDROOT
BRANCH   1  15
ATOM     11  C   UNL     1      -0.991  11.299  20.572  0.00  0.00    +0.000 A 
ATOM     12  C   UNL     1      -1.213  11.201  21.946  0.00  0.00    +0.000 A 
ATOM     13  C   UNL     1      -0.528  10.245  22.712  0.00  0.00    +0.000 A 
ATOM     14  C   UNL     1       0.366   9.341  22.116  0.00  0.00    +0.000 A 
ATOM     15  C   UNL     1       0.552   9.363  20.740  0.00  0.00    +0.000 A 
ATOM     16  C   UNL     1      -0.145  10.346  20.003  0.00  0.00    +0.000 A 
BRANCH  11  18
ATOM     17  C   UNL     1      -1.557  13.833  20.349  0.00  0.00    +0.000 C 
ATOM     18  C   UNL     1      -1.593  12.419  19.724  0.00  0.00    +0.000 C 
BRANCH  18  19
ATOM     19  C   UNL     1      -3.033  12.086  19.265  0.00  0.00    +0.000 C 
BRANCH  19  20
ATOM     20  C   UNL     1      -3.129  11.605  17.851  0.00  0.00    +0.000 A 
ATOM     21  N   UNL     1      -2.122  11.352  17.038  0.00  0.00    +0.000 NA
ATOM     22  N   UNL     1      -2.630  10.896  15.845  0.00  0.00    +0.000 NA
ATOM     23  C   UNL     1      -3.935  10.861  15.960  0.00  0.00    +0.000 A 
ATOM     24  N   UNL     1      -4.295  11.309  17.193  0.00  0.00    +0.000 N 
ATOM     25  C   UNL     1      -5.638  11.410  17.691  0.00  0.00    +0.000 C 
ENDBRANCH  19  20
ENDBRANCH  18  19
ENDBRANCH  11  18
ENDBRANCH   1  15
BRANCH   6  26
ATOM     26  N   UNL     1       4.814   5.143  16.375  0.00  0.00    +0.000 N 
ATOM     27  C   UNL     1       5.164   3.838  16.108  0.00  0.00    +0.000 A 
ATOM     28  C   UNL     1       5.991   3.864  15.007  0.00  0.00    +0.000 A 
ATOM     29  C   UNL     1       6.073   5.216  14.654  0.00  0.00    +0.000 A 
ATOM     30  N   UNL     1       5.337   5.990  15.448  0.00  0.00    +0.000 NA
ENDBRANCH   6  26
BRANCH   8  31
ATOM     31  C   UNL     1       2.402   4.156  20.596  0.00  0.00    +0.000 C 
ATOM     32  F   UNL     1       1.089   3.805  20.529  0.00  0.00    +0.000 F 
ATOM     33  F   UNL     1       3.096   2.989  20.545  0.00  0.00    +0.000 F 
ATOM     34  F   UNL     1       2.579   4.654  21.850  0.00  0.00    +0.000 F 
ENDBRANCH   8  31
TORSDOF 6
ENDMDL
MODEL 3
REMARK VINA RESULT:      -9.2      3.397      9.151
REMARK  Name = 
REMARK  8 active torsions:
REMARK  status: ('A' for Active; 'I' for Inactive)
REMARK    1  A    between atoms: C_1  and  C_2
REMARK    2  A    between atoms: C_2  and  C_3
REMARK    3  A    between atoms: C_2  and  C_10
REMARK    4  A    between atoms: C_3  and  C_4
REMARK    5  A    between atoms: N_8  and  C_9
REMARK    6  A    between atoms: C_14  and  N_15
REMARK    7  A    between atoms: C_20  and  N_21
REMARK    8  A    between atoms: C_27  and  C_28
REMARK                            x       y       z     vdW  Elec       q    Type
REMARK                         _______ _______ _______ _____ _____    ______ ____
ROOT
ATOM      1  N   UNL     1       2.129   7.850  19.214  0.00  0.00    +0.000 N 
ATOM      2  C   UNL     1       2.275   6.447  19.543  0.00  0.00    +0.000 C 
ATOM      3  C   UNL     1       3.203   5.923  18.521  0.00  0.00    +0.000 A 
ATOM      4  C   UNL     1       3.586   6.946  17.659  0.00  0.00    +0.000 A 
ATOM      5  C   UNL     1       4.421   6.693  16.582  0.00  0.00    +0.000 A 
ATOM      6  C   UNL     1       4.835   5.359  16.381  0.00  0.00    +0.000 A 
ATOM      7  C   UNL     1       4.435   4.334  17.277  0.00  0.00    +0.000 A 
ATOM      8  C   UNL     1       3.620   4.607  18.377  0.00  0.00    +0.000 A 
ATOM      9  C   UNL     1       2.906   8.204  18.101  0.00  0.00    +0.000 C 
ATOM     10  O   UNL     1       3.050   9.273  17.544  0.00  0.00    +0.000 OA
ENDROOT
BRANCH   1  15
ATOM     11  C   UNL     1      -0.343  10.544  20.020  0.00  0.00    +0.000 A 
ATOM     12  C   UNL     1      -0.566  10.304  21.376  0.00  0.00    +0.000 A 
ATOM     13  C   UNL     1       0.140   9.294  22.047  0.00  0.00    +0.000 A 
ATOM     14  C   UNL     1       1.059   8.476  21.368  0.00  0.00    +0.000 A 
ATOM     15  C   UNL     1       1.247   8.640  20.002  0.00  0.00    +0.000 A 
ATOM     16  C   UNL     1       0.528   9.673  19.363  0.00  0.00    +0.000 A 
BRANCH  11  18
ATOM     17  C   UNL     1      -0.769  13.114  19.942  0.00  0.00    +0.000 C 
ATOM     18  C   UNL     1      -0.970  11.729  19.285  0.00  0.00    +0.000 C 
BRANCH  18  19
ATOM     19  C   UNL     1      -2.473  11.499  18.996  0.00  0.00    +0.000 C 
BRANCH  19  20
ATOM     20  C   UNL     1      -2.773  11.115  17.582  0.00  0.00    +0.000 A 
ATOM     21  N   UNL     1      -1.962  10.491  16.749  0.00  0.00    +0.000 NA
ATOM     22  N   UNL     1      -2.627  10.292  15.562  0.00  0.00    +0.000 NA
ATOM     23  C   UNL     1      -3.835  10.780  15.701  0.00  0.00    +0.000 A 
ATOM     24  N   UNL     1      -3.969  11.318  16.943  0.00  0.00    +0.000 N 
ATOM     25  C   UNL     1      -5.154  11.940  17.466  0.00  0.00    +0.000 C 
ENDBRANCH  19  20
ENDBRANCH  18  19
ENDBRANCH  11  18
ENDBRANCH   1  15
BRANCH   6  26
ATOM     26  N   UNL     1       5.626   4.983  15.260  0.00  0.00    +0.000 N 
ATOM     27  C   UNL     1       5.349   4.046  14.290  0.00  0.00    +0.000 A 
ATOM     28  C   UNL     1       6.456   3.978  13.473  0.00  0.00    +0.000 A 
ATOM     29  C   UNL     1       7.347   4.919  14.001  0.00  0.00    +0.000 A 
ATOM     30  N   UNL     1       6.842   5.557  15.054  0.00  0.00    +0.000 NA
ENDBRANCH   6  26
BRANCH   8  31
ATOM     31  C   UNL     1       3.212   3.515  19.337  0.00  0.00    +0.000 C 
ATOM     32  F   UNL     1       3.506   3.790  20.638  0.00  0.00    +0.000 F 
ATOM     33  F   UNL     1       1.877   3.263  19.309  0.00  0.00    +0.000 F 
ATOM     34  F   UNL     1       3.832   2.333  19.070  0.00  0.00    +0.000 F 
ENDBRANCH   8  31
TORSDOF 6
ENDMDL
MODEL 4
REMARK VINA RESULT:      -9.0      0.630      1.273
REMARK  Name = 
REMARK  8 active torsions:
REMARK  status: ('A' for Active; 'I' for Inactive)
REMARK    1  A    between atoms: C_1  and  C_2
REMARK    2  A    between atoms: C_2  and  C_3
REMARK    3  A    between atoms: C_2  and  C_10
REMARK    4  A    between atoms: C_3  and  C_4
REMARK    5  A    between atoms: N_8  and  C_9
REMARK    6  A    between atoms: C_14  and  N_15
REMARK    7  A    between atoms: C_20  and  N_21
REMARK    8  A    between atoms: C_27  and  C_28
REMARK                            x       y       z     vdW  Elec       q    Type
REMARK                         _______ _______ _______ _____ _____    ______ ____
ROOT
ATOM      1  N   UNL     1       1.940   7.875  19.266  0.00  0.00    +0.000 N 
ATOM      2  C   UNL     1       1.297   8.139  20.537  0.00  0.00    +0.000 C 
ATOM      3  C   UNL     1       0.840   9.539  20.435  0.00  0.00    +0.000 A 
ATOM      4  C   UNL     1       1.179  10.059  19.190  0.00  0.00    +0.000 A 
ATOM      5  C   UNL     1       0.897  11.378  18.870  0.00  0.00    +0.000 A 
ATOM      6  C   UNL     1       0.288  12.171  19.865  0.00  0.00    +0.000 A 
ATOM      7  C   UNL     1      -0.052  11.617  21.126  0.00  0.00    +0.000 A 
ATOM      8  C   UNL     1       0.207  10.278  21.426  0.00  0.00    +0.000 A 
ATOM      9  C   UNL     1       1.883   8.990  18.416  0.00  0.00    +0.000 C 
ATOM     10  O   UNL     1       2.296   9.144  17.285  0.00  0.00    +0.000 OA
ENDROOT
BRANCH   1  15
ATOM     11  C   UNL     1       4.009   5.228  17.613  0.00  0.00    +0.000 A 
ATOM     12  C   UNL     1       3.827   4.160  18.492  0.00  0.00    +0.000 A 
ATOM     13  C   UNL     1       2.975   4.286  19.600  0.00  0.00    +0.000 A 
ATOM     14  C   UNL     1       2.314   5.494  19.876  0.00  0.00    +0.000 A 
ATOM     15  C   UNL     1       2.534   6.598  19.063  0.00  0.00    +0.000 A 
ATOM     16  C   UNL     1       3.388   6.432  17.951  0.00  0.00    +0.000 A 
BRANCH  11  18
ATOM     17  C   UNL     1       5.189   3.651  15.906  0.00  0.00    +0.000 C 
ATOM     18  C   UNL     1       4.802   5.092  16.313  0.00  0.00    +0.000 C 
BRANCH  18  19
ATOM     19  C   UNL     1       6.059   5.994  16.306  0.00  0.00    +0.000 C 
BRANCH  19  20
ATOM     20  C   UNL     1       6.901   5.881  17.538  0.00  0.00    +0.000 A 
ATOM     21  N   UNL     1       7.135   4.782  18.230  0.00  0.00    +0.000 NA
ATOM     22  N   UNL     1       7.983   5.094  19.266  0.00  0.00    +0.000 NA
ATOM     23  C   UNL     1       8.265   6.370  19.175  0.00  0.00    +0.000 A 
ATOM     24  N   UNL     1       7.599   6.908  18.118  0.00  0.00    +0.000 N 
ATOM     25  C   UNL     1       7.661   8.280  17.695  0.00  0.00    +0.000 C 
ENDBRANCH  19  20
ENDBRANCH  18  19
ENDBRANCH  11  18
ENDBRANCH   1  15
BRANCH   6  26
ATOM     26  N   UNL     1       0.032  13.557  19.663  0.00  0.00    +0.000 N 
ATOM     27  C   UNL     1      -0.143  14.233  18.477  0.00  0.00    +0.000 A 
ATOM     28  C   UNL     1      -0.272  15.567  18.794  0.00  0.00    +0.000 A 
ATOM     29  C   UNL     1      -0.188  15.612  20.190  0.00  0.00    +0.000 A 
ATOM     30  N   UNL     1      -0.044  14.402  20.726  0.00  0.00    +0.000 NA
ENDBRANCH   6  26
BRANCH   8  31
ATOM     31  C   UNL     1      -0.173   9.689  22.763  0.00  0.00    +0.000 C 
ATOM     32  F   UNL     1      -0.931   8.562  22.670  0.00  0.00    +0.000 F 
ATOM     33  F   UNL     1       0.908   9.342  23.509  0.00  0.00    +0.000 F 
ATOM     34  F   UNL     1      -0.902  10.553  23.520  0.00  0.00    +0.000 F 
ENDBRANCH   8  31
TORSDOF 6
ENDMDL
MODEL 5
REMARK VINA RESULT:      -8.9      3.137      9.532
REMARK  Name = 
REMARK  8 active torsions:
REMARK  status: ('A' for Active; 'I' for Inactive)
REMARK    1  A    between atoms: C_1  and  C_2
REMARK    2  A    between atoms: C_2  and  C_3
REMARK    3  A    between atoms: C_2  and  C_10
REMARK    4  A    between atoms: C_3  and  C_4
REMARK    5  A    between atoms: N_8  and  C_9
REMARK    6  A    between atoms: C_14  and  N_15
REMARK    7  A    between atoms: C_20  and  N_21
REMARK    8  A    between atoms: C_27  and  C_28
REMARK                            x       y       z     vdW  Elec       q    Type
REMARK                         _______ _______ _______ _____ _____    ______ ____
ROOT
ATOM      1  N   UNL     1       1.405   8.480  20.048  0.00  0.00    +0.000 N 
ATOM      2  C   UNL     1       1.504   7.115  20.521  0.00  0.00    +0.000 C 
ATOM      3  C   UNL     1       2.423   6.460  19.570  0.00  0.00    +0.000 A 
ATOM      4  C   UNL     1       2.846   7.376  18.612  0.00  0.00    +0.000 A 
ATOM      5  C   UNL     1       3.682   6.987  17.577  0.00  0.00    +0.000 A 
ATOM      6  C   UNL     1       4.054   5.627  17.519  0.00  0.00    +0.000 A 
ATOM      7  C   UNL     1       3.614   4.713  18.511  0.00  0.00    +0.000 A 
ATOM      8  C   UNL     1       2.799   5.123  19.568  0.00  0.00    +0.000 A 
ATOM      9  C   UNL     1       2.203   8.693  18.913  0.00  0.00    +0.000 C 
ATOM     10  O   UNL     1       2.386   9.694  18.251  0.00  0.00    +0.000 OA
ENDROOT
BRANCH   1  15
ATOM     11  C   UNL     1      -1.223  11.104  20.524  0.00  0.00    +0.000 A 
ATOM     12  C   UNL     1      -1.264  11.191  21.916  0.00  0.00    +0.000 A 
ATOM     13  C   UNL     1      -0.385  10.431  22.704  0.00  0.00    +0.000 A 
ATOM     14  C   UNL     1       0.529   9.539  22.119  0.00  0.00    +0.000 A 
ATOM     15  C   UNL     1       0.542   9.374  20.740  0.00  0.00    +0.000 A 
ATOM     16  C   UNL     1      -0.347  10.164  19.979  0.00  0.00    +0.000 A 
BRANCH  11  18
ATOM     17  C   UNL     1      -1.274  12.724  18.482  0.00  0.00    +0.000 C 
ATOM     18  C   UNL     1      -2.048  12.022  19.623  0.00  0.00    +0.000 C 
BRANCH  18  19
ATOM     19  C   UNL     1      -2.842  13.071  20.438  0.00  0.00    +0.000 C 
BRANCH  19  20
ATOM     20  C   UNL     1      -4.216  12.629  20.831  0.00  0.00    +0.000 A 
ATOM     21  N   UNL     1      -4.682  12.515  22.060  0.00  0.00    +0.000 NA
ATOM     22  N   UNL     1      -5.996  12.118  21.991  0.00  0.00    +0.000 NA
ATOM     23  C   UNL     1      -6.312  12.017  20.723  0.00  0.00    +0.000 A 
ATOM     24  N   UNL     1      -5.226  12.313  19.959  0.00  0.00    +0.000 N 
ATOM     25  C   UNL     1      -5.184  12.318  18.523  0.00  0.00    +0.000 C 
ENDBRANCH  19  20
ENDBRANCH  18  19
ENDBRANCH  11  18
ENDBRANCH   1  15
BRANCH   6  26
ATOM     26  N   UNL     1       4.843   5.113  16.452  0.00  0.00    +0.000 N 
ATOM     27  C   UNL     1       5.164   3.803  16.178  0.00  0.00    +0.000 A 
ATOM     28  C   UNL     1       6.020   3.820  15.099  0.00  0.00    +0.000 A 
ATOM     29  C   UNL     1       6.148   5.173  14.765  0.00  0.00    +0.000 A 
ATOM     30  N   UNL     1       5.412   5.957  15.550  0.00  0.00    +0.000 NA
ENDBRANCH   6  26
BRANCH   8  31
ATOM     31  C   UNL     1       2.348   4.150  20.630  0.00  0.00    +0.000 C 
ATOM     32  F   UNL     1       2.547   4.594  21.901  0.00  0.00    +0.000 F 
ATOM     33  F   UNL     1       1.023   3.860  20.547  0.00  0.00    +0.000 F 
ATOM     34  F   UNL     1       3.007   2.962  20.556  0.00  0.00    +0.000 F 
ENDBRANCH   8  31
TORSDOF 6
ENDMDL
MODEL 6
REMARK VINA RESULT:      -8.9      3.072      9.510
REMARK  Name = 
REMARK  8 active torsions:
REMARK  status: ('A' for Active; 'I' for Inactive)
REMARK    1  A    between atoms: C_1  and  C_2
REMARK    2  A    between atoms: C_2  and  C_3
REMARK    3  A    between atoms: C_2  and  C_10
REMARK    4  A    between atoms: C_3  and  C_4
REMARK    5  A    between atoms: N_8  and  C_9
REMARK    6  A    between atoms: C_14  and  N_15
REMARK    7  A    between atoms: C_20  and  N_21
REMARK    8  A    between atoms: C_27  and  C_28
REMARK                            x       y       z     vdW  Elec       q    Type
REMARK                         _______ _______ _______ _____ _____    ______ ____
ROOT
ATOM      1  N   UNL     1       1.403   8.523  20.025  0.00  0.00    +0.000 N 
ATOM      2  C   UNL     1       1.492   7.157  20.498  0.00  0.00    +0.000 C 
ATOM      3  C   UNL     1       2.407   6.496  19.547  0.00  0.00    +0.000 A 
ATOM      4  C   UNL     1       2.836   7.410  18.589  0.00  0.00    +0.000 A 
ATOM      5  C   UNL     1       3.670   7.015  17.555  0.00  0.00    +0.000 A 
ATOM      6  C   UNL     1       4.033   5.653  17.497  0.00  0.00    +0.000 A 
ATOM      7  C   UNL     1       3.586   4.742  18.488  0.00  0.00    +0.000 A 
ATOM      8  C   UNL     1       2.773   5.157  19.544  0.00  0.00    +0.000 A 
ATOM      9  C   UNL     1       2.202   8.731  18.891  0.00  0.00    +0.000 C 
ATOM     10  O   UNL     1       2.393   9.731  18.229  0.00  0.00    +0.000 OA
ENDROOT
BRANCH   1  15
ATOM     11  C   UNL     1      -1.069  11.295  20.504  0.00  0.00    +0.000 A 
ATOM     12  C   UNL     1      -1.227  11.274  21.891  0.00  0.00    +0.000 A 
ATOM     13  C   UNL     1      -0.476  10.390  22.680  0.00  0.00    +0.000 A 
ATOM     14  C   UNL     1       0.423   9.480  22.099  0.00  0.00    +0.000 A 
ATOM     15  C   UNL     1       0.546   9.424  20.717  0.00  0.00    +0.000 A 
ATOM     16  C   UNL     1      -0.216  10.336  19.955  0.00  0.00    +0.000 A 
BRANCH  11  18
ATOM     17  C   UNL     1      -0.799  13.244  18.795  0.00  0.00    +0.000 C 
ATOM     18  C   UNL     1      -1.746  12.341  19.619  0.00  0.00    +0.000 C 
BRANCH  18  19
ATOM     19  C   UNL     1      -2.741  13.216  20.418  0.00  0.00    +0.000 C 
BRANCH  19  20
ATOM     20  C   UNL     1      -4.162  12.754  20.341  0.00  0.00    +0.000 A 
ATOM     21  N   UNL     1      -4.794  12.337  19.261  0.00  0.00    +0.000 NA
ATOM     22  N   UNL     1      -6.069  11.969  19.618  0.00  0.00    +0.000 NA
ATOM     23  C   UNL     1      -6.184  12.149  20.911  0.00  0.00    +0.000 A 
ATOM     24  N   UNL     1      -5.021  12.653  21.405  0.00  0.00    +0.000 N 
ATOM     25  C   UNL     1      -4.761  12.974  22.781  0.00  0.00    +0.000 C 
ENDBRANCH  19  20
ENDBRANCH  18  19
ENDBRANCH  11  18
ENDBRANCH   1  15
BRANCH   6  26
ATOM     26  N   UNL     1       4.818   5.133  16.429  0.00  0.00    +0.000 N 
ATOM     27  C   UNL     1       5.141   3.822  16.162  0.00  0.00    +0.000 A 
ATOM     28  C   UNL     1       5.993   3.834  15.080  0.00  0.00    +0.000 A 
ATOM     29  C   UNL     1       6.116   5.185  14.737  0.00  0.00    +0.000 A 
ATOM     30  N   UNL     1       5.381   5.973  15.520  0.00  0.00    +0.000 NA
ENDBRANCH   6  26
BRANCH   8  31
ATOM     31  C   UNL     1       2.315   4.187  20.606  0.00  0.00    +0.000 C 
ATOM     32  F   UNL     1       2.924   2.972  20.539  0.00  0.00    +0.000 F 
ATOM     33  F   UNL     1       2.542   4.642  21.867  0.00  0.00    +0.000 F 
ATOM     34  F   UNL     1       0.981   3.926  20.527  0.00  0.00    +0.000 F 
ENDBRANCH   8  31
TORSDOF 6
ENDMDL
MODEL 7
REMARK VINA RESULT:      -8.9      3.250      9.396
REMARK  Name = 
REMARK  8 active torsions:
REMARK  status: ('A' for Active; 'I' for Inactive)
REMARK    1  A    between atoms: C_1  and  C_2
REMARK    2  A    between atoms: C_2  and  C_3
REMARK    3  A    between atoms: C_2  and  C_10
REMARK    4  A    between atoms: C_3  and  C_4
REMARK    5  A    between atoms: N_8  and  C_9
REMARK    6  A    between atoms: C_14  and  N_15
REMARK    7  A    between atoms: C_20  and  N_21
REMARK    8  A    between atoms: C_27  and  C_28
REMARK                            x       y       z     vdW  Elec       q    Type
REMARK                         _______ _______ _______ _____ _____    ______ ____
ROOT
ATOM      1  N   UNL     1       1.356   8.509  20.127  0.00  0.00    +0.000 N 
ATOM      2  C   UNL     1       1.431   7.139  20.594  0.00  0.00    +0.000 C 
ATOM      3  C   UNL     1       2.350   6.477  19.647  0.00  0.00    +0.000 A 
ATOM      4  C   UNL     1       2.795   7.393  18.699  0.00  0.00    +0.000 A 
ATOM      5  C   UNL     1       3.636   6.998  17.670  0.00  0.00    +0.000 A 
ATOM      6  C   UNL     1       3.989   5.634  17.608  0.00  0.00    +0.000 A 
ATOM      7  C   UNL     1       3.526   4.720  18.590  0.00  0.00    +0.000 A 
ATOM      8  C   UNL     1       2.707   5.135  19.641  0.00  0.00    +0.000 A 
ATOM      9  C   UNL     1       2.168   8.717  19.002  0.00  0.00    +0.000 C 
ATOM     10  O   UNL     1       2.372   9.719  18.348  0.00  0.00    +0.000 OA
ENDROOT
BRANCH   1  15
ATOM     11  C   UNL     1      -1.082  11.311  20.602  0.00  0.00    +0.000 A 
ATOM     12  C   UNL     1      -1.269  11.270  21.984  0.00  0.00    +0.000 A 
ATOM     13  C   UNL     1      -0.548  10.362  22.774  0.00  0.00    +0.000 A 
ATOM     14  C   UNL     1       0.348   9.447  22.197  0.00  0.00    +0.000 A 
ATOM     15  C   UNL     1       0.499   9.411  20.817  0.00  0.00    +0.000 A 
ATOM     16  C   UNL     1      -0.233  10.347  20.054  0.00  0.00    +0.000 A 
BRANCH  11  18
ATOM     17  C   UNL     1      -0.990  13.741  19.665  0.00  0.00    +0.000 C 
ATOM     18  C   UNL     1      -1.724  12.381  19.720  0.00  0.00    +0.000 C 
BRANCH  18  19
ATOM     19  C   UNL     1      -3.214  12.605  20.076  0.00  0.00    +0.000 C 
BRANCH  19  20
ATOM     20  C   UNL     1      -4.174  12.037  19.079  0.00  0.00    +0.000 A 
ATOM     21  N   UNL     1      -3.889  11.643  17.853  0.00  0.00    +0.000 NA
ATOM     22  N   UNL     1      -5.036  11.151  17.277  0.00  0.00    +0.000 NA
ATOM     23  C   UNL     1      -5.992  11.236  18.169  0.00  0.00    +0.000 A 
ATOM     24  N   UNL     1      -5.504  11.798  19.308  0.00  0.00    +0.000 N 
ATOM     25  C   UNL     1      -6.250  12.047  20.509  0.00  0.00    +0.000 C 
ENDBRANCH  19  20
ENDBRANCH  18  19
ENDBRANCH  11  18
ENDBRANCH   1  15
BRANCH   6  26
ATOM     26  N   UNL     1       4.781   5.114  16.545  0.00  0.00    +0.000 N 
ATOM     27  C   UNL     1       5.257   5.768  15.431  0.00  0.00    +0.000 A 
ATOM     28  C   UNL     1       5.890   4.824  14.655  0.00  0.00    +0.000 A 
ATOM     29  C   UNL     1       5.775   3.631  15.377  0.00  0.00    +0.000 A 
ATOM     30  N   UNL     1       5.142   3.803  16.536  0.00  0.00    +0.000 NA
ENDBRANCH   6  26
BRANCH   8  31
ATOM     31  C   UNL     1       2.232   4.162  20.693  0.00  0.00    +0.000 C 
ATOM     32  F   UNL     1       2.773   2.919  20.575  0.00  0.00    +0.000 F 
ATOM     33  F   UNL     1       2.523   4.571  21.956  0.00  0.00    +0.000 F 
ATOM     34  F   UNL     1       0.884   3.974  20.651  0.00  0.00    +0.000 F 
ENDBRANCH   8  31
TORSDOF 6
ENDMDL
MODEL 8
REMARK VINA RESULT:      -8.9      3.128      8.538
REMARK  Name = 
REMARK  8 active torsions:
REMARK  status: ('A' for Active; 'I' for Inactive)
REMARK    1  A    between atoms: C_1  and  C_2
REMARK    2  A    between atoms: C_2  and  C_3
REMARK    3  A    between atoms: C_2  and  C_10
REMARK    4  A    between atoms: C_3  and  C_4
REMARK    5  A    between atoms: N_8  and  C_9
REMARK    6  A    between atoms: C_14  and  N_15
REMARK    7  A    between atoms: C_20  and  N_21
REMARK    8  A    between atoms: C_27  and  C_28
REMARK                            x       y       z     vdW  Elec       q    Type
REMARK                         _______ _______ _______ _____ _____    ______ ____
ROOT
ATOM      1  N   UNL     1       2.309   7.599  19.153  0.00  0.00    +0.000 N 
ATOM      2  C   UNL     1       2.455   6.183  19.419  0.00  0.00    +0.000 C 
ATOM      3  C   UNL     1       3.362   5.700  18.360  0.00  0.00    +0.000 A 
ATOM      4  C   UNL     1       3.734   6.758  17.535  0.00  0.00    +0.000 A 
ATOM      5  C   UNL     1       4.549   6.548  16.434  0.00  0.00    +0.000 A 
ATOM      6  C   UNL     1       4.953   5.222  16.169  0.00  0.00    +0.000 A 
ATOM      7  C   UNL     1       4.565   4.161  17.027  0.00  0.00    +0.000 A 
ATOM      8  C   UNL     1       3.771   4.389  18.152  0.00  0.00    +0.000 A 
ATOM      9  C   UNL     1       3.068   7.998  18.042  0.00  0.00    +0.000 C 
ATOM     10  O   UNL     1       3.207   9.090  17.529  0.00  0.00    +0.000 OA
ENDROOT
BRANCH   1  15
ATOM     11  C   UNL     1       0.077  10.417  20.200  0.00  0.00    +0.000 A 
ATOM     12  C   UNL     1      -0.303   9.997  21.476  0.00  0.00    +0.000 A 
ATOM     13  C   UNL     1       0.221   8.815  22.022  0.00  0.00    +0.000 A 
ATOM     14  C   UNL     1       1.108   8.007  21.291  0.00  0.00    +0.000 A 
ATOM     15  C   UNL     1       1.445   8.358  19.990  0.00  0.00    +0.000 A 
ATOM     16  C   UNL     1       0.908   9.559  19.478  0.00  0.00    +0.000 A 
BRANCH  11  18
ATOM     17  C   UNL     1      -1.498  11.737  18.596  0.00  0.00    +0.000 C 
ATOM     18  C   UNL     1      -0.344  11.770  19.625  0.00  0.00    +0.000 C 
BRANCH  18  19
ATOM     19  C   UNL     1       0.859  12.547  19.039  0.00  0.00    +0.000 C 
BRANCH  19  20
ATOM     20  C   UNL     1       1.637  13.326  20.051  0.00  0.00    +0.000 A 
ATOM     21  N   UNL     1       1.368  13.428  21.339  0.00  0.00    +0.000 NA
ATOM     22  N   UNL     1       2.341  14.201  21.926  0.00  0.00    +0.000 NA
ATOM     23  C   UNL     1       3.195  14.537  20.991  0.00  0.00    +0.000 A 
ATOM     24  N   UNL     1       2.789  14.025  19.798  0.00  0.00    +0.000 N 
ATOM     25  C   UNL     1       3.471  14.175  18.543  0.00  0.00    +0.000 C 
ENDBRANCH  19  20
ENDBRANCH  18  19
ENDBRANCH  11  18
ENDBRANCH   1  15
BRANCH   6  26
ATOM     26  N   UNL     1       5.723   4.891  15.018  0.00  0.00    +0.000 N 
ATOM     27  C   UNL     1       5.460   3.944  14.055  0.00  0.00    +0.000 A 
ATOM     28  C   UNL     1       6.540   3.936  13.199  0.00  0.00    +0.000 A 
ATOM     29  C   UNL     1       7.399   4.921  13.699  0.00  0.00    +0.000 A 
ATOM     30  N   UNL     1       6.899   5.529  14.772  0.00  0.00    +0.000 NA
ENDBRANCH   6  26
BRANCH   8  31
ATOM     31  C   UNL     1       3.375   3.260  19.072  0.00  0.00    +0.000 C 
ATOM     32  F   UNL     1       3.739   3.454  20.369  0.00  0.00    +0.000 F 
ATOM     33  F   UNL     1       2.033   3.048  19.096  0.00  0.00    +0.000 F 
ATOM     34  F   UNL     1       3.944   2.077  18.712  0.00  0.00    +0.000 F 
ENDBRANCH   8  31
TORSDOF 6
ENDMDL
MODEL 9
REMARK VINA RESULT:      -8.9      1.186      2.253
REMARK  Name = 
REMARK  8 active torsions:
REMARK  status: ('A' for Active; 'I' for Inactive)
REMARK    1  A    between atoms: C_1  and  C_2
REMARK    2  A    between atoms: C_2  and  C_3
REMARK    3  A    between atoms: C_2  and  C_10
REMARK    4  A    between atoms: C_3  and  C_4
REMARK    5  A    between atoms: N_8  and  C_9
REMARK    6  A    between atoms: C_14  and  N_15
REMARK    7  A    between atoms: C_20  and  N_21
REMARK    8  A    between atoms: C_27  and  C_28
REMARK                            x       y       z     vdW  Elec       q    Type
REMARK                         _______ _______ _______ _____ _____    ______ ____
ROOT
ATOM      1  N   UNL     1       1.889   7.734  19.796  0.00  0.00    +0.000 N 
ATOM      2  C   UNL     1       1.163   8.072  21.003  0.00  0.00    +0.000 C 
ATOM      3  C   UNL     1       0.704   9.457  20.781  0.00  0.00    +0.000 A 
ATOM      4  C   UNL     1       1.118   9.899  19.528  0.00  0.00    +0.000 A 
ATOM      5  C   UNL     1       0.847  11.191  19.105  0.00  0.00    +0.000 A 
ATOM      6  C   UNL     1       0.169  12.040  20.006  0.00  0.00    +0.000 A 
ATOM      7  C   UNL     1      -0.248  11.564  21.276  0.00  0.00    +0.000 A 
ATOM      8  C   UNL     1       0.002  10.251  21.678  0.00  0.00    +0.000 A 
ATOM      9  C   UNL     1       1.879   8.791  18.873  0.00  0.00    +0.000 C 
ATOM     10  O   UNL     1       2.364   8.876  17.763  0.00  0.00    +0.000 OA
ENDROOT
BRANCH   1  15
ATOM     11  C   UNL     1       4.574   5.203  19.155  0.00  0.00    +0.000 A 
ATOM     12  C   UNL     1       3.918   4.023  19.510  0.00  0.00    +0.000 A 
ATOM     13  C   UNL     1       2.571   4.048  19.904  0.00  0.00    +0.000 A 
ATOM     14  C   UNL     1       1.859   5.256  19.988  0.00  0.00    +0.000 A 
ATOM     15  C   UNL     1       2.505   6.454  19.715  0.00  0.00    +0.000 A 
ATOM     16  C   UNL     1       3.857   6.391  19.310  0.00  0.00    +0.000 A 
BRANCH  11  18
ATOM     17  C   UNL     1       7.133   5.438  19.587  0.00  0.00    +0.000 C 
ATOM     18  C   UNL     1       5.987   5.210  18.574  0.00  0.00    +0.000 C 
BRANCH  18  19
ATOM     19  C   UNL     1       6.122   6.207  17.397  0.00  0.00    +0.000 C 
BRANCH  19  20
ATOM     20  C   UNL     1       6.498   5.571  16.096  0.00  0.00    +0.000 A 
ATOM     21  N   UNL     1       7.600   5.790  15.406  0.00  0.00    +0.000 NA
ATOM     22  N   UNL     1       7.582   4.986  14.291  0.00  0.00    +0.000 NA
ATOM     23  C   UNL     1       6.480   4.278  14.334  0.00  0.00    +0.000 A 
ATOM     24  N   UNL     1       5.762   4.620  15.437  0.00  0.00    +0.000 N 
ATOM     25  C   UNL     1       4.501   4.055  15.828  0.00  0.00    +0.000 C 
ENDBRANCH  19  20
ENDBRANCH  18  19
ENDBRANCH  11  18
ENDBRANCH   1  15
BRANCH   6  26
ATOM     26  N   UNL     1      -0.084  13.406  19.698  0.00  0.00    +0.000 N 
ATOM     27  C   UNL     1      -0.977  14.268  20.295  0.00  0.00    +0.000 A 
ATOM     28  C   UNL     1      -0.921  15.450  19.590  0.00  0.00    +0.000 A 
ATOM     29  C   UNL     1       0.043  15.231  18.600  0.00  0.00    +0.000 A 
ATOM     30  N   UNL     1       0.581  14.015  18.681  0.00  0.00    +0.000 NA
ENDBRANCH   6  26
BRANCH   8  31
ATOM     31  C   UNL     1      -0.459   9.744  23.024  0.00  0.00    +0.000 C 
ATOM     32  F   UNL     1      -1.140   8.568  22.963  0.00  0.00    +0.000 F 
ATOM     33  F   UNL     1       0.571   9.528  23.884  0.00  0.00    +0.000 F 
ATOM     34  F   UNL     1      -1.300  10.616  23.644  0.00  0.00    +0.000 F 
ENDBRANCH   8  31
TORSDOF 6
ENDMDL
