MODEL 1
REMARK VINA RESULT:      -9.7      0.000      0.000
REMARK  Name = 
REMARK  10 active torsions:
REMARK  status: ('A' for Active; 'I' for Inactive)
REMARK    1  A    between atoms: C_1  and  C_2
REMARK    2  A    between atoms: C_2  and  C_3
REMARK    3  A    between atoms: C_3  and  C_4
REMARK    4  A    between atoms: C_3  and  N_35
REMARK    5  A    between atoms: C_8  and  C_9
REMARK    6  A    between atoms: N_15  and  C_16
REMARK    7  A    between atoms: C_20  and  C_21
REMARK    8  A    between atoms: C_21  and  C_22
REMARK    9  A    between atoms: C_22  and  C_23
REMARK   10  A    between atoms: N_27  and  C_28
REMARK                            x       y       z     vdW  Elec       q    Type
REMARK                         _______ _______ _______ _____ _____    ______ ____
ROOT
ATOM      1  C   UNL     1       4.141   4.967  18.005  0.00  0.00    +0.000 A 
ATOM      2  C   UNL     1       3.745   6.309  17.986  0.00  0.00    +0.000 A 
ATOM      3  C   UNL     1       2.798   6.701  18.903  0.00  0.00    +0.000 A 
ATOM      4  C   UNL     1       2.240   5.846  19.845  0.00  0.00    +0.000 A 
ATOM      5  C   UNL     1       2.594   4.503  19.877  0.00  0.00    +0.000 A 
ATOM      6  C   UNL     1       3.542   4.072  18.930  0.00  0.00    +0.000 A 
ATOM      7  C   UNL     1       1.319   6.624  20.726  0.00  0.00    +0.000 C 
ATOM      8  N   UNL     1       1.374   7.969  20.165  0.00  0.00    +0.000 N 
ATOM      9  C   UNL     1       2.244   8.044  19.083  0.00  0.00    +0.000 C 
ATOM     10  O   UNL     1       2.571   8.973  18.368  0.00  0.00    +0.000 OA
ENDROOT
BRANCH   8  11
ATOM     11  C   UNL     1       0.628   9.040  20.706  0.00  0.00    +0.000 A 
ATOM     12  C   UNL     1       0.430   9.180  22.082  0.00  0.00    +0.000 A 
ATOM     13  C   UNL     1      -0.302  10.248  22.589  0.00  0.00    +0.000 A 
ATOM     14  C   UNL     1      -0.879  11.169  21.719  0.00  0.00    +0.000 A 
ATOM     15  C   UNL     1      -0.749  11.052  20.324  0.00  0.00    +0.000 A 
ATOM     16  C   UNL     1       0.050   9.994  19.855  0.00  0.00    +0.000 A 
BRANCH  15  17
ATOM     17  C   UNL     1      -1.507  12.031  19.315  0.00  0.00    +0.000 C 
ATOM     18  C   UNL     1      -1.835  11.525  17.875  0.00  0.00    +0.000 C 
ATOM     19  O   UNL     1      -3.198  12.026  17.992  0.00  0.00    +0.000 OA
ATOM     20  C   UNL     1      -3.060  12.011  19.435  0.00  0.00    +0.000 C 
BRANCH  17  21
ATOM     21  C   UNL     1      -0.919  13.452  19.349  0.00  0.00    +0.000 C 
BRANCH  21  22
ATOM     22  C   UNL     1       0.576  13.483  19.301  0.00  0.00    +0.000 A 
ATOM     23  N   UNL     1       1.324  13.139  18.270  0.00  0.00    +0.000 NA
ATOM     24  N   UNL     1       2.645  13.328  18.612  0.00  0.00    +0.000 NA
ATOM     25  C   UNL     1       2.679  13.785  19.840  0.00  0.00    +0.000 A 
ATOM     26  N   UNL     1       1.404  13.890  20.319  0.00  0.00    +0.000 N 
ATOM     27  C   UNL     1       1.044  14.356  21.629  0.00  0.00    +0.000 C 
ENDBRANCH  21  22
ENDBRANCH  17  21
ENDBRANCH  15  17
ENDBRANCH   8  11
BRANCH   5  28
ATOM     28  C   UNL     1       2.021   3.533  20.878  0.00  0.00    +0.000 C 
ATOM     29  F   UNL     1       0.660   3.470  20.858  0.00  0.00    +0.000 F 
ATOM     30  F   UNL     1       2.456   2.258  20.682  0.00  0.00    +0.000 F 
ATOM     31  F   UNL     1       2.354   3.853  22.159  0.00  0.00    +0.000 F 
ENDBRANCH   5  28
BRANCH   1  32
ATOM     32  C   UNL     1       5.237   4.513  17.044  0.00  0.00    +0.000 C 
BRANCH  32  33
ATOM     33  N   UNL     1       6.566   4.760  17.636  0.00  0.00    +0.000 NA
ATOM     34  C   UNL     1       7.274   5.920  17.059  0.00  0.00    +0.000 C 
ATOM     35  C   UNL     1       7.740   6.791  18.216  0.00  0.00    +0.000 C 
ATOM     36  C   UNL     1       7.733   5.854  19.397  0.00  0.00    +0.000 C 
ATOM     37  F   UNL     1       8.890   5.140  19.413  0.00  0.00    +0.000 F 
ATOM     38  C   UNL     1       6.558   4.938  19.096  0.00  0.00    +0.000 C 
ENDBRANCH  32  33
BRANCH  32  40
ATOM     39  C   UNL     1       5.457   4.338  14.476  0.00  0.00    +0.000 C 
ATOM     40  C   UNL     1       5.041   5.203  15.668  0.00  0.00    +0.000 C 
ENDBRANCH  32  40
ENDBRANCH   1  32
TORSDOF 8
ENDMDL
MODEL 2
REMARK VINA RESULT:      -9.4      1.758      2.770
REMARK  Name = 
REMARK  10 active torsions:
REMARK  status: ('A' for Active; 'I' for Inactive)
REMARK    1  A    between atoms: C_1  and  C_2
REMARK    2  A    between atoms: C_2  and  C_3
REMARK    3  A    between atoms: C_3  and  C_4
REMARK    4  A    between atoms: C_3  and  N_35
REMARK    5  A    between atoms: C_8  and  C_9
REMARK    6  A    between atoms: N_15  and  C_16
REMARK    7  A    between atoms: C_20  and  C_21
REMARK    8  A    between atoms: C_21  and  C_22
REMARK    9  A    between atoms: C_22  and  C_23
REMARK   10  A    between atoms: N_27  and  C_28
REMARK                            x       y       z     vdW  Elec       q    Type
REMARK                         _______ _______ _______ _____ _____    ______ ____
ROOT
ATOM      1  C   UNL     1       4.122   5.042  17.980  0.00  0.00    +0.000 A 
ATOM      2  C   UNL     1       3.733   6.387  17.969  0.00  0.00    +0.000 A 
ATOM      3  C   UNL     1       2.788   6.779  18.887  0.00  0.00    +0.000 A 
ATOM      4  C   UNL     1       2.224   5.921  19.823  0.00  0.00    +0.000 A 
ATOM      5  C   UNL     1       2.569   4.575  19.847  0.00  0.00    +0.000 A 
ATOM      6  C   UNL     1       3.515   4.145  18.897  0.00  0.00    +0.000 A 
ATOM      7  C   UNL     1       1.306   6.699  20.708  0.00  0.00    +0.000 C 
ATOM      8  N   UNL     1       1.370   8.047  20.157  0.00  0.00    +0.000 N 
ATOM      9  C   UNL     1       2.242   8.124  19.075  0.00  0.00    +0.000 C 
ATOM     10  O   UNL     1       2.575   9.056  18.367  0.00  0.00    +0.000 OA
ENDROOT
BRANCH   8  11
ATOM     11  C   UNL     1       0.630   9.119  20.703  0.00  0.00    +0.000 A 
ATOM     12  C   UNL     1       0.016   9.028  21.955  0.00  0.00    +0.000 A 
ATOM     13  C   UNL     1      -0.700  10.101  22.475  0.00  0.00    +0.000 A 
ATOM     14  C   UNL     1      -0.844  11.266  21.726  0.00  0.00    +0.000 A 
ATOM     15  C   UNL     1      -0.286  11.396  20.442  0.00  0.00    +0.000 A 
ATOM     16  C   UNL     1       0.483  10.313  19.981  0.00  0.00    +0.000 A 
BRANCH  15  17
ATOM     17  C   UNL     1      -0.548  12.678  19.528  0.00  0.00    +0.000 C 
ATOM     18  C   UNL     1      -1.208  13.940  20.166  0.00  0.00    +0.000 C 
ATOM     19  O   UNL     1      -0.207  14.797  19.547  0.00  0.00    +0.000 OA
ATOM     20  C   UNL     1       0.665  13.649  19.407  0.00  0.00    +0.000 C 
BRANCH  17  21
ATOM     21  C   UNL     1      -1.148  12.293  18.164  0.00  0.00    +0.000 C 
BRANCH  21  22
ATOM     22  C   UNL     1      -2.545  11.765  18.253  0.00  0.00    +0.000 A 
ATOM     23  N   UNL     1      -3.478  12.183  19.086  0.00  0.00    +0.000 NA
ATOM     24  N   UNL     1      -4.629  11.467  18.841  0.00  0.00    +0.000 NA
ATOM     25  C   UNL     1      -4.379  10.631  17.864  0.00  0.00    +0.000 A 
ATOM     26  N   UNL     1      -3.080  10.773  17.467  0.00  0.00    +0.000 N 
ATOM     27  C   UNL     1      -2.444  10.026  16.419  0.00  0.00    +0.000 C 
ENDBRANCH  21  22
ENDBRANCH  17  21
ENDBRANCH  15  17
ENDBRANCH   8  11
BRANCH   5  28
ATOM     28  C   UNL     1       1.989   3.602  20.840  0.00  0.00    +0.000 C 
ATOM     29  F   UNL     1       0.628   3.547  20.817  0.00  0.00    +0.000 F 
ATOM     30  F   UNL     1       2.417   2.327  20.637  0.00  0.00    +0.000 F 
ATOM     31  F   UNL     1       2.321   3.912  22.124  0.00  0.00    +0.000 F 
ENDBRANCH   5  28
BRANCH   1  32
ATOM     32  C   UNL     1       5.216   4.589  17.017  0.00  0.00    +0.000 C 
BRANCH  32  33
ATOM     33  N   UNL     1       6.545   4.819  17.613  0.00  0.00    +0.000 NA
ATOM     34  C   UNL     1       7.251   5.996  17.069  0.00  0.00    +0.000 C 
ATOM     35  C   UNL     1       7.719   6.834  18.251  0.00  0.00    +0.000 C 
ATOM     36  C   UNL     1       7.713   5.863  19.404  0.00  0.00    +0.000 C 
ATOM     37  F   UNL     1       8.871   5.151  19.398  0.00  0.00    +0.000 F 
ATOM     38  C   UNL     1       6.539   4.955  19.078  0.00  0.00    +0.000 C 
ENDBRANCH  32  33
BRANCH  32  40
ATOM     39  C   UNL     1       5.389   4.416  14.445  0.00  0.00    +0.000 C 
ATOM     40  C   UNL     1       5.028   5.292  15.646  0.00  0.00    +0.000 C 
ENDBRANCH  32  40
ENDBRANCH   1  32
TORSDOF 8
ENDMDL
MODEL 3
REMARK VINA RESULT:      -9.4      2.037      2.749
REMARK  Name = 
REMARK  10 active torsions:
REMARK  status: ('A' for Active; 'I' for Inactive)
REMARK    1  A    between atoms: C_1  and  C_2
REMARK    2  A    between atoms: C_2  and  C_3
REMARK    3  A    between atoms: C_3  and  C_4
REMARK    4  A    between atoms: C_3  and  N_35
REMARK    5  A    between atoms: C_8  and  C_9
REMARK    6  A    between atoms: N_15  and  C_16
REMARK    7  A    between atoms: C_20  and  C_21
REMARK    8  A    between atoms: C_21  and  C_22
REMARK    9  A    between atoms: C_22  and  C_23
REMARK   10  A    between atoms: N_27  and  C_28
REMARK                            x       y       z     vdW  Elec       q    Type
REMARK                         _______ _______ _______ _____ _____    ______ ____
ROOT
ATOM      1  C   UNL     1       4.127   4.960  17.999  0.00  0.00    +0.000 A 
ATOM      2  C   UNL     1       3.732   6.302  18.000  0.00  0.00    +0.000 A 
ATOM      3  C   UNL     1       2.789   6.684  18.926  0.00  0.00    +0.000 A 
ATOM      4  C   UNL     1       2.233   5.816  19.858  0.00  0.00    +0.000 A 
ATOM      5  C   UNL     1       2.585   4.472  19.870  0.00  0.00    +0.000 A 
ATOM      6  C   UNL     1       3.529   4.053  18.913  0.00  0.00    +0.000 A 
ATOM      7  C   UNL     1       1.317   6.583  20.753  0.00  0.00    +0.000 C 
ATOM      8  N   UNL     1       1.372   7.936  20.211  0.00  0.00    +0.000 N 
ATOM      9  C   UNL     1       2.238   8.025  19.126  0.00  0.00    +0.000 C 
ATOM     10  O   UNL     1       2.564   8.963  18.423  0.00  0.00    +0.000 OA
ENDROOT
BRANCH   8  11
ATOM     11  C   UNL     1       0.629   9.000  20.769  0.00  0.00    +0.000 A 
ATOM     12  C   UNL     1       0.529   9.184  22.150  0.00  0.00    +0.000 A 
ATOM     13  C   UNL     1      -0.202  10.245  22.675  0.00  0.00    +0.000 A 
ATOM     14  C   UNL     1      -0.875  11.113  21.819  0.00  0.00    +0.000 A 
ATOM     15  C   UNL     1      -0.846  10.949  20.423  0.00  0.00    +0.000 A 
ATOM     16  C   UNL     1      -0.045   9.902  19.932  0.00  0.00    +0.000 A 
BRANCH  15  17
ATOM     17  C   UNL     1      -1.712  11.863  19.442  0.00  0.00    +0.000 C 
ATOM     18  C   UNL     1      -1.101  12.288  18.070  0.00  0.00    +0.000 C 
ATOM     19  O   UNL     1      -2.335  11.923  17.389  0.00  0.00    +0.000 OA
ATOM     20  C   UNL     1      -2.685  11.077  18.513  0.00  0.00    +0.000 C 
BRANCH  17  21
ATOM     21  C   UNL     1      -2.398  13.017  20.194  0.00  0.00    +0.000 C 
BRANCH  21  22
ATOM     22  C   UNL     1      -3.857  12.790  20.437  0.00  0.00    +0.000 A 
ATOM     23  N   UNL     1      -4.785  12.668  19.508  0.00  0.00    +0.000 NA
ATOM     24  N   UNL     1      -5.993  12.447  20.131  0.00  0.00    +0.000 NA
ATOM     25  C   UNL     1      -5.780  12.433  21.424  0.00  0.00    +0.000 A 
ATOM     26  N   UNL     1      -4.454  12.654  21.666  0.00  0.00    +0.000 N 
ATOM     27  C   UNL     1      -3.844  12.708  22.965  0.00  0.00    +0.000 C 
ENDBRANCH  21  22
ENDBRANCH  17  21
ENDBRANCH  15  17
ENDBRANCH   8  11
BRANCH   5  28
ATOM     28  C   UNL     1       2.014   3.489  20.859  0.00  0.00    +0.000 C 
ATOM     29  F   UNL     1       2.501   2.225  20.714  0.00  0.00    +0.000 F 
ATOM     30  F   UNL     1       2.265   3.839  22.150  0.00  0.00    +0.000 F 
ATOM     31  F   UNL     1       0.661   3.375  20.755  0.00  0.00    +0.000 F 
ENDBRANCH   5  28
BRANCH   1  32
ATOM     32  C   UNL     1       5.219   4.518  17.028  0.00  0.00    +0.000 C 
BRANCH  32  33
ATOM     33  N   UNL     1       6.549   4.758  17.617  0.00  0.00    +0.000 NA
ATOM     34  C   UNL     1       7.252   5.928  17.055  0.00  0.00    +0.000 C 
ATOM     35  C   UNL     1       7.723   6.782  18.224  0.00  0.00    +0.000 C 
ATOM     36  C   UNL     1       7.723   5.825  19.390  0.00  0.00    +0.000 C 
ATOM     37  F   UNL     1       8.882   5.114  19.389  0.00  0.00    +0.000 F 
ATOM     38  C   UNL     1       6.549   4.912  19.080  0.00  0.00    +0.000 C 
ENDBRANCH  32  33
BRANCH  32  40
ATOM     39  C   UNL     1       5.416   4.371  14.457  0.00  0.00    +0.000 C 
ATOM     40  C   UNL     1       5.016   5.225  15.661  0.00  0.00    +0.000 C 
ENDBRANCH  32  40
ENDBRANCH   1  32
TORSDOF 8
ENDMDL
MODEL 4
REMARK VINA RESULT:      -9.3      0.837      1.152
REMARK  Name = 
REMARK  10 active torsions:
REMARK  status: ('A' for Active; 'I' for Inactive)
REMARK    1  A    between atoms: C_1  and  C_2
REMARK    2  A    between atoms: C_2  and  C_3
REMARK    3  A    between atoms: C_3  and  C_4
REMARK    4  A    between atoms: C_3  and  N_35
REMARK    5  A    between atoms: C_8  and  C_9
REMARK    6  A    between atoms: N_15  and  C_16
REMARK    7  A    between atoms: C_20  and  C_21
REMARK    8  A    between atoms: C_21  and  C_22
REMARK    9  A    between atoms: C_22  and  C_23
REMARK   10  A    between atoms: N_27  and  C_28
REMARK                            x       y       z     vdW  Elec       q    Type
REMARK                         _______ _______ _______ _____ _____    ______ ____
ROOT
ATOM      1  C   UNL     1       4.075   4.884  18.017  0.00  0.00    +0.000 A 
ATOM      2  C   UNL     1       3.696   6.231  18.045  0.00  0.00    +0.000 A 
ATOM      3  C   UNL     1       2.768   6.607  18.987  0.00  0.00    +0.000 A 
ATOM      4  C   UNL     1       2.211   5.730  19.910  0.00  0.00    +0.000 A 
ATOM      5  C   UNL     1       2.547   4.381  19.895  0.00  0.00    +0.000 A 
ATOM      6  C   UNL     1       3.476   3.969  18.921  0.00  0.00    +0.000 A 
ATOM      7  C   UNL     1       1.313   6.491  20.828  0.00  0.00    +0.000 C 
ATOM      8  N   UNL     1       1.379   7.852  20.309  0.00  0.00    +0.000 N 
ATOM      9  C   UNL     1       2.235   7.950  19.217  0.00  0.00    +0.000 C 
ATOM     10  O   UNL     1       2.564   8.897  18.527  0.00  0.00    +0.000 OA
ENDROOT
BRANCH   8  11
ATOM     11  C   UNL     1       0.655   8.916  20.893  0.00  0.00    +0.000 A 
ATOM     12  C   UNL     1       0.441   8.992  22.272  0.00  0.00    +0.000 A 
ATOM     13  C   UNL     1      -0.268  10.054  22.823  0.00  0.00    +0.000 A 
ATOM     14  C   UNL     1      -0.808  11.033  21.992  0.00  0.00    +0.000 A 
ATOM     15  C   UNL     1      -0.663  10.982  20.595  0.00  0.00    +0.000 A 
ATOM     16  C   UNL     1       0.114   9.926  20.084  0.00  0.00    +0.000 A 
BRANCH  15  17
ATOM     17  C   UNL     1      -1.380  12.029  19.627  0.00  0.00    +0.000 C 
ATOM     18  C   UNL     1      -2.760  11.656  19.000  0.00  0.00    +0.000 C 
ATOM     19  O   UNL     1      -3.295  12.962  19.359  0.00  0.00    +0.000 OA
ATOM     20  C   UNL     1      -2.251  13.096  20.356  0.00  0.00    +0.000 C 
BRANCH  17  21
ATOM     21  C   UNL     1      -0.393  12.645  18.620  0.00  0.00    +0.000 C 
BRANCH  21  22
ATOM     22  C   UNL     1       0.159  13.966  19.054  0.00  0.00    +0.000 A 
ATOM     23  N   UNL     1      -0.311  15.149  18.711  0.00  0.00    +0.000 NA
ATOM     24  N   UNL     1       0.452  16.114  19.332  0.00  0.00    +0.000 NA
ATOM     25  C   UNL     1       1.369  15.503  20.041  0.00  0.00    +0.000 A 
ATOM     26  N   UNL     1       1.232  14.153  19.891  0.00  0.00    +0.000 N 
ATOM     27  C   UNL     1       2.057  13.158  20.518  0.00  0.00    +0.000 C 
ENDBRANCH  21  22
ENDBRANCH  17  21
ENDBRANCH  15  17
ENDBRANCH   8  11
BRANCH   5  28
ATOM     28  C   UNL     1       1.975   3.388  20.873  0.00  0.00    +0.000 C 
ATOM     29  F   UNL     1       2.367   2.105  20.639  0.00  0.00    +0.000 F 
ATOM     30  F   UNL     1       2.328   3.656  22.160  0.00  0.00    +0.000 F 
ATOM     31  F   UNL     1       0.613   3.365  20.852  0.00  0.00    +0.000 F 
ENDBRANCH   5  28
BRANCH   1  32
ATOM     32  C   UNL     1       5.152   4.447  17.027  0.00  0.00    +0.000 C 
BRANCH  32  33
ATOM     33  N   UNL     1       6.492   4.721  17.579  0.00  0.00    +0.000 NA
ATOM     34  C   UNL     1       7.165   5.886  16.971  0.00  0.00    +0.000 C 
ATOM     35  C   UNL     1       7.648   6.777  18.107  0.00  0.00    +0.000 C 
ATOM     36  C   UNL     1       7.688   5.852  19.297  0.00  0.00    +0.000 C 
ATOM     37  F   UNL     1       8.857   5.158  19.289  0.00  0.00    +0.000 F 
ATOM     38  C   UNL     1       6.521   4.914  19.038  0.00  0.00    +0.000 C 
ENDBRANCH  32  33
BRANCH  32  40
ATOM     39  C   UNL     1       5.511   4.371  14.470  0.00  0.00    +0.000 C 
ATOM     40  C   UNL     1       4.903   5.126  15.654  0.00  0.00    +0.000 C 
ENDBRANCH  32  40
ENDBRANCH   1  32
TORSDOF 8
ENDMDL
MODEL 5
REMARK VINA RESULT:      -9.3      3.118      8.893
REMARK  Name = 
REMARK  10 active torsions:
REMARK  status: ('A' for Active; 'I' for Inactive)
REMARK    1  A    between atoms: C_1  and  C_2
REMARK    2  A    between atoms: C_2  and  C_3
REMARK    3  A    between atoms: C_3  and  C_4
REMARK    4  A    between atoms: C_3  and  N_35
REMARK    5  A    between atoms: C_8  and  C_9
REMARK    6  A    between atoms: N_15  and  C_16
REMARK    7  A    between atoms: C_20  and  C_21
REMARK    8  A    between atoms: C_21  and  C_22
REMARK    9  A    between atoms: C_22  and  C_23
REMARK   10  A    between atoms: N_27  and  C_28
REMARK                            x       y       z     vdW  Elec       q    Type
REMARK                         _______ _______ _______ _____ _____    ______ ____
ROOT
ATOM      1  C   UNL     1      -0.011  11.313  19.360  0.00  0.00    +0.000 A 
ATOM      2  C   UNL     1       0.759  10.481  18.540  0.00  0.00    +0.000 A 
ATOM      3  C   UNL     1       1.270   9.335  19.102  0.00  0.00    +0.000 A 
ATOM      4  C   UNL     1       1.044   8.960  20.421  0.00  0.00    +0.000 A 
ATOM      5  C   UNL     1       0.303   9.774  21.270  0.00  0.00    +0.000 A 
ATOM      6  C   UNL     1      -0.207  10.966  20.722  0.00  0.00    +0.000 A 
ATOM      7  C   UNL     1       1.672   7.628  20.665  0.00  0.00    +0.000 C 
ATOM      8  N   UNL     1       2.306   7.317  19.389  0.00  0.00    +0.000 N 
ATOM      9  C   UNL     1       2.083   8.313  18.443  0.00  0.00    +0.000 C 
ATOM     10  O   UNL     1       2.426   8.418  17.280  0.00  0.00    +0.000 OA
ENDROOT
BRANCH   8  11
ATOM     11  C   UNL     1       3.034   6.124  19.181  0.00  0.00    +0.000 A 
ATOM     12  C   UNL     1       3.019   5.081  20.111  0.00  0.00    +0.000 A 
ATOM     13  C   UNL     1       3.737   3.913  19.880  0.00  0.00    +0.000 A 
ATOM     14  C   UNL     1       4.513   3.792  18.730  0.00  0.00    +0.000 A 
ATOM     15  C   UNL     1       4.601   4.828  17.783  0.00  0.00    +0.000 A 
ATOM     16  C   UNL     1       3.811   5.966  18.024  0.00  0.00    +0.000 A 
BRANCH  15  17
ATOM     17  C   UNL     1       5.582   4.749  16.526  0.00  0.00    +0.000 C 
ATOM     18  C   UNL     1       5.286   3.708  15.401  0.00  0.00    +0.000 C 
ATOM     19  O   UNL     1       5.493   4.727  14.381  0.00  0.00    +0.000 OA
ATOM     20  C   UNL     1       5.249   5.750  15.379  0.00  0.00    +0.000 C 
BRANCH  17  21
ATOM     21  C   UNL     1       7.060   4.791  16.952  0.00  0.00    +0.000 C 
BRANCH  21  22
ATOM     22  C   UNL     1       7.514   6.143  17.404  0.00  0.00    +0.000 A 
ATOM     23  N   UNL     1       7.586   7.225  16.654  0.00  0.00    +0.000 NA
ATOM     24  N   UNL     1       8.025   8.268  17.440  0.00  0.00    +0.000 NA
ATOM     25  C   UNL     1       8.209   7.805  18.652  0.00  0.00    +0.000 A 
ATOM     26  N   UNL     1       7.911   6.473  18.677  0.00  0.00    +0.000 N 
ATOM     27  C   UNL     1       7.992   5.625  19.834  0.00  0.00    +0.000 C 
ENDBRANCH  21  22
ENDBRANCH  17  21
ENDBRANCH  15  17
ENDBRANCH   8  11
BRANCH   5  28
ATOM     28  C   UNL     1       0.026   9.414  22.707  0.00  0.00    +0.000 C 
ATOM     29  F   UNL     1      -0.633  10.388  23.395  0.00  0.00    +0.000 F 
ATOM     30  F   UNL     1      -0.734   8.292  22.830  0.00  0.00    +0.000 F 
ATOM     31  F   UNL     1       1.168   9.177  23.411  0.00  0.00    +0.000 F 
ENDBRANCH   5  28
BRANCH   1  32
ATOM     32  C   UNL     1      -0.647  12.559  18.749  0.00  0.00    +0.000 C 
BRANCH  32  33
ATOM     33  N   UNL     1      -0.289  13.752  19.540  0.00  0.00    +0.000 NA
ATOM     34  C   UNL     1       0.444  14.780  18.777  0.00  0.00    +0.000 C 
ATOM     35  C   UNL     1      -0.259  16.110  19.010  0.00  0.00    +0.000 C 
ATOM     36  C   UNL     1      -1.040  15.885  20.280  0.00  0.00    +0.000 C 
ATOM     37  F   UNL     1      -0.224  16.080  21.351  0.00  0.00    +0.000 F 
ATOM     38  C   UNL     1      -1.432  14.420  20.183  0.00  0.00    +0.000 C 
ENDBRANCH  32  33
BRANCH  32  40
ATOM     39  C   UNL     1      -2.587  11.535  17.385  0.00  0.00    +0.000 C 
ATOM     40  C   UNL     1      -2.179  12.349  18.614  0.00  0.00    +0.000 C 
ENDBRANCH  32  40
ENDBRANCH   1  32
TORSDOF 8
ENDMDL
MODEL 6
REMARK VINA RESULT:      -9.2      3.146      9.311
REMARK  Name = 
REMARK  10 active torsions:
REMARK  status: ('A' for Active; 'I' for Inactive)
REMARK    1  A    between atoms: C_1  and  C_2
REMARK    2  A    between atoms: C_2  and  C_3
REMARK    3  A    between atoms: C_3  and  C_4
REMARK    4  A    between atoms: C_3  and  N_35
REMARK    5  A    between atoms: C_8  and  C_9
REMARK    6  A    between atoms: N_15  and  C_16
REMARK    7  A    between atoms: C_20  and  C_21
REMARK    8  A    between atoms: C_21  and  C_22
REMARK    9  A    between atoms: C_22  and  C_23
REMARK   10  A    between atoms: N_27  and  C_28
REMARK                            x       y       z     vdW  Elec       q    Type
REMARK                         _______ _______ _______ _____ _____    ______ ____
ROOT
ATOM      1  C   UNL     1      -0.676  10.841  19.357  0.00  0.00    +0.000 A 
ATOM      2  C   UNL     1       0.136  10.008  18.579  0.00  0.00    +0.000 A 
ATOM      3  C   UNL     1       0.882   9.059  19.236  0.00  0.00    +0.000 A 
ATOM      4  C   UNL     1       0.853   8.878  20.614  0.00  0.00    +0.000 A 
ATOM      5  C   UNL     1       0.077   9.702  21.419  0.00  0.00    +0.000 A 
ATOM      6  C   UNL     1      -0.675  10.700  20.770  0.00  0.00    +0.000 A 
ATOM      7  C   UNL     1       1.714   7.711  20.971  0.00  0.00    +0.000 C 
ATOM      8  N   UNL     1       2.260   7.290  19.686  0.00  0.00    +0.000 N 
ATOM      9  C   UNL     1       1.783   8.072  18.639  0.00  0.00    +0.000 C 
ATOM     10  O   UNL     1       1.985   8.033  17.440  0.00  0.00    +0.000 OA
ENDROOT
BRANCH   8  11
ATOM     11  C   UNL     1       3.151   6.200  19.568  0.00  0.00    +0.000 A 
ATOM     12  C   UNL     1       2.819   4.925  20.033  0.00  0.00    +0.000 A 
ATOM     13  C   UNL     1       3.709   3.865  19.897  0.00  0.00    +0.000 A 
ATOM     14  C   UNL     1       4.963   4.081  19.329  0.00  0.00    +0.000 A 
ATOM     15  C   UNL     1       5.366   5.352  18.886  0.00  0.00    +0.000 A 
ATOM     16  C   UNL     1       4.413   6.382  18.984  0.00  0.00    +0.000 A 
BRANCH  15  17
ATOM     17  C   UNL     1       6.842   5.636  18.347  0.00  0.00    +0.000 C 
ATOM     18  C   UNL     1       7.189   7.059  17.808  0.00  0.00    +0.000 C 
ATOM     19  O   UNL     1       8.421   7.070  18.584  0.00  0.00    +0.000 OA
ATOM     20  C   UNL     1       7.867   6.046  19.446  0.00  0.00    +0.000 C 
BRANCH  17  21
ATOM     21  C   UNL     1       7.349   4.495  17.447  0.00  0.00    +0.000 C 
BRANCH  21  22
ATOM     22  C   UNL     1       6.973   4.657  16.008  0.00  0.00    +0.000 A 
ATOM     23  N   UNL     1       7.694   5.258  15.083  0.00  0.00    +0.000 NA
ATOM     24  N   UNL     1       7.018   5.177  13.885  0.00  0.00    +0.000 NA
ATOM     25  C   UNL     1       5.900   4.527  14.101  0.00  0.00    +0.000 A 
ATOM     26  N   UNL     1       5.822   4.187  15.421  0.00  0.00    +0.000 N 
ATOM     27  C   UNL     1       4.740   3.466  16.032  0.00  0.00    +0.000 C 
ENDBRANCH  21  22
ENDBRANCH  17  21
ENDBRANCH  15  17
ENDBRANCH   8  11
BRANCH   5  28
ATOM     28  C   UNL     1       0.009   9.549  22.917  0.00  0.00    +0.000 C 
ATOM     29  F   UNL     1      -0.673   8.441  23.320  0.00  0.00    +0.000 F 
ATOM     30  F   UNL     1       1.239   9.459  23.491  0.00  0.00    +0.000 F 
ATOM     31  F   UNL     1      -0.612  10.602  23.518  0.00  0.00    +0.000 F 
ENDBRANCH   5  28
BRANCH   1  32
ATOM     32  C   UNL     1      -1.566  11.862  18.653  0.00  0.00    +0.000 C 
BRANCH  32  33
ATOM     33  N   UNL     1      -2.545  11.174  17.791  0.00  0.00    +0.000 NA
ATOM     34  C   UNL     1      -3.952  11.445  18.144  0.00  0.00    +0.000 C 
ATOM     35  C   UNL     1      -4.671  11.860  16.868  0.00  0.00    +0.000 C 
ATOM     36  C   UNL     1      -3.790  11.322  15.769  0.00  0.00    +0.000 C 
ATOM     37  F   UNL     1      -4.083  10.011  15.558  0.00  0.00    +0.000 F 
ATOM     38  C   UNL     1      -2.395  11.457  16.355  0.00  0.00    +0.000 C 
ENDBRANCH  32  33
BRANCH  32  40
ATOM     39  C   UNL     1       0.608  13.257  18.618  0.00  0.00    +0.000 C 
ATOM     40  C   UNL     1      -0.682  12.882  17.886  0.00  0.00    +0.000 C 
ENDBRANCH  32  40
ENDBRANCH   1  32
TORSDOF 8
ENDMDL
MODEL 7
REMARK VINA RESULT:      -9.2      2.974      8.808
REMARK  Name = 
REMARK  10 active torsions:
REMARK  status: ('A' for Active; 'I' for Inactive)
REMARK    1  A    between atoms: C_1  and  C_2
REMARK    2  A    between atoms: C_2  and  C_3
REMARK    3  A    between atoms: C_3  and  C_4
REMARK    4  A    between atoms: C_3  and  N_35
REMARK    5  A    between atoms: C_8  and  C_9
REMARK    6  A    between atoms: N_15  and  C_16
REMARK    7  A    between atoms: C_20  and  C_21
REMARK    8  A    between atoms: C_21  and  C_22
REMARK    9  A    between atoms: C_22  and  C_23
REMARK   10  A    between atoms: N_27  and  C_28
REMARK                            x       y       z     vdW  Elec       q    Type
REMARK                         _______ _______ _______ _____ _____    ______ ____
ROOT
ATOM      1  C   UNL     1      -0.261  11.268  19.370  0.00  0.00    +0.000 A 
ATOM      2  C   UNL     1       0.520  10.451  18.545  0.00  0.00    +0.000 A 
ATOM      3  C   UNL     1       1.087   9.335  19.113  0.00  0.00    +0.000 A 
ATOM      4  C   UNL     1       0.907   8.975  20.443  0.00  0.00    +0.000 A 
ATOM      5  C   UNL     1       0.157   9.775  21.297  0.00  0.00    +0.000 A 
ATOM      6  C   UNL     1      -0.410  10.938  20.743  0.00  0.00    +0.000 A 
ATOM      7  C   UNL     1       1.591   7.671  20.694  0.00  0.00    +0.000 C 
ATOM      8  N   UNL     1       2.204   7.362  19.408  0.00  0.00    +0.000 N 
ATOM      9  C   UNL     1       1.922   8.332  18.451  0.00  0.00    +0.000 C 
ATOM     10  O   UNL     1       2.231   8.429  17.279  0.00  0.00    +0.000 OA
ENDROOT
BRANCH   8  11
ATOM     11  C   UNL     1       2.971   6.193  19.202  0.00  0.00    +0.000 A 
ATOM     12  C   UNL     1       2.995   5.154  20.136  0.00  0.00    +0.000 A 
ATOM     13  C   UNL     1       3.751   4.010  19.907  0.00  0.00    +0.000 A 
ATOM     14  C   UNL     1       4.527   3.911  18.754  0.00  0.00    +0.000 A 
ATOM     15  C   UNL     1       4.575   4.944  17.802  0.00  0.00    +0.000 A 
ATOM     16  C   UNL     1       3.748   6.056  18.042  0.00  0.00    +0.000 A 
BRANCH  15  17
ATOM     17  C   UNL     1       5.553   4.893  16.541  0.00  0.00    +0.000 C 
ATOM     18  C   UNL     1       5.238   3.898  15.381  0.00  0.00    +0.000 C 
ATOM     19  O   UNL     1       5.460   4.949  14.397  0.00  0.00    +0.000 OA
ATOM     20  C   UNL     1       5.236   5.939  15.431  0.00  0.00    +0.000 C 
BRANCH  17  21
ATOM     21  C   UNL     1       7.032   4.895  16.966  0.00  0.00    +0.000 C 
BRANCH  21  22
ATOM     22  C   UNL     1       7.521   6.233  17.425  0.00  0.00    +0.000 A 
ATOM     23  N   UNL     1       7.631   7.314  16.678  0.00  0.00    +0.000 NA
ATOM     24  N   UNL     1       8.093   8.341  17.471  0.00  0.00    +0.000 NA
ATOM     25  C   UNL     1       8.253   7.871  18.683  0.00  0.00    +0.000 A 
ATOM     26  N   UNL     1       7.916   6.548  18.703  0.00  0.00    +0.000 N 
ATOM     27  C   UNL     1       7.962   5.695  19.858  0.00  0.00    +0.000 C 
ENDBRANCH  21  22
ENDBRANCH  17  21
ENDBRANCH  15  17
ENDBRANCH   8  11
BRANCH   5  28
ATOM     28  C   UNL     1      -0.071   9.431  22.747  0.00  0.00    +0.000 C 
ATOM     29  F   UNL     1       1.082   9.244  23.449  0.00  0.00    +0.000 F 
ATOM     30  F   UNL     1      -0.760  10.397  23.412  0.00  0.00    +0.000 F 
ATOM     31  F   UNL     1      -0.785   8.282  22.901  0.00  0.00    +0.000 F 
ENDBRANCH   5  28
BRANCH   1  32
ATOM     32  C   UNL     1      -0.957  12.479  18.755  0.00  0.00    +0.000 C 
BRANCH  32  33
ATOM     33  N   UNL     1      -2.093  12.043  17.921  0.00  0.00    +0.000 NA
ATOM     34  C   UNL     1      -1.867  10.763  17.222  0.00  0.00    +0.000 C 
ATOM     35  C   UNL     1      -3.069   9.872  17.502  0.00  0.00    +0.000 C 
ATOM     36  C   UNL     1      -4.147  10.843  17.914  0.00  0.00    +0.000 C 
ATOM     37  F   UNL     1      -4.737  11.359  16.803  0.00  0.00    +0.000 F 
ATOM     38  C   UNL     1      -3.369  11.925  18.644  0.00  0.00    +0.000 C 
ENDBRANCH  32  33
BRANCH  32  40
ATOM     39  C   UNL     1       1.284  13.762  18.822  0.00  0.00    +0.000 C 
ATOM     40  C   UNL     1       0.079  13.337  17.981  0.00  0.00    +0.000 C 
ENDBRANCH  32  40
ENDBRANCH   1  32
TORSDOF 8
ENDMDL
MODEL 8
REMARK VINA RESULT:      -9.0      1.194      1.521
REMARK  Name = 
REMARK  10 active torsions:
REMARK  status: ('A' for Active; 'I' for Inactive)
REMARK    1  A    between atoms: C_1  and  C_2
REMARK    2  A    between atoms: C_2  and  C_3
REMARK    3  A    between atoms: C_3  and  C_4
REMARK    4  A    between atoms: C_3  and  N_35
REMARK    5  A    between atoms: C_8  and  C_9
REMARK    6  A    between atoms: N_15  and  C_16
REMARK    7  A    between atoms: C_20  and  C_21
REMARK    8  A    between atoms: C_21  and  C_22
REMARK    9  A    between atoms: C_22  and  C_23
REMARK   10  A    between atoms: N_27  and  C_28
REMARK                            x       y       z     vdW  Elec       q    Type
REMARK                         _______ _______ _______ _____ _____    ______ ____
ROOT
ATOM      1  C   UNL     1       4.060   4.690  17.661  0.00  0.00    +0.000 A 
ATOM      2  C   UNL     1       3.796   6.053  17.838  0.00  0.00    +0.000 A 
ATOM      3  C   UNL     1       2.825   6.396  18.749  0.00  0.00    +0.000 A 
ATOM      4  C   UNL     1       2.118   5.468  19.504  0.00  0.00    +0.000 A 
ATOM      5  C   UNL     1       2.338   4.106  19.337  0.00  0.00    +0.000 A 
ATOM      6  C   UNL     1       3.309   3.731  18.389  0.00  0.00    +0.000 A 
ATOM      7  C   UNL     1       1.212   6.192  20.444  0.00  0.00    +0.000 C 
ATOM      8  N   UNL     1       1.439   7.595  20.116  0.00  0.00    +0.000 N 
ATOM      9  C   UNL     1       2.391   7.745  19.113  0.00  0.00    +0.000 C 
ATOM     10  O   UNL     1       2.858   8.734  18.580  0.00  0.00    +0.000 OA
ENDROOT
BRANCH   8  11
ATOM     11  C   UNL     1       0.760   8.642  20.778  0.00  0.00    +0.000 A 
ATOM     12  C   UNL     1       0.319   8.514  22.098  0.00  0.00    +0.000 A 
ATOM     13  C   UNL     1      -0.339   9.563  22.732  0.00  0.00    +0.000 A 
ATOM     14  C   UNL     1      -0.601  10.740  22.034  0.00  0.00    +0.000 A 
ATOM     15  C   UNL     1      -0.220  10.905  20.691  0.00  0.00    +0.000 A 
ATOM     16  C   UNL     1       0.498   9.846  20.108  0.00  0.00    +0.000 A 
BRANCH  15  17
ATOM     17  C   UNL     1      -0.622  12.200  19.847  0.00  0.00    +0.000 C 
ATOM     18  C   UNL     1       0.238  12.589  18.605  0.00  0.00    +0.000 C 
ATOM     19  O   UNL     1      -0.967  12.781  17.810  0.00  0.00    +0.000 OA
ATOM     20  C   UNL     1      -1.696  11.950  18.747  0.00  0.00    +0.000 C 
BRANCH  17  21
ATOM     21  C   UNL     1      -0.962  13.392  20.759  0.00  0.00    +0.000 C 
BRANCH  21  22
ATOM     22  C   UNL     1       0.236  14.186  21.177  0.00  0.00    +0.000 A 
ATOM     23  N   UNL     1       1.105  13.843  22.107  0.00  0.00    +0.000 NA
ATOM     24  N   UNL     1       2.071  14.822  22.179  0.00  0.00    +0.000 NA
ATOM     25  C   UNL     1       1.777  15.740  21.291  0.00  0.00    +0.000 A 
ATOM     26  N   UNL     1       0.627  15.390  20.643  0.00  0.00    +0.000 N 
ATOM     27  C   UNL     1      -0.005  16.151  19.601  0.00  0.00    +0.000 C 
ENDBRANCH  21  22
ENDBRANCH  17  21
ENDBRANCH  15  17
ENDBRANCH   8  11
BRANCH   5  28
ATOM     28  C   UNL     1       1.600   3.058  20.130  0.00  0.00    +0.000 C 
ATOM     29  F   UNL     1       1.548   3.323  21.465  0.00  0.00    +0.000 F 
ATOM     30  F   UNL     1       0.308   2.910  19.729  0.00  0.00    +0.000 F 
ATOM     31  F   UNL     1       2.173   1.828  20.022  0.00  0.00    +0.000 F 
ENDBRANCH   5  28
BRANCH   1  32
ATOM     32  C   UNL     1       5.177   4.278  16.706  0.00  0.00    +0.000 C 
BRANCH  32  33
ATOM     33  N   UNL     1       6.492   4.601  17.291  0.00  0.00    +0.000 NA
ATOM     34  C   UNL     1       7.100   5.835  16.756  0.00  0.00    +0.000 C 
ATOM     35  C   UNL     1       7.516   6.691  17.945  0.00  0.00    +0.000 C 
ATOM     36  C   UNL     1       7.598   5.707  19.084  0.00  0.00    +0.000 C 
ATOM     37  F   UNL     1       8.807   5.085  19.055  0.00  0.00    +0.000 F 
ATOM     38  C   UNL     1       6.493   4.716  18.758  0.00  0.00    +0.000 C 
ENDBRANCH  32  33
BRANCH  32  40
ATOM     39  C   UNL     1       5.571   4.165  14.155  0.00  0.00    +0.000 C 
ATOM     40  C   UNL     1       4.944   4.935  15.319  0.00  0.00    +0.000 C 
ENDBRANCH  32  40
ENDBRANCH   1  32
TORSDOF 8
ENDMDL
MODEL 9
REMARK VINA RESULT:      -9.0      2.504      3.495
REMARK  Name = 
REMARK  10 active torsions:
REMARK  status: ('A' for Active; 'I' for Inactive)
REMARK    1  A    between atoms: C_1  and  C_2
REMARK    2  A    between atoms: C_2  and  C_3
REMARK    3  A    between atoms: C_3  and  C_4
REMARK    4  A    between atoms: C_3  and  N_35
REMARK    5  A    between atoms: C_8  and  C_9
REMARK    6  A    between atoms: N_15  and  C_16
REMARK    7  A    between atoms: C_20  and  C_21
REMARK    8  A    between atoms: C_21  and  C_22
REMARK    9  A    between atoms: C_22  and  C_23
REMARK   10  A    between atoms: N_27  and  C_28
REMARK                            x       y       z     vdW  Elec       q    Type
REMARK                         _______ _______ _______ _____ _____    ______ ____
ROOT
ATOM      1  C   UNL     1       4.288   5.413  17.735  0.00  0.00    +0.000 A 
ATOM      2  C   UNL     1       3.858   6.721  17.486  0.00  0.00    +0.000 A 
ATOM      3  C   UNL     1       2.866   7.226  18.294  0.00  0.00    +0.000 A 
ATOM      4  C   UNL     1       2.293   6.515  19.341  0.00  0.00    +0.000 A 
ATOM      5  C   UNL     1       2.679   5.206  19.602  0.00  0.00    +0.000 A 
ATOM      6  C   UNL     1       3.674   4.659  18.770  0.00  0.00    +0.000 A 
ATOM      7  C   UNL     1       1.319   7.395  20.053  0.00  0.00    +0.000 C 
ATOM      8  N   UNL     1       1.362   8.634  19.285  0.00  0.00    +0.000 N 
ATOM      9  C   UNL     1       2.272   8.562  18.236  0.00  0.00    +0.000 C 
ATOM     10  O   UNL     1       2.604   9.374  17.392  0.00  0.00    +0.000 OA
ENDROOT
BRANCH   8  11
ATOM     11  C   UNL     1       0.568   9.754  19.619  0.00  0.00    +0.000 A 
ATOM     12  C   UNL     1       0.871  10.572  20.711  0.00  0.00    +0.000 A 
ATOM     13  C   UNL     1       0.079  11.674  21.014  0.00  0.00    +0.000 A 
ATOM     14  C   UNL     1      -1.053  11.946  20.249  0.00  0.00    +0.000 A 
ATOM     15  C   UNL     1      -1.430  11.131  19.167  0.00  0.00    +0.000 A 
ATOM     16  C   UNL     1      -0.567  10.064  18.856  0.00  0.00    +0.000 A 
BRANCH  15  17
ATOM     17  C   UNL     1      -2.789  11.362  18.362  0.00  0.00    +0.000 C 
ATOM     18  C   UNL     1      -2.745  11.401  16.802  0.00  0.00    +0.000 C 
ATOM     19  O   UNL     1      -3.889  10.503  16.731  0.00  0.00    +0.000 OA
ATOM     20  C   UNL     1      -3.607  10.066  18.084  0.00  0.00    +0.000 C 
BRANCH  17  21
ATOM     21  C   UNL     1      -3.636  12.487  18.983  0.00  0.00    +0.000 C 
BRANCH  21  22
ATOM     22  C   UNL     1      -5.033  12.070  19.318  0.00  0.00    +0.000 A 
ATOM     23  N   UNL     1      -5.421  11.502  20.443  0.00  0.00    +0.000 NA
ATOM     24  N   UNL     1      -6.781  11.294  20.375  0.00  0.00    +0.000 NA
ATOM     25  C   UNL     1      -7.197  11.741  19.215  0.00  0.00    +0.000 A 
ATOM     26  N   UNL     1      -6.133  12.229  18.511  0.00  0.00    +0.000 N 
ATOM     27  C   UNL     1      -6.200  12.803  17.196  0.00  0.00    +0.000 C 
ENDBRANCH  21  22
ENDBRANCH  17  21
ENDBRANCH  15  17
ENDBRANCH   8  11
BRANCH   5  28
ATOM     28  C   UNL     1       2.091   4.391  20.725  0.00  0.00    +0.000 C 
ATOM     29  F   UNL     1       2.539   3.105  20.757  0.00  0.00    +0.000 F 
ATOM     30  F   UNL     1       2.368   4.913  21.952  0.00  0.00    +0.000 F 
ATOM     31  F   UNL     1       0.734   4.306  20.649  0.00  0.00    +0.000 F 
ENDBRANCH   5  28
BRANCH   1  32
ATOM     32  C   UNL     1       5.432   4.846  16.899  0.00  0.00    +0.000 C 
BRANCH  32  33
ATOM     33  N   UNL     1       6.712   5.006  17.614  0.00  0.00    +0.000 NA
ATOM     34  C   UNL     1       7.490   6.188  17.195  0.00  0.00    +0.000 C 
ATOM     35  C   UNL     1       7.878   6.950  18.454  0.00  0.00    +0.000 C 
ATOM     36  C   UNL     1       7.752   5.921  19.549  0.00  0.00    +0.000 C 
ATOM     37  F   UNL     1       8.888   5.175  19.600  0.00  0.00    +0.000 F 
ATOM     38  C   UNL     1       6.587   5.066  19.079  0.00  0.00    +0.000 C 
ENDBRANCH  32  33
BRANCH  32  40
ATOM     39  C   UNL     1       5.417   4.504  14.339  0.00  0.00    +0.000 C 
ATOM     40  C   UNL     1       5.427   5.506  15.494  0.00  0.00    +0.000 C 
ENDBRANCH  32  40
ENDBRANCH   1  32
TORSDOF 8
ENDMDL
