MODEL 1
REMARK VINA RESULT:      -9.4      0.000      0.000
REMARK  Name = 
REMARK  10 active torsions:
REMARK  status: ('A' for Active; 'I' for Inactive)
REMARK    1  A    between atoms: C_1  and  C_2
REMARK    2  A    between atoms: C_2  and  C_3
REMARK    3  A    between atoms: C_2  and  C_10
REMARK    4  A    between atoms: C_3  and  C_4
REMARK    5  A    between atoms: N_8  and  C_9
REMARK    6  A    between atoms: C_14  and  N_15
REMARK    7  A    between atoms: C_16  and  C_18
REMARK    8  A    between atoms: C_20  and  C_21
REMARK    9  A    between atoms: C_26  and  O_27
REMARK   10  A    between atoms: C_30  and  C_31
REMARK                            x       y       z     vdW  Elec       q    Type
REMARK                         _______ _______ _______ _____ _____    ______ ____
ROOT
ATOM      1  N   UNL     1       0.933   7.927  21.207  0.00  0.00    +0.000 N 
ATOM      2  C   UNL     1       1.675   7.735  20.060  0.00  0.00    +0.000 C 
ATOM      3  O   UNL     1       1.837   8.539  19.147  0.00  0.00    +0.000 OA
ATOM      4  H   UNL     1       0.982   7.178  21.894  0.00  0.00    +0.000 HD
ENDROOT
BRANCH   1   9
ATOM      5  C   UNL     1      -1.018  11.067  20.781  0.00  0.00    +0.000 A 
ATOM      6  C   UNL     1      -1.279  11.388  22.121  0.00  0.00    +0.000 A 
ATOM      7  C   UNL     1      -0.776  10.605  23.156  0.00  0.00    +0.000 A 
ATOM      8  C   UNL     1      -0.027   9.468  22.870  0.00  0.00    +0.000 A 
ATOM      9  C   UNL     1       0.236   9.105  21.550  0.00  0.00    +0.000 A 
ATOM     10  C   UNL     1      -0.226   9.930  20.514  0.00  0.00    +0.000 A 
BRANCH   5  12
ATOM     11  C   UNL     1      -0.476  12.572  18.768  0.00  0.00    +0.000 C 
ATOM     12  C   UNL     1      -1.570  11.894  19.614  0.00  0.00    +0.000 C 
BRANCH  12  13
ATOM     13  C   UNL     1      -2.591  12.936  20.136  0.00  0.00    +0.000 C 
BRANCH  13  14
ATOM     14  C   UNL     1      -4.007  12.491  19.980  0.00  0.00    +0.000 A 
ATOM     15  N   UNL     1      -4.554  11.998  18.886  0.00  0.00    +0.000 NA
ATOM     16  N   UNL     1      -5.884  11.759  19.141  0.00  0.00    +0.000 NA
ATOM     17  C   UNL     1      -6.118  12.098  20.388  0.00  0.00    +0.000 A 
ATOM     18  N   UNL     1      -4.967  12.547  20.956  0.00  0.00    +0.000 N 
ATOM     19  C   UNL     1      -4.817  12.990  22.317  0.00  0.00    +0.000 C 
ENDBRANCH  13  14
ENDBRANCH  12  13
ENDBRANCH   5  12
ENDBRANCH   1   9
BRANCH   2  20
ATOM     20  C   UNL     1       2.352   6.408  19.953  0.00  0.00    +0.000 A 
ATOM     21  C   UNL     1       3.700   6.388  19.637  0.00  0.00    +0.000 A 
ATOM     22  C   UNL     1       4.290   5.163  19.386  0.00  0.00    +0.000 A 
ATOM     23  C   UNL     1       3.551   3.992  19.588  0.00  0.00    +0.000 A 
ATOM     24  C   UNL     1       2.209   4.084  19.960  0.00  0.00    +0.000 A 
ATOM     25  N   UNL     1       1.591   5.294  20.121  0.00  0.00    +0.000 NA
BRANCH  22  26
ATOM     26  C   UNL     1       5.685   5.040  18.890  0.00  0.00    +0.000 C 
ATOM     27  O   UNL     1       6.574   4.942  19.731  0.00  0.00    +0.000 OA
ATOM     28  N   UNL     1       5.933   4.948  17.529  0.00  0.00    +0.000 N 
ATOM     29  C   UNL     1       7.259   4.547  17.071  0.00  0.00    +0.000 C 
ATOM     30  C   UNL     1       7.126   4.280  15.575  0.00  0.00    +0.000 C 
ATOM     31  C   UNL     1       5.632   4.068  15.362  0.00  0.00    +0.000 C 
ATOM     32  C   UNL     1       5.002   4.980  16.408  0.00  0.00    +0.000 C 
BRANCH  31  33
ATOM     33  O   UNL     1       5.235   4.388  14.040  0.00  0.00    +0.000 OA
ATOM     34  H   UNL     1       4.269   4.294  13.971  0.00  0.00    +0.000 HD
ENDBRANCH  31  33
ENDBRANCH  22  26
BRANCH  24  35
ATOM     35  C   UNL     1       1.394   2.810  20.167  0.00  0.00    +0.000 C 
ATOM     36  F   UNL     1       0.194   2.820  19.515  0.00  0.00    +0.000 F 
ATOM     37  F   UNL     1       2.042   1.695  19.726  0.00  0.00    +0.000 F 
ATOM     38  F   UNL     1       1.098   2.583  21.478  0.00  0.00    +0.000 F 
ENDBRANCH  24  35
ENDBRANCH   2  20
TORSDOF 8
ENDMDL
MODEL 2
REMARK VINA RESULT:      -9.4      1.957      2.651
REMARK  Name = 
REMARK  10 active torsions:
REMARK  status: ('A' for Active; 'I' for Inactive)
REMARK    1  A    between atoms: C_1  and  C_2
REMARK    2  A    between atoms: C_2  and  C_3
REMARK    3  A    between atoms: C_2  and  C_10
REMARK    4  A    between atoms: C_3  and  C_4
REMARK    5  A    between atoms: N_8  and  C_9
REMARK    6  A    between atoms: C_14  and  N_15
REMARK    7  A    between atoms: C_16  and  C_18
REMARK    8  A    between atoms: C_20  and  C_21
REMARK    9  A    between atoms: C_26  and  O_27
REMARK   10  A    between atoms: C_30  and  C_31
REMARK                            x       y       z     vdW  Elec       q    Type
REMARK                         _______ _______ _______ _____ _____    ______ ____
ROOT
ATOM      1  N   UNL     1       2.267   7.443  19.868  0.00  0.00    +0.000 N 
ATOM      2  C   UNL     1       2.522   7.248  18.525  0.00  0.00    +0.000 C 
ATOM      3  O   UNL     1       2.056   7.890  17.589  0.00  0.00    +0.000 OA
ATOM      4  H   UNL     1       2.810   6.868  20.507  0.00  0.00    +0.000 HD
ENDROOT
BRANCH   1   9
ATOM      5  C   UNL     1       0.075  10.446  20.018  0.00  0.00    +0.000 A 
ATOM      6  C   UNL     1      -0.345  10.387  21.355  0.00  0.00    +0.000 A 
ATOM      7  C   UNL     1       0.128   9.397  22.211  0.00  0.00    +0.000 A 
ATOM      8  C   UNL     1       1.007   8.427  21.739  0.00  0.00    +0.000 A 
ATOM      9  C   UNL     1       1.431   8.441  20.410  0.00  0.00    +0.000 A 
ATOM     10  C   UNL     1       0.995   9.474  19.569  0.00  0.00    +0.000 A 
BRANCH   5  12
ATOM     11  C   UNL     1       0.374  12.820  19.075  0.00  0.00    +0.000 C 
ATOM     12  C   UNL     1      -0.436  11.510  19.041  0.00  0.00    +0.000 C 
BRANCH  12  13
ATOM     13  C   UNL     1      -1.941  11.785  19.292  0.00  0.00    +0.000 C 
BRANCH  13  14
ATOM     14  C   UNL     1      -2.786  11.536  18.086  0.00  0.00    +0.000 A 
ATOM     15  N   UNL     1      -2.356  11.181  16.891  0.00  0.00    +0.000 NA
ATOM     16  N   UNL     1      -3.441  11.102  16.051  0.00  0.00    +0.000 NA
ATOM     17  C   UNL     1      -4.511  11.397  16.752  0.00  0.00    +0.000 A 
ATOM     18  N   UNL     1      -4.150  11.661  18.036  0.00  0.00    +0.000 N 
ATOM     19  C   UNL     1      -5.045  12.003  19.109  0.00  0.00    +0.000 C 
ENDBRANCH  13  14
ENDBRANCH  12  13
ENDBRANCH   5  12
ENDBRANCH   1   9
BRANCH   2  20
ATOM     20  C   UNL     1       3.479   6.146  18.211  0.00  0.00    +0.000 A 
ATOM     21  C   UNL     1       4.570   6.439  17.410  0.00  0.00    +0.000 A 
ATOM     22  C   UNL     1       5.370   5.391  16.992  0.00  0.00    +0.000 A 
ATOM     23  C   UNL     1       5.133   4.106  17.494  0.00  0.00    +0.000 A 
ATOM     24  C   UNL     1       4.046   3.891  18.343  0.00  0.00    +0.000 A 
ATOM     25  N   UNL     1       3.194   4.905  18.688  0.00  0.00    +0.000 NA
BRANCH  22  26
ATOM     26  C   UNL     1       6.469   5.573  16.010  0.00  0.00    +0.000 C 
ATOM     27  O   UNL     1       7.517   6.061  16.424  0.00  0.00    +0.000 OA
ATOM     28  N   UNL     1       6.322   5.116  14.709  0.00  0.00    +0.000 N 
ATOM     29  C   UNL     1       7.493   5.044  13.842  0.00  0.00    +0.000 C 
ATOM     30  C   UNL     1       7.056   4.262  12.608  0.00  0.00    +0.000 C 
ATOM     31  C   UNL     1       5.807   3.513  13.058  0.00  0.00    +0.000 C 
ATOM     32  C   UNL     1       5.184   4.463  14.074  0.00  0.00    +0.000 C 
BRANCH  31  33
ATOM     33  O   UNL     1       4.944   3.222  11.973  0.00  0.00    +0.000 OA
ATOM     34  H   UNL     1       4.036   3.475  12.218  0.00  0.00    +0.000 HD
ENDBRANCH  31  33
ENDBRANCH  22  26
BRANCH  24  35
ATOM     35  C   UNL     1       3.773   2.489  18.880  0.00  0.00    +0.000 C 
ATOM     36  F   UNL     1       4.707   2.060  19.779  0.00  0.00    +0.000 F 
ATOM     37  F   UNL     1       2.575   2.397  19.523  0.00  0.00    +0.000 F 
ATOM     38  F   UNL     1       3.749   1.546  17.897  0.00  0.00    +0.000 F 
ENDBRANCH  24  35
ENDBRANCH   2  20
TORSDOF 8
ENDMDL
MODEL 3
REMARK VINA RESULT:      -9.4      0.501      1.186
REMARK  Name = 
REMARK  10 active torsions:
REMARK  status: ('A' for Active; 'I' for Inactive)
REMARK    1  A    between atoms: C_1  and  C_2
REMARK    2  A    between atoms: C_2  and  C_3
REMARK    3  A    between atoms: C_2  and  C_10
REMARK    4  A    between atoms: C_3  and  C_4
REMARK    5  A    between atoms: N_8  and  C_9
REMARK    6  A    between atoms: C_14  and  N_15
REMARK    7  A    between atoms: C_16  and  C_18
REMARK    8  A    between atoms: C_20  and  C_21
REMARK    9  A    between atoms: C_26  and  O_27
REMARK   10  A    between atoms: C_30  and  C_31
REMARK                            x       y       z     vdW  Elec       q    Type
REMARK                         _______ _______ _______ _____ _____    ______ ____
ROOT
ATOM      1  N   UNL     1       0.894   8.006  21.175  0.00  0.00    +0.000 N 
ATOM      2  C   UNL     1       1.660   7.813  20.043  0.00  0.00    +0.000 C 
ATOM      3  O   UNL     1       1.842   8.617  19.135  0.00  0.00    +0.000 OA
ATOM      4  H   UNL     1       0.928   7.256  21.862  0.00  0.00    +0.000 HD
ENDROOT
BRANCH   1   9
ATOM      5  C   UNL     1      -1.212  11.041  20.733  0.00  0.00    +0.000 A 
ATOM      6  C   UNL     1      -1.345  11.454  22.066  0.00  0.00    +0.000 A 
ATOM      7  C   UNL     1      -0.707  10.769  23.096  0.00  0.00    +0.000 A 
ATOM      8  C   UNL     1       0.052   9.637  22.815  0.00  0.00    +0.000 A 
ATOM      9  C   UNL     1       0.191   9.183  21.503  0.00  0.00    +0.000 A 
ATOM     10  C   UNL     1      -0.407   9.912  20.466  0.00  0.00    +0.000 A 
BRANCH   5  12
ATOM     11  C   UNL     1      -0.945  12.280  18.495  0.00  0.00    +0.000 C 
ATOM     12  C   UNL     1      -1.913  11.759  19.574  0.00  0.00    +0.000 C 
BRANCH  12  13
ATOM     13  C   UNL     1      -2.802  12.906  20.119  0.00  0.00    +0.000 C 
BRANCH  13  14
ATOM     14  C   UNL     1      -4.212  12.481  20.363  0.00  0.00    +0.000 A 
ATOM     15  N   UNL     1      -4.821  12.429  21.532  0.00  0.00    +0.000 NA
ATOM     16  N   UNL     1      -6.091  11.941  21.334  0.00  0.00    +0.000 NA
ATOM     17  C   UNL     1      -6.236  11.718  20.048  0.00  0.00    +0.000 A 
ATOM     18  N   UNL     1      -5.090  12.057  19.400  0.00  0.00    +0.000 N 
ATOM     19  C   UNL     1      -4.869  11.973  17.980  0.00  0.00    +0.000 C 
ENDBRANCH  13  14
ENDBRANCH  12  13
ENDBRANCH   5  12
ENDBRANCH   1   9
BRANCH   2  20
ATOM     20  C   UNL     1       2.338   6.486  19.950  0.00  0.00    +0.000 A 
ATOM     21  C   UNL     1       3.685   6.464  19.632  0.00  0.00    +0.000 A 
ATOM     22  C   UNL     1       4.277   5.236  19.394  0.00  0.00    +0.000 A 
ATOM     23  C   UNL     1       3.539   4.067  19.610  0.00  0.00    +0.000 A 
ATOM     24  C   UNL     1       2.197   4.162  19.983  0.00  0.00    +0.000 A 
ATOM     25  N   UNL     1       1.578   5.373  20.131  0.00  0.00    +0.000 NA
BRANCH  22  26
ATOM     26  C   UNL     1       5.671   5.109  18.896  0.00  0.00    +0.000 C 
ATOM     27  O   UNL     1       6.563   5.037  19.738  0.00  0.00    +0.000 OA
ATOM     28  N   UNL     1       5.915   4.986  17.537  0.00  0.00    +0.000 N 
ATOM     29  C   UNL     1       7.243   4.582  17.086  0.00  0.00    +0.000 C 
ATOM     30  C   UNL     1       7.107   4.277  15.598  0.00  0.00    +0.000 C 
ATOM     31  C   UNL     1       5.613   4.053  15.393  0.00  0.00    +0.000 C 
ATOM     32  C   UNL     1       4.982   4.985  16.419  0.00  0.00    +0.000 C 
BRANCH  31  33
ATOM     33  O   UNL     1       5.212   4.338  14.065  0.00  0.00    +0.000 OA
ATOM     34  H   UNL     1       4.429   3.799  13.852  0.00  0.00    +0.000 HD
ENDBRANCH  31  33
ENDBRANCH  22  26
BRANCH  24  35
ATOM     35  C   UNL     1       1.384   2.890  20.205  0.00  0.00    +0.000 C 
ATOM     36  F   UNL     1       2.041   1.752  19.835  0.00  0.00    +0.000 F 
ATOM     37  F   UNL     1       1.041   2.708  21.512  0.00  0.00    +0.000 F 
ATOM     38  F   UNL     1       0.216   2.885  19.502  0.00  0.00    +0.000 F 
ENDBRANCH  24  35
ENDBRANCH   2  20
TORSDOF 8
ENDMDL
MODEL 4
REMARK VINA RESULT:      -9.4      1.431      2.309
REMARK  Name = 
REMARK  10 active torsions:
REMARK  status: ('A' for Active; 'I' for Inactive)
REMARK    1  A    between atoms: C_1  and  C_2
REMARK    2  A    between atoms: C_2  and  C_3
REMARK    3  A    between atoms: C_2  and  C_10
REMARK    4  A    between atoms: C_3  and  C_4
REMARK    5  A    between atoms: N_8  and  C_9
REMARK    6  A    between atoms: C_14  and  N_15
REMARK    7  A    between atoms: C_16  and  C_18
REMARK    8  A    between atoms: C_20  and  C_21
REMARK    9  A    between atoms: C_26  and  O_27
REMARK   10  A    between atoms: C_30  and  C_31
REMARK                            x       y       z     vdW  Elec       q    Type
REMARK                         _______ _______ _______ _____ _____    ______ ____
ROOT
ATOM      1  N   UNL     1       1.758   8.682  18.994  0.00  0.00    +0.000 N 
ATOM      2  C   UNL     1       1.667   7.877  20.111  0.00  0.00    +0.000 C 
ATOM      3  O   UNL     1       1.096   8.144  21.164  0.00  0.00    +0.000 OA
ATOM      4  H   UNL     1       2.200   8.258  18.181  0.00  0.00    +0.000 HD
ENDROOT
BRANCH   1   9
ATOM      5  C   UNL     1      -0.827  11.358  18.987  0.00  0.00    +0.000 A 
ATOM      6  C   UNL     1      -0.027  12.483  18.736  0.00  0.00    +0.000 A 
ATOM      7  C   UNL     1       1.342  12.355  18.522  0.00  0.00    +0.000 A 
ATOM      8  C   UNL     1       1.945  11.102  18.586  0.00  0.00    +0.000 A 
ATOM      9  C   UNL     1       1.185   9.963  18.854  0.00  0.00    +0.000 A 
ATOM     10  C   UNL     1      -0.202  10.093  19.011  0.00  0.00    +0.000 A 
BRANCH   5  12
ATOM     11  C   UNL     1      -3.188  11.320  17.970  0.00  0.00    +0.000 C 
ATOM     12  C   UNL     1      -2.334  11.461  19.244  0.00  0.00    +0.000 C 
BRANCH  12  13
ATOM     13  C   UNL     1      -2.659  12.784  19.984  0.00  0.00    +0.000 C 
BRANCH  13  14
ATOM     14  C   UNL     1      -3.144  12.565  21.379  0.00  0.00    +0.000 A 
ATOM     15  N   UNL     1      -4.402  12.474  21.764  0.00  0.00    +0.000 NA
ATOM     16  N   UNL     1      -4.424  12.323  23.130  0.00  0.00    +0.000 NA
ATOM     17  C   UNL     1      -3.180  12.311  23.550  0.00  0.00    +0.000 A 
ATOM     18  N   UNL     1      -2.344  12.444  22.486  0.00  0.00    +0.000 N 
ATOM     19  C   UNL     1      -0.906  12.456  22.541  0.00  0.00    +0.000 C 
ENDBRANCH  13  14
ENDBRANCH  12  13
ENDBRANCH   5  12
ENDBRANCH   1   9
BRANCH   2  20
ATOM     20  C   UNL     1       2.328   6.543  19.993  0.00  0.00    +0.000 A 
ATOM     21  C   UNL     1       3.674   6.509  19.668  0.00  0.00    +0.000 A 
ATOM     22  C   UNL     1       4.248   5.278  19.407  0.00  0.00    +0.000 A 
ATOM     23  C   UNL     1       3.497   4.115  19.607  0.00  0.00    +0.000 A 
ATOM     24  C   UNL     1       2.158   4.220  19.989  0.00  0.00    +0.000 A 
ATOM     25  N   UNL     1       1.555   5.437  20.160  0.00  0.00    +0.000 NA
BRANCH  22  26
ATOM     26  C   UNL     1       5.638   5.142  18.901  0.00  0.00    +0.000 C 
ATOM     27  O   UNL     1       6.535   5.064  19.737  0.00  0.00    +0.000 OA
ATOM     28  N   UNL     1       5.874   5.017  17.541  0.00  0.00    +0.000 N 
ATOM     29  C   UNL     1       7.195   4.604  17.081  0.00  0.00    +0.000 C 
ATOM     30  C   UNL     1       7.048   4.301  15.593  0.00  0.00    +0.000 C 
ATOM     31  C   UNL     1       5.552   4.086  15.398  0.00  0.00    +0.000 C 
ATOM     32  C   UNL     1       4.933   5.023  16.428  0.00  0.00    +0.000 C 
BRANCH  31  33
ATOM     33  O   UNL     1       5.144   4.374  14.072  0.00  0.00    +0.000 OA
ATOM     34  H   UNL     1       5.649   5.142  13.749  0.00  0.00    +0.000 HD
ENDBRANCH  31  33
ENDBRANCH  22  26
BRANCH  24  35
ATOM     35  C   UNL     1       1.330   2.955  20.193  0.00  0.00    +0.000 C 
ATOM     36  F   UNL     1       1.964   1.818  19.786  0.00  0.00    +0.000 F 
ATOM     37  F   UNL     1       1.004   2.747  21.501  0.00  0.00    +0.000 F 
ATOM     38  F   UNL     1       0.151   2.984  19.510  0.00  0.00    +0.000 F 
ENDBRANCH  24  35
ENDBRANCH   2  20
TORSDOF 8
ENDMDL
MODEL 5
REMARK VINA RESULT:      -9.3      2.365      3.125
REMARK  Name = 
REMARK  10 active torsions:
REMARK  status: ('A' for Active; 'I' for Inactive)
REMARK    1  A    between atoms: C_1  and  C_2
REMARK    2  A    between atoms: C_2  and  C_3
REMARK    3  A    between atoms: C_2  and  C_10
REMARK    4  A    between atoms: C_3  and  C_4
REMARK    5  A    between atoms: N_8  and  C_9
REMARK    6  A    between atoms: C_14  and  N_15
REMARK    7  A    between atoms: C_16  and  C_18
REMARK    8  A    between atoms: C_20  and  C_21
REMARK    9  A    between atoms: C_26  and  O_27
REMARK   10  A    between atoms: C_30  and  C_31
REMARK                            x       y       z     vdW  Elec       q    Type
REMARK                         _______ _______ _______ _____ _____    ______ ____
ROOT
ATOM      1  N   UNL     1       1.017   7.967  21.257  0.00  0.00    +0.000 N 
ATOM      2  C   UNL     1       1.678   7.740  20.067  0.00  0.00    +0.000 C 
ATOM      3  O   UNL     1       1.765   8.511  19.117  0.00  0.00    +0.000 OA
ATOM      4  H   UNL     1       1.124   7.244  21.965  0.00  0.00    +0.000 HD
ENDROOT
BRANCH   1   9
ATOM      5  C   UNL     1      -0.562  11.316  20.883  0.00  0.00    +0.000 A 
ATOM      6  C   UNL     1      -1.135  11.469  22.153  0.00  0.00    +0.000 A 
ATOM      7  C   UNL     1      -0.962  10.503  23.140  0.00  0.00    +0.000 A 
ATOM      8  C   UNL     1      -0.237   9.347  22.864  0.00  0.00    +0.000 A 
ATOM      9  C   UNL     1       0.331   9.149  21.606  0.00  0.00    +0.000 A 
ATOM     10  C   UNL     1       0.200  10.153  20.636  0.00  0.00    +0.000 A 
BRANCH   5  12
ATOM     11  C   UNL     1      -1.525  11.813  18.551  0.00  0.00    +0.000 C 
ATOM     12  C   UNL     1      -0.745  12.349  19.766  0.00  0.00    +0.000 C 
BRANCH  12  13
ATOM     13  C   UNL     1       0.631  12.916  19.334  0.00  0.00    +0.000 C 
BRANCH  13  14
ATOM     14  C   UNL     1       1.247  13.799  20.369  0.00  0.00    +0.000 A 
ATOM     15  N   UNL     1       2.126  13.435  21.282  0.00  0.00    +0.000 NA
ATOM     16  N   UNL     1       2.403  14.528  22.070  0.00  0.00    +0.000 NA
ATOM     17  C   UNL     1       1.699  15.537  21.613  0.00  0.00    +0.000 A 
ATOM     18  N   UNL     1       0.972  15.131  20.539  0.00  0.00    +0.000 N 
ATOM     19  C   UNL     1       0.092  15.957  19.755  0.00  0.00    +0.000 C 
ENDBRANCH  13  14
ENDBRANCH  12  13
ENDBRANCH   5  12
ENDBRANCH   1   9
BRANCH   2  20
ATOM     20  C   UNL     1       2.363   6.417  19.960  0.00  0.00    +0.000 A 
ATOM     21  C   UNL     1       3.710   6.406  19.640  0.00  0.00    +0.000 A 
ATOM     22  C   UNL     1       4.308   5.184  19.389  0.00  0.00    +0.000 A 
ATOM     23  C   UNL     1       3.577   4.008  19.595  0.00  0.00    +0.000 A 
ATOM     24  C   UNL     1       2.235   4.092  19.972  0.00  0.00    +0.000 A 
ATOM     25  N   UNL     1       1.610   5.299  20.132  0.00  0.00    +0.000 NA
BRANCH  22  26
ATOM     26  C   UNL     1       5.701   5.069  18.887  0.00  0.00    +0.000 C 
ATOM     27  O   UNL     1       6.595   4.990  19.726  0.00  0.00    +0.000 OA
ATOM     28  N   UNL     1       5.944   4.964  17.526  0.00  0.00    +0.000 N 
ATOM     29  C   UNL     1       7.273   4.571  17.068  0.00  0.00    +0.000 C 
ATOM     30  C   UNL     1       7.135   4.285  15.576  0.00  0.00    +0.000 C 
ATOM     31  C   UNL     1       5.643   4.057  15.371  0.00  0.00    +0.000 C 
ATOM     32  C   UNL     1       5.008   4.974  16.409  0.00  0.00    +0.000 C 
BRANCH  31  33
ATOM     33  O   UNL     1       5.237   4.357  14.047  0.00  0.00    +0.000 OA
ATOM     34  H   UNL     1       4.322   4.051  13.923  0.00  0.00    +0.000 HD
ENDBRANCH  31  33
ENDBRANCH  22  26
BRANCH  24  35
ATOM     35  C   UNL     1       1.429   2.814  20.183  0.00  0.00    +0.000 C 
ATOM     36  F   UNL     1       1.151   2.557  21.494  0.00  0.00    +0.000 F 
ATOM     37  F   UNL     1       0.222   2.845  19.550  0.00  0.00    +0.000 F 
ATOM     38  F   UNL     1       2.072   1.705  19.719  0.00  0.00    +0.000 F 
ENDBRANCH  24  35
ENDBRANCH   2  20
TORSDOF 8
ENDMDL
MODEL 6
REMARK VINA RESULT:      -9.3      6.607      8.994
REMARK  Name = 
REMARK  10 active torsions:
REMARK  status: ('A' for Active; 'I' for Inactive)
REMARK    1  A    between atoms: C_1  and  C_2
REMARK    2  A    between atoms: C_2  and  C_3
REMARK    3  A    between atoms: C_2  and  C_10
REMARK    4  A    between atoms: C_3  and  C_4
REMARK    5  A    between atoms: N_8  and  C_9
REMARK    6  A    between atoms: C_14  and  N_15
REMARK    7  A    between atoms: C_16  and  C_18
REMARK    8  A    between atoms: C_20  and  C_21
REMARK    9  A    between atoms: C_26  and  O_27
REMARK   10  A    between atoms: C_30  and  C_31
REMARK                            x       y       z     vdW  Elec       q    Type
REMARK                         _______ _______ _______ _____ _____    ______ ____
ROOT
ATOM      1  N   UNL     1       7.803   9.059  17.771  0.00  0.00    +0.000 N 
ATOM      2  C   UNL     1       7.807   7.705  18.039  0.00  0.00    +0.000 C 
ATOM      3  O   UNL     1       8.563   7.109  18.801  0.00  0.00    +0.000 OA
ATOM      4  H   UNL     1       7.047   9.387  17.175  0.00  0.00    +0.000 HD
ENDROOT
BRANCH   1   9
ATOM      5  C   UNL     1       9.789  12.184  18.137  0.00  0.00    +0.000 A 
ATOM      6  C   UNL     1      10.252  12.038  19.452  0.00  0.00    +0.000 A 
ATOM      7  C   UNL     1       9.955  10.898  20.194  0.00  0.00    +0.000 A 
ATOM      8  C   UNL     1       9.161   9.895  19.645  0.00  0.00    +0.000 A 
ATOM      9  C   UNL     1       8.665  10.014  18.347  0.00  0.00    +0.000 A 
ATOM     10  C   UNL     1       9.016  11.138  17.587  0.00  0.00    +0.000 A 
BRANCH   5  12
ATOM     11  C   UNL     1      11.506  13.460  16.710  0.00  0.00    +0.000 C 
ATOM     12  C   UNL     1      10.081  13.431  17.295  0.00  0.00    +0.000 C 
BRANCH  12  13
ATOM     13  C   UNL     1       9.796  14.710  18.122  0.00  0.00    +0.000 C 
BRANCH  13  14
ATOM     14  C   UNL     1       8.342  15.033  18.211  0.00  0.00    +0.000 A 
ATOM     15  N   UNL     1       7.363  14.403  17.591  0.00  0.00    +0.000 NA
ATOM     16  N   UNL     1       6.182  15.038  17.897  0.00  0.00    +0.000 NA
ATOM     17  C   UNL     1       6.462  16.032  18.707  0.00  0.00    +0.000 A 
ATOM     18  N   UNL     1       7.800  16.058  18.943  0.00  0.00    +0.000 N 
ATOM     19  C   UNL     1       8.488  16.990  19.797  0.00  0.00    +0.000 C 
ENDBRANCH  13  14
ENDBRANCH  12  13
ENDBRANCH   5  12
ENDBRANCH   1   9
BRANCH   2  20
ATOM     20  C   UNL     1       6.762   6.910  17.327  0.00  0.00    +0.000 A 
ATOM     21  C   UNL     1       5.490   6.871  17.871  0.00  0.00    +0.000 A 
ATOM     22  C   UNL     1       4.566   6.014  17.300  0.00  0.00    +0.000 A 
ATOM     23  C   UNL     1       4.900   5.326  16.129  0.00  0.00    +0.000 A 
ATOM     24  C   UNL     1       6.187   5.454  15.602  0.00  0.00    +0.000 A 
ATOM     25  N   UNL     1       7.138   6.228  16.212  0.00  0.00    +0.000 NA
BRANCH  22  26
ATOM     26  C   UNL     1       3.226   5.780  17.897  0.00  0.00    +0.000 C 
ATOM     27  O   UNL     1       2.445   6.728  17.915  0.00  0.00    +0.000 OA
ATOM     28  N   UNL     1       2.867   4.510  18.323  0.00  0.00    +0.000 N 
ATOM     29  C   UNL     1       1.470   4.233  18.641  0.00  0.00    +0.000 C 
ATOM     30  C   UNL     1       1.367   2.720  18.803  0.00  0.00    +0.000 C 
ATOM     31  C   UNL     1       2.600   2.179  18.088  0.00  0.00    +0.000 C 
ATOM     32  C   UNL     1       3.636   3.272  18.315  0.00  0.00    +0.000 C 
BRANCH  31  33
ATOM     33  O   UNL     1       3.001   0.922  18.603  0.00  0.00    +0.000 OA
ATOM     34  H   UNL     1       3.043   0.979  19.574  0.00  0.00    +0.000 HD
ENDBRANCH  31  33
ENDBRANCH  22  26
BRANCH  24  35
ATOM     35  C   UNL     1       6.563   4.695  14.333  0.00  0.00    +0.000 C 
ATOM     36  F   UNL     1       5.530   4.565  13.451  0.00  0.00    +0.000 F 
ATOM     37  F   UNL     1       7.567   5.300  13.637  0.00  0.00    +0.000 F 
ATOM     38  F   UNL     1       6.990   3.426  14.588  0.00  0.00    +0.000 F 
ENDBRANCH  24  35
ENDBRANCH   2  20
TORSDOF 8
ENDMDL
MODEL 7
REMARK VINA RESULT:      -9.3      1.631      1.987
REMARK  Name = 
REMARK  10 active torsions:
REMARK  status: ('A' for Active; 'I' for Inactive)
REMARK    1  A    between atoms: C_1  and  C_2
REMARK    2  A    between atoms: C_2  and  C_3
REMARK    3  A    between atoms: C_2  and  C_10
REMARK    4  A    between atoms: C_3  and  C_4
REMARK    5  A    between atoms: N_8  and  C_9
REMARK    6  A    between atoms: C_14  and  N_15
REMARK    7  A    between atoms: C_16  and  C_18
REMARK    8  A    between atoms: C_20  and  C_21
REMARK    9  A    between atoms: C_26  and  O_27
REMARK   10  A    between atoms: C_30  and  C_31
REMARK                            x       y       z     vdW  Elec       q    Type
REMARK                         _______ _______ _______ _____ _____    ______ ____
ROOT
ATOM      1  N   UNL     1       1.577   8.494  18.907  0.00  0.00    +0.000 N 
ATOM      2  C   UNL     1       1.590   7.731  20.058  0.00  0.00    +0.000 C 
ATOM      3  O   UNL     1       1.061   8.010  21.129  0.00  0.00    +0.000 OA
ATOM      4  H   UNL     1       1.998   8.062  18.088  0.00  0.00    +0.000 HD
ENDROOT
BRANCH   1   9
ATOM      5  C   UNL     1      -1.136  10.939  18.193  0.00  0.00    +0.000 A 
ATOM      6  C   UNL     1      -0.495  12.137  18.540  0.00  0.00    +0.000 A 
ATOM      7  C   UNL     1       0.832  12.145  18.958  0.00  0.00    +0.000 A 
ATOM      8  C   UNL     1       1.537  10.950  19.067  0.00  0.00    +0.000 A 
ATOM      9  C   UNL     1       0.927   9.736  18.750  0.00  0.00    +0.000 A 
ATOM     10  C   UNL     1      -0.392   9.742  18.275  0.00  0.00    +0.000 A 
BRANCH   5  12
ATOM     11  C   UNL     1      -2.786  11.036  16.223  0.00  0.00    +0.000 C 
ATOM     12  C   UNL     1      -2.601  10.888  17.745  0.00  0.00    +0.000 C 
BRANCH  12  13
ATOM     13  C   UNL     1      -3.428  11.952  18.510  0.00  0.00    +0.000 C 
BRANCH  13  14
ATOM     14  C   UNL     1      -4.838  11.526  18.754  0.00  0.00    +0.000 A 
ATOM     15  N   UNL     1      -5.536  10.679  18.023  0.00  0.00    +0.000 NA
ATOM     16  N   UNL     1      -6.802  10.595  18.553  0.00  0.00    +0.000 NA
ATOM     17  C   UNL     1      -6.847  11.381  19.604  0.00  0.00    +0.000 A 
ATOM     18  N   UNL     1      -5.635  11.973  19.776  0.00  0.00    +0.000 N 
ATOM     19  C   UNL     1      -5.286  12.887  20.832  0.00  0.00    +0.000 C 
ENDBRANCH  13  14
ENDBRANCH  12  13
ENDBRANCH   5  12
ENDBRANCH   1   9
BRANCH   2  20
ATOM     20  C   UNL     1       2.317   6.431  19.953  0.00  0.00    +0.000 A 
ATOM     21  C   UNL     1       3.663   6.461  19.633  0.00  0.00    +0.000 A 
ATOM     22  C   UNL     1       4.299   5.258  19.386  0.00  0.00    +0.000 A 
ATOM     23  C   UNL     1       3.606   4.061  19.594  0.00  0.00    +0.000 A 
ATOM     24  C   UNL     1       2.262   4.103  19.971  0.00  0.00    +0.000 A 
ATOM     25  N   UNL     1       1.599   5.290  20.128  0.00  0.00    +0.000 NA
BRANCH  22  26
ATOM     26  C   UNL     1       5.696   5.187  18.885  0.00  0.00    +0.000 C 
ATOM     27  O   UNL     1       6.593   5.172  19.724  0.00  0.00    +0.000 OA
ATOM     28  N   UNL     1       5.942   5.048  17.527  0.00  0.00    +0.000 N 
ATOM     29  C   UNL     1       7.285   4.697  17.079  0.00  0.00    +0.000 C 
ATOM     30  C   UNL     1       7.158   4.357  15.597  0.00  0.00    +0.000 C 
ATOM     31  C   UNL     1       5.677   4.059  15.403  0.00  0.00    +0.000 C 
ATOM     32  C   UNL     1       5.005   4.982  16.413  0.00  0.00    +0.000 C 
BRANCH  31  33
ATOM     33  O   UNL     1       5.258   4.299  14.071  0.00  0.00    +0.000 OA
ATOM     34  H   UNL     1       4.990   3.454  13.670  0.00  0.00    +0.000 HD
ENDBRANCH  31  33
ENDBRANCH  22  26
BRANCH  24  35
ATOM     35  C   UNL     1       1.497   2.800  20.185  0.00  0.00    +0.000 C 
ATOM     36  F   UNL     1       1.370   2.454  21.499  0.00  0.00    +0.000 F 
ATOM     37  F   UNL     1       0.226   2.852  19.694  0.00  0.00    +0.000 F 
ATOM     38  F   UNL     1       2.094   1.735  19.580  0.00  0.00    +0.000 F 
ENDBRANCH  24  35
ENDBRANCH   2  20
TORSDOF 8
ENDMDL
MODEL 8
REMARK VINA RESULT:      -9.3      2.374      2.928
REMARK  Name = 
REMARK  10 active torsions:
REMARK  status: ('A' for Active; 'I' for Inactive)
REMARK    1  A    between atoms: C_1  and  C_2
REMARK    2  A    between atoms: C_2  and  C_3
REMARK    3  A    between atoms: C_2  and  C_10
REMARK    4  A    between atoms: C_3  and  C_4
REMARK    5  A    between atoms: N_8  and  C_9
REMARK    6  A    between atoms: C_14  and  N_15
REMARK    7  A    between atoms: C_16  and  C_18
REMARK    8  A    between atoms: C_20  and  C_21
REMARK    9  A    between atoms: C_26  and  O_27
REMARK   10  A    between atoms: C_30  and  C_31
REMARK                            x       y       z     vdW  Elec       q    Type
REMARK                         _______ _______ _______ _____ _____    ______ ____
ROOT
ATOM      1  N   UNL     1       2.265   8.361  17.788  0.00  0.00    +0.000 N 
ATOM      2  C   UNL     1       2.541   7.382  18.721  0.00  0.00    +0.000 C 
ATOM      3  O   UNL     1       2.194   7.372  19.898  0.00  0.00    +0.000 OA
ATOM      4  H   UNL     1       2.563   8.158  16.836  0.00  0.00    +0.000 HD
ENDROOT
BRANCH   1   9
ATOM      5  C   UNL     1      -0.711  10.559  18.187  0.00  0.00    +0.000 A 
ATOM      6  C   UNL     1      -0.093  11.751  18.591  0.00  0.00    +0.000 A 
ATOM      7  C   UNL     1       1.293  11.845  18.683  0.00  0.00    +0.000 A 
ATOM      8  C   UNL     1       2.087  10.737  18.403  0.00  0.00    +0.000 A 
ATOM      9  C   UNL     1       1.508   9.528  18.018  0.00  0.00    +0.000 A 
ATOM     10  C   UNL     1       0.116   9.458  17.872  0.00  0.00    +0.000 A 
BRANCH   5  12
ATOM     11  C   UNL     1      -2.693   9.503  16.934  0.00  0.00    +0.000 C 
ATOM     12  C   UNL     1      -2.233  10.412  18.090  0.00  0.00    +0.000 C 
BRANCH  12  13
ATOM     13  C   UNL     1      -2.898  11.809  17.993  0.00  0.00    +0.000 C 
BRANCH  13  14
ATOM     14  C   UNL     1      -3.861  12.072  19.103  0.00  0.00    +0.000 A 
ATOM     15  N   UNL     1      -3.570  12.584  20.283  0.00  0.00    +0.000 NA
ATOM     16  N   UNL     1      -4.723  12.617  21.032  0.00  0.00    +0.000 NA
ATOM     17  C   UNL     1      -5.694  12.139  20.290  0.00  0.00    +0.000 A 
ATOM     18  N   UNL     1      -5.203  11.799  19.069  0.00  0.00    +0.000 N 
ATOM     19  C   UNL     1      -5.966  11.258  17.974  0.00  0.00    +0.000 C 
ENDBRANCH  13  14
ENDBRANCH  12  13
ENDBRANCH   5  12
ENDBRANCH   1   9
BRANCH   2  20
ATOM     20  C   UNL     1       3.331   6.221  18.214  0.00  0.00    +0.000 A 
ATOM     21  C   UNL     1       4.481   6.482  17.490  0.00  0.00    +0.000 A 
ATOM     22  C   UNL     1       5.127   5.416  16.890  0.00  0.00    +0.000 A 
ATOM     23  C   UNL     1       4.681   4.114  17.143  0.00  0.00    +0.000 A 
ATOM     24  C   UNL     1       3.544   3.919  17.929  0.00  0.00    +0.000 A 
ATOM     25  N   UNL     1       2.844   4.974  18.451  0.00  0.00    +0.000 NA
BRANCH  22  26
ATOM     26  C   UNL     1       6.276   5.601  15.966  0.00  0.00    +0.000 C 
ATOM     27  O   UNL     1       7.292   6.111  16.429  0.00  0.00    +0.000 OA
ATOM     28  N   UNL     1       6.207   5.123  14.666  0.00  0.00    +0.000 N 
ATOM     29  C   UNL     1       7.424   5.057  13.866  0.00  0.00    +0.000 C 
ATOM     30  C   UNL     1       7.067   4.250  12.622  0.00  0.00    +0.000 C 
ATOM     31  C   UNL     1       5.806   3.488  13.015  0.00  0.00    +0.000 C 
ATOM     32  C   UNL     1       5.115   4.442  13.981  0.00  0.00    +0.000 C 
BRANCH  31  33
ATOM     33  O   UNL     1       5.009   3.167  11.889  0.00  0.00    +0.000 OA
ATOM     34  H   UNL     1       4.075   3.136  12.165  0.00  0.00    +0.000 HD
ENDBRANCH  31  33
ENDBRANCH  22  26
BRANCH  24  35
ATOM     35  C   UNL     1       3.044   2.502  18.196  0.00  0.00    +0.000 C 
ATOM     36  F   UNL     1       1.773   2.281  17.749  0.00  0.00    +0.000 F 
ATOM     37  F   UNL     1       3.815   1.552  17.595  0.00  0.00    +0.000 F 
ATOM     38  F   UNL     1       3.026   2.193  19.523  0.00  0.00    +0.000 F 
ENDBRANCH  24  35
ENDBRANCH   2  20
TORSDOF 8
ENDMDL
MODEL 9
REMARK VINA RESULT:      -9.3      2.331      2.934
REMARK  Name = 
REMARK  10 active torsions:
REMARK  status: ('A' for Active; 'I' for Inactive)
REMARK    1  A    between atoms: C_1  and  C_2
REMARK    2  A    between atoms: C_2  and  C_3
REMARK    3  A    between atoms: C_2  and  C_10
REMARK    4  A    between atoms: C_3  and  C_4
REMARK    5  A    between atoms: N_8  and  C_9
REMARK    6  A    between atoms: C_14  and  N_15
REMARK    7  A    between atoms: C_16  and  C_18
REMARK    8  A    between atoms: C_20  and  C_21
REMARK    9  A    between atoms: C_26  and  O_27
REMARK   10  A    between atoms: C_30  and  C_31
REMARK                            x       y       z     vdW  Elec       q    Type
REMARK                         _______ _______ _______ _____ _____    ______ ____
ROOT
ATOM      1  N   UNL     1       2.178   8.185  17.768  0.00  0.00    +0.000 N 
ATOM      2  C   UNL     1       2.510   7.226  18.703  0.00  0.00    +0.000 C 
ATOM      3  O   UNL     1       2.195   7.216  19.889  0.00  0.00    +0.000 OA
ATOM      4  H   UNL     1       2.458   7.982  16.811  0.00  0.00    +0.000 HD
ENDROOT
BRANCH   1   9
ATOM      5  C   UNL     1      -0.836  10.357  17.973  0.00  0.00    +0.000 A 
ATOM      6  C   UNL     1      -0.287  11.498  18.574  0.00  0.00    +0.000 A 
ATOM      7  C   UNL     1       1.073  11.572  18.863  0.00  0.00    +0.000 A 
ATOM      8  C   UNL     1       1.905  10.491  18.586  0.00  0.00    +0.000 A 
ATOM      9  C   UNL     1       1.391   9.330  18.007  0.00  0.00    +0.000 A 
ATOM     10  C   UNL     1       0.032   9.286  17.666  0.00  0.00    +0.000 A 
BRANCH   5  12
ATOM     11  C   UNL     1      -2.622   9.466  16.351  0.00  0.00    +0.000 C 
ATOM     12  C   UNL     1      -2.330  10.232  17.655  0.00  0.00    +0.000 C 
BRANCH  12  13
ATOM     13  C   UNL     1      -2.989  11.635  17.632  0.00  0.00    +0.000 C 
BRANCH  13  14
ATOM     14  C   UNL     1      -4.341  11.653  18.263  0.00  0.00    +0.000 A 
ATOM     15  N   UNL     1      -5.455  11.182  17.736  0.00  0.00    +0.000 NA
ATOM     16  N   UNL     1      -6.485  11.436  18.611  0.00  0.00    +0.000 NA
ATOM     17  C   UNL     1      -5.977  12.042  19.659  0.00  0.00    +0.000 A 
ATOM     18  N   UNL     1      -4.636  12.186  19.491  0.00  0.00    +0.000 N 
ATOM     19  C   UNL     1      -3.728  12.786  20.433  0.00  0.00    +0.000 C 
ENDBRANCH  13  14
ENDBRANCH  12  13
ENDBRANCH   5  12
ENDBRANCH   1   9
BRANCH   2  20
ATOM     20  C   UNL     1       3.323   6.085  18.186  0.00  0.00    +0.000 A 
ATOM     21  C   UNL     1       4.477   6.376  17.478  0.00  0.00    +0.000 A 
ATOM     22  C   UNL     1       5.146   5.330  16.869  0.00  0.00    +0.000 A 
ATOM     23  C   UNL     1       4.718   4.017  17.095  0.00  0.00    +0.000 A 
ATOM     24  C   UNL     1       3.576   3.792  17.866  0.00  0.00    +0.000 A 
ATOM     25  N   UNL     1       2.854   4.827  18.397  0.00  0.00    +0.000 NA
BRANCH  22  26
ATOM     26  C   UNL     1       6.301   5.547  15.960  0.00  0.00    +0.000 C 
ATOM     27  O   UNL     1       7.307   6.061  16.444  0.00  0.00    +0.000 OA
ATOM     28  N   UNL     1       6.251   5.095  14.651  0.00  0.00    +0.000 N 
ATOM     29  C   UNL     1       7.478   5.060  13.862  0.00  0.00    +0.000 C 
ATOM     30  C   UNL     1       7.142   4.274  12.598  0.00  0.00    +0.000 C 
ATOM     31  C   UNL     1       5.888   3.490  12.963  0.00  0.00    +0.000 C 
ATOM     32  C   UNL     1       5.175   4.416  13.940  0.00  0.00    +0.000 C 
BRANCH  31  33
ATOM     33  O   UNL     1       5.105   3.182  11.822  0.00  0.00    +0.000 OA
ATOM     34  H   UNL     1       5.698   3.056  11.060  0.00  0.00    +0.000 HD
ENDBRANCH  31  33
ENDBRANCH  22  26
BRANCH  24  35
ATOM     35  C   UNL     1       3.095   2.364  18.104  0.00  0.00    +0.000 C 
ATOM     36  F   UNL     1       4.067   1.424  17.919  0.00  0.00    +0.000 F 
ATOM     37  F   UNL     1       2.634   2.170  19.373  0.00  0.00    +0.000 F 
ATOM     38  F   UNL     1       2.076   2.007  17.272  0.00  0.00    +0.000 F 
ENDBRANCH  24  35
ENDBRANCH   2  20
TORSDOF 8
ENDMDL
