MODEL 1
REMARK VINA RESULT:      -9.3      0.000      0.000
REMARK  Name = 
REMARK  9 active torsions:
REMARK  status: ('A' for Active; 'I' for Inactive)
REMARK    1  A    between atoms: C_1  and  C_2
REMARK    2  A    between atoms: C_6  and  C_7
REMARK    3  A    between atoms: C_7  and  C_8
REMARK    4  A    between atoms: C_8  and  C_9
REMARK    5  A    between atoms: C_13  and  N_14
REMARK    6  A    between atoms: C_15  and  C_17
REMARK    7  A    between atoms: C_19  and  C_20
REMARK    8  A    between atoms: C_20  and  N_21
REMARK    9  A    between atoms: C_29  and  C_30
REMARK                            x       y       z     vdW  Elec       q    Type
REMARK                         _______ _______ _______ _____ _____    ______ ____
ROOT
ATOM      1  N   UNL     1       2.422   6.942  19.697  0.00  0.00    +0.000 N 
ATOM      2  C   UNL     1       2.233   7.941  18.762  0.00  0.00    +0.000 C 
ATOM      3  O   UNL     1       2.775   8.027  17.662  0.00  0.00    +0.000 OA
ATOM      4  H   UNL     1       1.970   7.110  20.594  0.00  0.00    +0.000 HD
ENDROOT
BRANCH   1   9
ATOM      5  C   UNL     1       5.587   5.188  18.867  0.00  0.00    +0.000 A 
ATOM      6  C   UNL     1       5.218   3.866  19.168  0.00  0.00    +0.000 A 
ATOM      7  C   UNL     1       3.950   3.551  19.656  0.00  0.00    +0.000 A 
ATOM      8  C   UNL     1       3.009   4.556  19.854  0.00  0.00    +0.000 A 
ATOM      9  C   UNL     1       3.333   5.881  19.586  0.00  0.00    +0.000 A 
ATOM     10  C   UNL     1       4.619   6.186  19.131  0.00  0.00    +0.000 A 
BRANCH   5  11
ATOM     11  C   UNL     1       6.986   5.588  18.180  0.00  0.00    +0.000 C 
ATOM     12  C   UNL     1       8.082   5.972  19.219  0.00  0.00    +0.000 C 
ATOM     13  O   UNL     1       8.152   7.327  18.740  0.00  0.00    +0.000 OA
ATOM     14  C   UNL     1       7.220   7.038  17.675  0.00  0.00    +0.000 C 
BRANCH  11  15
ATOM     15  C   UNL     1       7.460   4.491  17.208  0.00  0.00    +0.000 C 
BRANCH  15  21
ATOM     16  C   UNL     1       4.466   3.630  15.886  0.00  0.00    +0.000 C 
ATOM     17  C   UNL     1       5.663   4.236  15.260  0.00  0.00    +0.000 A 
ATOM     18  C   UNL     1       5.803   4.547  13.927  0.00  0.00    +0.000 A 
ATOM     19  O   UNL     1       7.020   5.081  13.698  0.00  0.00    +0.000 OA
ATOM     20  N   UNL     1       7.727   5.133  14.879  0.00  0.00    +0.000 NA
ATOM     21  C   UNL     1       6.919   4.623  15.820  0.00  0.00    +0.000 A 
ENDBRANCH  15  21
ENDBRANCH  11  15
ENDBRANCH   5  11
ENDBRANCH   1   9
BRANCH   2  22
ATOM     22  C   UNL     1       1.314   9.026  19.208  0.00  0.00    +0.000 A 
ATOM     23  C   UNL     1       0.565   9.678  18.261  0.00  0.00    +0.000 A 
ATOM     24  C   UNL     1      -0.284  10.642  18.741  0.00  0.00    +0.000 A 
ATOM     25  N   UNL     1      -0.368  10.934  20.062  0.00  0.00    +0.000 NA
ATOM     26  C   UNL     1       0.420  10.254  20.925  0.00  0.00    +0.000 A 
ATOM     27  N   UNL     1       1.280   9.294  20.537  0.00  0.00    +0.000 NA
BRANCH  26  28
ATOM     28  C   UNL     1       0.292  10.545  22.401  0.00  0.00    +0.000 C 
ATOM     29  C   UNL     1      -1.062  10.506  23.075  0.00  0.00    +0.000 C 
ATOM     30  C   UNL     1      -0.047   9.444  23.379  0.00  0.00    +0.000 C 
ENDBRANCH  26  28
BRANCH  24  31
ATOM     31  C   UNL     1      -1.162  11.410  17.771  0.00  0.00    +0.000 C 
BRANCH  31  32
ATOM     32  N   UNL     1      -2.395  10.699  17.387  0.00  0.00    +0.000 NA
ATOM     33  C   UNL     1      -2.780  11.016  16.000  0.00  0.00    +0.000 C 
ATOM     34  C   UNL     1      -4.300  10.956  15.972  0.00  0.00    +0.000 C 
ATOM     35  C   UNL     1      -4.671  11.353  17.363  0.00  0.00    +0.000 C 
ATOM     36  C   UNL     1      -6.096  11.180  17.841  0.00  0.00    +0.000 C 
ATOM     37  C   UNL     1      -5.554  12.561  17.613  0.00  0.00    +0.000 C 
ATOM     38  C   UNL     1      -3.508  11.084  18.277  0.00  0.00    +0.000 C 
ENDBRANCH  31  32
ENDBRANCH  24  31
ENDBRANCH   2  22
TORSDOF 8
ENDMDL
MODEL 2
REMARK VINA RESULT:      -9.3      2.672      9.152
REMARK  Name = 
REMARK  9 active torsions:
REMARK  status: ('A' for Active; 'I' for Inactive)
REMARK    1  A    between atoms: C_1  and  C_2
REMARK    2  A    between atoms: C_6  and  C_7
REMARK    3  A    between atoms: C_7  and  C_8
REMARK    4  A    between atoms: C_8  and  C_9
REMARK    5  A    between atoms: C_13  and  N_14
REMARK    6  A    between atoms: C_15  and  C_17
REMARK    7  A    between atoms: C_19  and  C_20
REMARK    8  A    between atoms: C_20  and  N_21
REMARK    9  A    between atoms: C_29  and  C_30
REMARK                            x       y       z     vdW  Elec       q    Type
REMARK                         _______ _______ _______ _____ _____    ______ ____
ROOT
ATOM      1  N   UNL     1       2.137   7.747  19.870  0.00  0.00    +0.000 N 
ATOM      2  C   UNL     1       2.336   7.712  18.503  0.00  0.00    +0.000 C 
ATOM      3  O   UNL     1       1.792   8.427  17.664  0.00  0.00    +0.000 OA
ATOM      4  H   UNL     1       2.593   6.997  20.384  0.00  0.00    +0.000 HD
ENDROOT
BRANCH   1   9
ATOM      5  C   UNL     1       0.350  10.851  20.846  0.00  0.00    +0.000 A 
ATOM      6  C   UNL     1      -0.468  10.348  21.871  0.00  0.00    +0.000 A 
ATOM      7  C   UNL     1      -0.450   9.001  22.230  0.00  0.00    +0.000 A 
ATOM      8  C   UNL     1       0.395   8.114  21.571  0.00  0.00    +0.000 A 
ATOM      9  C   UNL     1       1.212   8.561  20.539  0.00  0.00    +0.000 A 
ATOM     10  C   UNL     1       1.156   9.907  20.167  0.00  0.00    +0.000 A 
BRANCH   5  11
ATOM     11  C   UNL     1       0.463  12.414  20.484  0.00  0.00    +0.000 C 
ATOM     12  C   UNL     1       1.928  12.945  20.543  0.00  0.00    +0.000 C 
ATOM     13  O   UNL     1       1.629  13.837  21.630  0.00  0.00    +0.000 OA
ATOM     14  C   UNL     1       0.228  13.489  21.582  0.00  0.00    +0.000 C 
BRANCH  11  15
ATOM     15  C   UNL     1      -0.217  12.722  19.136  0.00  0.00    +0.000 C 
BRANCH  15  21
ATOM     16  C   UNL     1      -1.452  10.101  17.389  0.00  0.00    +0.000 C 
ATOM     17  C   UNL     1      -2.128  11.094  18.253  0.00  0.00    +0.000 A 
ATOM     18  C   UNL     1      -3.483  11.162  18.492  0.00  0.00    +0.000 A 
ATOM     19  O   UNL     1      -3.758  12.189  19.322  0.00  0.00    +0.000 OA
ATOM     20  N   UNL     1      -2.588  12.836  19.653  0.00  0.00    +0.000 NA
ATOM     21  C   UNL     1      -1.607  12.186  19.011  0.00  0.00    +0.000 A 
ENDBRANCH  15  21
ENDBRANCH  11  15
ENDBRANCH   5  11
ENDBRANCH   1   9
BRANCH   2  22
ATOM     22  C   UNL     1       3.271   6.641  18.053  0.00  0.00    +0.000 A 
ATOM     23  C   UNL     1       2.764   5.386  17.822  0.00  0.00    +0.000 A 
ATOM     24  C   UNL     1       3.669   4.458  17.378  0.00  0.00    +0.000 A 
ATOM     25  N   UNL     1       4.977   4.760  17.189  0.00  0.00    +0.000 NA
ATOM     26  C   UNL     1       5.395   6.016  17.459  0.00  0.00    +0.000 A 
ATOM     27  N   UNL     1       4.572   6.988  17.898  0.00  0.00    +0.000 NA
BRANCH  26  28
ATOM     28  C   UNL     1       6.842   6.366  17.203  0.00  0.00    +0.000 C 
ATOM     29  C   UNL     1       7.349   7.767  17.464  0.00  0.00    +0.000 C 
ATOM     30  C   UNL     1       7.785   6.639  18.352  0.00  0.00    +0.000 C 
ENDBRANCH  26  28
BRANCH  24  31
ATOM     31  C   UNL     1       3.201   3.045  17.084  0.00  0.00    +0.000 C 
BRANCH  31  32
ATOM     32  N   UNL     1       2.525   2.389  18.219  0.00  0.00    +0.000 NA
ATOM     33  C   UNL     1       1.113   2.802  18.306  0.00  0.00    +0.000 C 
ATOM     34  C   UNL     1       0.770   2.780  19.788  0.00  0.00    +0.000 C 
ATOM     35  C   UNL     1       2.077   3.097  20.434  0.00  0.00    +0.000 C 
ATOM     36  C   UNL     1       2.240   2.928  21.929  0.00  0.00    +0.000 C 
ATOM     37  C   UNL     1       2.222   4.307  21.337  0.00  0.00    +0.000 C 
ATOM     38  C   UNL     1       3.191   2.742  19.487  0.00  0.00    +0.000 C 
ENDBRANCH  31  32
ENDBRANCH  24  31
ENDBRANCH   2  22
TORSDOF 8
ENDMDL
MODEL 3
REMARK VINA RESULT:      -8.9      3.128     10.052
REMARK  Name = 
REMARK  9 active torsions:
REMARK  status: ('A' for Active; 'I' for Inactive)
REMARK    1  A    between atoms: C_1  and  C_2
REMARK    2  A    between atoms: C_6  and  C_7
REMARK    3  A    between atoms: C_7  and  C_8
REMARK    4  A    between atoms: C_8  and  C_9
REMARK    5  A    between atoms: C_13  and  N_14
REMARK    6  A    between atoms: C_15  and  C_17
REMARK    7  A    between atoms: C_19  and  C_20
REMARK    8  A    between atoms: C_20  and  N_21
REMARK    9  A    between atoms: C_29  and  C_30
REMARK                            x       y       z     vdW  Elec       q    Type
REMARK                         _______ _______ _______ _____ _____    ______ ____
ROOT
ATOM      1  N   UNL     1       1.152   8.969  19.132  0.00  0.00    +0.000 N 
ATOM      2  C   UNL     1       2.094   8.341  18.340  0.00  0.00    +0.000 C 
ATOM      3  O   UNL     1       2.502   8.723  17.245  0.00  0.00    +0.000 OA
ATOM      4  H   UNL     1       0.862   8.436  19.949  0.00  0.00    +0.000 HD
ENDROOT
BRANCH   1   9
ATOM      5  C   UNL     1       0.307  12.579  18.958  0.00  0.00    +0.000 A 
ATOM      6  C   UNL     1      -0.936  12.507  18.307  0.00  0.00    +0.000 A 
ATOM      7  C   UNL     1      -1.486  11.289  17.910  0.00  0.00    +0.000 A 
ATOM      8  C   UNL     1      -0.806  10.101  18.160  0.00  0.00    +0.000 A 
ATOM      9  C   UNL     1       0.434  10.123  18.788  0.00  0.00    +0.000 A 
ATOM     10  C   UNL     1       0.990  11.354  19.146  0.00  0.00    +0.000 A 
BRANCH   5  11
ATOM     11  C   UNL     1       0.923  13.942  19.551  0.00  0.00    +0.000 C 
ATOM     12  C   UNL     1      -0.067  15.143  19.463  0.00  0.00    +0.000 C 
ATOM     13  O   UNL     1       0.786  15.863  18.555  0.00  0.00    +0.000 OA
ATOM     14  C   UNL     1       1.811  14.851  18.656  0.00  0.00    +0.000 C 
BRANCH  11  15
ATOM     15  C   UNL     1       1.463  13.732  20.978  0.00  0.00    +0.000 C 
BRANCH  15  21
ATOM     16  C   UNL     1      -1.385  12.233  22.024  0.00  0.00    +0.000 C 
ATOM     17  C   UNL     1      -0.717  13.472  22.483  0.00  0.00    +0.000 A 
ATOM     18  C   UNL     1      -1.184  14.321  23.461  0.00  0.00    +0.000 A 
ATOM     19  O   UNL     1      -0.332  15.355  23.626  0.00  0.00    +0.000 OA
ATOM     20  N   UNL     1       0.725  15.220  22.752  0.00  0.00    +0.000 NA
ATOM     21  C   UNL     1       0.497  14.094  22.061  0.00  0.00    +0.000 A 
ENDBRANCH  15  21
ENDBRANCH  11  15
ENDBRANCH   5  11
ENDBRANCH   1   9
BRANCH   2  22
ATOM     22  C   UNL     1       2.586   7.046  18.891  0.00  0.00    +0.000 A 
ATOM     23  C   UNL     1       3.932   6.784  18.839  0.00  0.00    +0.000 A 
ATOM     24  C   UNL     1       4.322   5.592  19.391  0.00  0.00    +0.000 A 
ATOM     25  N   UNL     1       3.434   4.729  19.943  0.00  0.00    +0.000 NA
ATOM     26  C   UNL     1       2.123   5.059  19.935  0.00  0.00    +0.000 A 
ATOM     27  N   UNL     1       1.656   6.209  19.413  0.00  0.00    +0.000 NA
BRANCH  26  28
ATOM     28  C   UNL     1       1.139   4.121  20.592  0.00  0.00    +0.000 C 
ATOM     29  C   UNL     1       1.042   2.678  20.148  0.00  0.00    +0.000 C 
ATOM     30  C   UNL     1       1.618   3.006  21.493  0.00  0.00    +0.000 C 
ENDBRANCH  26  28
BRANCH  24  31
ATOM     31  C   UNL     1       5.793   5.218  19.392  0.00  0.00    +0.000 C 
BRANCH  31  32
ATOM     32  N   UNL     1       6.197   4.375  18.252  0.00  0.00    +0.000 NA
ATOM     33  C   UNL     1       7.488   4.818  17.696  0.00  0.00    +0.000 C 
ATOM     34  C   UNL     1       7.421   4.511  16.208  0.00  0.00    +0.000 C 
ATOM     35  C   UNL     1       5.964   4.639  15.910  0.00  0.00    +0.000 C 
ATOM     36  C   UNL     1       5.422   4.165  14.579  0.00  0.00    +0.000 C 
ATOM     37  C   UNL     1       5.468   5.634  14.879  0.00  0.00    +0.000 C 
ATOM     38  C   UNL     1       5.185   4.438  17.181  0.00  0.00    +0.000 C 
ENDBRANCH  31  32
ENDBRANCH  24  31
ENDBRANCH   2  22
TORSDOF 8
ENDMDL
MODEL 4
REMARK VINA RESULT:      -8.8      2.872      9.341
REMARK  Name = 
REMARK  9 active torsions:
REMARK  status: ('A' for Active; 'I' for Inactive)
REMARK    1  A    between atoms: C_1  and  C_2
REMARK    2  A    between atoms: C_6  and  C_7
REMARK    3  A    between atoms: C_7  and  C_8
REMARK    4  A    between atoms: C_8  and  C_9
REMARK    5  A    between atoms: C_13  and  N_14
REMARK    6  A    between atoms: C_15  and  C_17
REMARK    7  A    between atoms: C_19  and  C_20
REMARK    8  A    between atoms: C_20  and  N_21
REMARK    9  A    between atoms: C_29  and  C_30
REMARK                            x       y       z     vdW  Elec       q    Type
REMARK                         _______ _______ _______ _____ _____    ______ ____
ROOT
ATOM      1  N   UNL     1       1.297   8.720  17.747  0.00  0.00    +0.000 N 
ATOM      2  C   UNL     1       1.888   7.934  18.717  0.00  0.00    +0.000 C 
ATOM      3  O   UNL     1       1.716   8.015  19.931  0.00  0.00    +0.000 OA
ATOM      4  H   UNL     1       1.656   8.575  16.806  0.00  0.00    +0.000 HD
ENDROOT
BRANCH   1   9
ATOM      5  C   UNL     1       0.223  12.044  19.003  0.00  0.00    +0.000 A 
ATOM      6  C   UNL     1      -1.140  12.003  18.664  0.00  0.00    +0.000 A 
ATOM      7  C   UNL     1      -1.701  10.905  18.013  0.00  0.00    +0.000 A 
ATOM      8  C   UNL     1      -0.911   9.809  17.685  0.00  0.00    +0.000 A 
ATOM      9  C   UNL     1       0.447   9.810  17.985  0.00  0.00    +0.000 A 
ATOM     10  C   UNL     1       1.002  10.932  18.605  0.00  0.00    +0.000 A 
BRANCH   5  11
ATOM     11  C   UNL     1       0.890  13.226  19.867  0.00  0.00    +0.000 C 
ATOM     12  C   UNL     1       0.902  14.592  19.117  0.00  0.00    +0.000 C 
ATOM     13  O   UNL     1       2.339  14.630  19.076  0.00  0.00    +0.000 OA
ATOM     14  C   UNL     1       2.432  13.422  19.861  0.00  0.00    +0.000 C 
BRANCH  11  15
ATOM     15  C   UNL     1       0.241  13.328  21.261  0.00  0.00    +0.000 C 
BRANCH  15  21
ATOM     16  C   UNL     1      -2.510  12.181  22.863  0.00  0.00    +0.000 C 
ATOM     17  C   UNL     1      -1.203  11.538  22.600  0.00  0.00    +0.000 A 
ATOM     18  C   UNL     1      -0.827  10.282  23.021  0.00  0.00    +0.000 A 
ATOM     19  O   UNL     1       0.430  10.012  22.611  0.00  0.00    +0.000 OA
ATOM     20  N   UNL     1       0.925  11.089  21.910  0.00  0.00    +0.000 NA
ATOM     21  C   UNL     1      -0.049  12.010  21.903  0.00  0.00    +0.000 A 
ENDBRANCH  15  21
ENDBRANCH  11  15
ENDBRANCH   5  11
ENDBRANCH   1   9
BRANCH   2  22
ATOM     22  C   UNL     1       2.867   6.944  18.184  0.00  0.00    +0.000 A 
ATOM     23  C   UNL     1       2.427   5.672  17.912  0.00  0.00    +0.000 A 
ATOM     24  C   UNL     1       3.369   4.821  17.394  0.00  0.00    +0.000 A 
ATOM     25  N   UNL     1       4.648   5.212  17.174  0.00  0.00    +0.000 NA
ATOM     26  C   UNL     1       5.000   6.478  17.488  0.00  0.00    +0.000 A 
ATOM     27  N   UNL     1       4.138   7.377  18.000  0.00  0.00    +0.000 NA
BRANCH  26  28
ATOM     28  C   UNL     1       6.413   6.927  17.198  0.00  0.00    +0.000 C 
ATOM     29  C   UNL     1       7.533   6.604  18.162  0.00  0.00    +0.000 C 
ATOM     30  C   UNL     1       7.481   5.925  16.826  0.00  0.00    +0.000 C 
ENDBRANCH  26  28
BRANCH  24  31
ATOM     31  C   UNL     1       2.975   3.397  17.051  0.00  0.00    +0.000 C 
BRANCH  31  32
ATOM     32  N   UNL     1       2.432   2.635  18.189  0.00  0.00    +0.000 NA
ATOM     33  C   UNL     1       0.998   2.917  18.381  0.00  0.00    +0.000 C 
ATOM     34  C   UNL     1       0.752   2.799  19.877  0.00  0.00    +0.000 C 
ATOM     35  C   UNL     1       2.066   3.201  20.460  0.00  0.00    +0.000 C 
ATOM     36  C   UNL     1       2.337   2.981  21.932  0.00  0.00    +0.000 C 
ATOM     37  C   UNL     1       2.163   4.378  21.412  0.00  0.00    +0.000 C 
ATOM     38  C   UNL     1       3.143   2.989  19.432  0.00  0.00    +0.000 C 
ENDBRANCH  31  32
ENDBRANCH  24  31
ENDBRANCH   2  22
TORSDOF 8
ENDMDL
MODEL 5
REMARK VINA RESULT:      -8.8      2.940     10.250
REMARK  Name = 
REMARK  9 active torsions:
REMARK  status: ('A' for Active; 'I' for Inactive)
REMARK    1  A    between atoms: C_1  and  C_2
REMARK    2  A    between atoms: C_6  and  C_7
REMARK    3  A    between atoms: C_7  and  C_8
REMARK    4  A    between atoms: C_8  and  C_9
REMARK    5  A    between atoms: C_13  and  N_14
REMARK    6  A    between atoms: C_15  and  C_17
REMARK    7  A    between atoms: C_19  and  C_20
REMARK    8  A    between atoms: C_20  and  N_21
REMARK    9  A    between atoms: C_29  and  C_30
REMARK                            x       y       z     vdW  Elec       q    Type
REMARK                         _______ _______ _______ _____ _____    ______ ____
ROOT
ATOM      1  N   UNL     1       1.466   8.544  17.855  0.00  0.00    +0.000 N 
ATOM      2  C   UNL     1       2.089   7.803  18.841  0.00  0.00    +0.000 C 
ATOM      3  O   UNL     1       1.980   7.961  20.055  0.00  0.00    +0.000 OA
ATOM      4  H   UNL     1       1.774   8.335  16.908  0.00  0.00    +0.000 HD
ENDROOT
BRANCH   1   9
ATOM      5  C   UNL     1      -1.551  10.699  17.676  0.00  0.00    +0.000 A 
ATOM      6  C   UNL     1      -1.056  11.864  18.285  0.00  0.00    +0.000 A 
ATOM      7  C   UNL     1       0.250  11.939  18.769  0.00  0.00    +0.000 A 
ATOM      8  C   UNL     1       1.103  10.846  18.651  0.00  0.00    +0.000 A 
ATOM      9  C   UNL     1       0.652   9.666  18.069  0.00  0.00    +0.000 A 
ATOM     10  C   UNL     1      -0.670   9.594  17.622  0.00  0.00    +0.000 A 
BRANCH   5  11
ATOM     11  C   UNL     1      -3.002  10.605  16.985  0.00  0.00    +0.000 C 
ATOM     12  C   UNL     1      -3.000   9.739  15.689  0.00  0.00    +0.000 C 
ATOM     13  O   UNL     1      -3.347  10.863  14.861  0.00  0.00    +0.000 OA
ATOM     14  C   UNL     1      -3.478  11.721  16.015  0.00  0.00    +0.000 C 
BRANCH  11  15
ATOM     15  C   UNL     1      -4.069  10.142  17.996  0.00  0.00    +0.000 C 
BRANCH  15  21
ATOM     16  C   UNL     1      -3.834  12.707  20.191  0.00  0.00    +0.000 C 
ATOM     17  C   UNL     1      -4.955  12.269  19.329  0.00  0.00    +0.000 A 
ATOM     18  C   UNL     1      -6.206  12.840  19.287  0.00  0.00    +0.000 A 
ATOM     19  O   UNL     1      -6.985  12.191  18.396  0.00  0.00    +0.000 OA
ATOM     20  N   UNL     1      -6.267  11.163  17.825  0.00  0.00    +0.000 NA
ATOM     21  C   UNL     1      -5.049  11.202  18.385  0.00  0.00    +0.000 A 
ENDBRANCH  15  21
ENDBRANCH  11  15
ENDBRANCH   5  11
ENDBRANCH   1   9
BRANCH   2  22
ATOM     22  C   UNL     1       3.019   6.760  18.321  0.00  0.00    +0.000 A 
ATOM     23  C   UNL     1       2.500   5.538  17.974  0.00  0.00    +0.000 A 
ATOM     24  C   UNL     1       3.402   4.636  17.473  0.00  0.00    +0.000 A 
ATOM     25  N   UNL     1       4.718   4.933  17.338  0.00  0.00    +0.000 NA
ATOM     26  C   UNL     1       5.147   6.156  17.722  0.00  0.00    +0.000 A 
ATOM     27  N   UNL     1       4.327   7.099  18.224  0.00  0.00    +0.000 NA
BRANCH  26  28
ATOM     28  C   UNL     1       6.603   6.504  17.527  0.00  0.00    +0.000 C 
ATOM     29  C   UNL     1       7.608   6.240  18.627  0.00  0.00    +0.000 C 
ATOM     30  C   UNL     1       7.643   5.418  17.372  0.00  0.00    +0.000 C 
ENDBRANCH  26  28
BRANCH  24  31
ATOM     31  C   UNL     1       2.922   3.260  17.050  0.00  0.00    +0.000 C 
BRANCH  31  32
ATOM     32  N   UNL     1       2.351   2.461  18.150  0.00  0.00    +0.000 NA
ATOM     33  C   UNL     1       0.933   2.799  18.370  0.00  0.00    +0.000 C 
ATOM     34  C   UNL     1       0.693   2.609  19.860  0.00  0.00    +0.000 C 
ATOM     35  C   UNL     1       2.028   2.916  20.452  0.00  0.00    +0.000 C 
ATOM     36  C   UNL     1       2.298   2.601  21.907  0.00  0.00    +0.000 C 
ATOM     37  C   UNL     1       2.187   4.032  21.467  0.00  0.00    +0.000 C 
ATOM     38  C   UNL     1       3.087   2.711  19.404  0.00  0.00    +0.000 C 
ENDBRANCH  31  32
ENDBRANCH  24  31
ENDBRANCH   2  22
TORSDOF 8
ENDMDL
MODEL 6
REMARK VINA RESULT:      -8.7      2.812      9.257
REMARK  Name = 
REMARK  9 active torsions:
REMARK  status: ('A' for Active; 'I' for Inactive)
REMARK    1  A    between atoms: C_1  and  C_2
REMARK    2  A    between atoms: C_6  and  C_7
REMARK    3  A    between atoms: C_7  and  C_8
REMARK    4  A    between atoms: C_8  and  C_9
REMARK    5  A    between atoms: C_13  and  N_14
REMARK    6  A    between atoms: C_15  and  C_17
REMARK    7  A    between atoms: C_19  and  C_20
REMARK    8  A    between atoms: C_20  and  N_21
REMARK    9  A    between atoms: C_29  and  C_30
REMARK                            x       y       z     vdW  Elec       q    Type
REMARK                         _______ _______ _______ _____ _____    ______ ____
ROOT
ATOM      1  N   UNL     1       1.894   8.006  20.014  0.00  0.00    +0.000 N 
ATOM      2  C   UNL     1       2.243   8.066  18.678  0.00  0.00    +0.000 C 
ATOM      3  O   UNL     1       1.901   8.925  17.869  0.00  0.00    +0.000 OA
ATOM      4  H   UNL     1       2.181   7.154  20.490  0.00  0.00    +0.000 HD
ENDROOT
BRANCH   1   9
ATOM      5  C   UNL     1      -0.444  10.858  20.446  0.00  0.00    +0.000 A 
ATOM      6  C   UNL     1      -0.643  10.801  21.836  0.00  0.00    +0.000 A 
ATOM      7  C   UNL     1      -0.033   9.826  22.624  0.00  0.00    +0.000 A 
ATOM      8  C   UNL     1       0.802   8.878  22.042  0.00  0.00    +0.000 A 
ATOM      9  C   UNL     1       1.018   8.885  20.668  0.00  0.00    +0.000 A 
ATOM     10  C   UNL     1       0.371   9.845  19.886  0.00  0.00    +0.000 A 
BRANCH   5  11
ATOM     11  C   UNL     1      -1.017  12.037  19.513  0.00  0.00    +0.000 C 
ATOM     12  C   UNL     1      -2.550  11.916  19.258  0.00  0.00    +0.000 C 
ATOM     13  O   UNL     1      -2.364  11.710  17.847  0.00  0.00    +0.000 OA
ATOM     14  C   UNL     1      -0.940  11.914  17.966  0.00  0.00    +0.000 C 
BRANCH  11  15
ATOM     15  C   UNL     1      -0.622  13.421  20.062  0.00  0.00    +0.000 C 
BRANCH  15  21
ATOM     16  C   UNL     1       2.122  13.263  18.088  0.00  0.00    +0.000 C 
ATOM     17  C   UNL     1       1.989  13.474  19.547  0.00  0.00    +0.000 A 
ATOM     18  C   UNL     1       3.030  13.616  20.436  0.00  0.00    +0.000 A 
ATOM     19  O   UNL     1       2.554  13.788  21.687  0.00  0.00    +0.000 OA
ATOM     20  N   UNL     1       1.177  13.758  21.661  0.00  0.00    +0.000 NA
ATOM     21  C   UNL     1       0.832  13.565  20.379  0.00  0.00    +0.000 A 
ENDBRANCH  15  21
ENDBRANCH  11  15
ENDBRANCH   5  11
ENDBRANCH   1   9
BRANCH   2  22
ATOM     22  C   UNL     1       3.068   6.914  18.214  0.00  0.00    +0.000 A 
ATOM     23  C   UNL     1       2.430   5.744  17.885  0.00  0.00    +0.000 A 
ATOM     24  C   UNL     1       3.243   4.737  17.434  0.00  0.00    +0.000 A 
ATOM     25  N   UNL     1       4.586   4.887  17.331  0.00  0.00    +0.000 NA
ATOM     26  C   UNL     1       5.134   6.068  17.694  0.00  0.00    +0.000 A 
ATOM     27  N   UNL     1       4.408   7.108  18.147  0.00  0.00    +0.000 NA
BRANCH  26  28
ATOM     28  C   UNL     1       6.624   6.252  17.533  0.00  0.00    +0.000 C 
ATOM     29  C   UNL     1       7.572   5.821  18.630  0.00  0.00    +0.000 C 
ATOM     30  C   UNL     1       7.533   5.061  17.338  0.00  0.00    +0.000 C 
ENDBRANCH  26  28
BRANCH  24  31
ATOM     31  C   UNL     1       2.628   3.408  17.035  0.00  0.00    +0.000 C 
BRANCH  31  32
ATOM     32  N   UNL     1       2.144   2.606  18.173  0.00  0.00    +0.000 NA
ATOM     33  C   UNL     1       0.744   2.935  18.496  0.00  0.00    +0.000 C 
ATOM     34  C   UNL     1       0.613   2.743  19.999  0.00  0.00    +0.000 C 
ATOM     35  C   UNL     1       1.986   3.059  20.492  0.00  0.00    +0.000 C 
ATOM     36  C   UNL     1       2.363   2.746  21.924  0.00  0.00    +0.000 C 
ATOM     37  C   UNL     1       2.212   4.176  21.494  0.00  0.00    +0.000 C 
ATOM     38  C   UNL     1       2.968   2.861  19.370  0.00  0.00    +0.000 C 
ENDBRANCH  31  32
ENDBRANCH  24  31
ENDBRANCH   2  22
TORSDOF 8
ENDMDL
MODEL 7
REMARK VINA RESULT:      -8.7      3.058      9.575
REMARK  Name = 
REMARK  9 active torsions:
REMARK  status: ('A' for Active; 'I' for Inactive)
REMARK    1  A    between atoms: C_1  and  C_2
REMARK    2  A    between atoms: C_6  and  C_7
REMARK    3  A    between atoms: C_7  and  C_8
REMARK    4  A    between atoms: C_8  and  C_9
REMARK    5  A    between atoms: C_13  and  N_14
REMARK    6  A    between atoms: C_15  and  C_17
REMARK    7  A    between atoms: C_19  and  C_20
REMARK    8  A    between atoms: C_20  and  N_21
REMARK    9  A    between atoms: C_29  and  C_30
REMARK                            x       y       z     vdW  Elec       q    Type
REMARK                         _______ _______ _______ _____ _____    ______ ____
ROOT
ATOM      1  N   UNL     1       2.088   7.573  19.857  0.00  0.00    +0.000 N 
ATOM      2  C   UNL     1       2.488   7.660  18.538  0.00  0.00    +0.000 C 
ATOM      3  O   UNL     1       2.249   8.580  17.758  0.00  0.00    +0.000 OA
ATOM      4  H   UNL     1       2.285   6.679  20.302  0.00  0.00    +0.000 HD
ENDROOT
BRANCH   1   9
ATOM      5  C   UNL     1       0.007  10.606  20.355  0.00  0.00    +0.000 A 
ATOM      6  C   UNL     1      -0.264  10.493  21.729  0.00  0.00    +0.000 A 
ATOM      7  C   UNL     1       0.215   9.424  22.485  0.00  0.00    +0.000 A 
ATOM      8  C   UNL     1       0.986   8.433  21.884  0.00  0.00    +0.000 A 
ATOM      9  C   UNL     1       1.267   8.494  20.523  0.00  0.00    +0.000 A 
ATOM     10  C   UNL     1       0.750   9.553  19.772  0.00  0.00    +0.000 A 
BRANCH   5  11
ATOM     11  C   UNL     1      -0.409  11.883  19.468  0.00  0.00    +0.000 C 
ATOM     12  C   UNL     1      -1.583  12.698  20.093  0.00  0.00    +0.000 C 
ATOM     13  O   UNL     1      -2.458  12.404  18.990  0.00  0.00    +0.000 OA
ATOM     14  C   UNL     1      -1.401  11.720  18.283  0.00  0.00    +0.000 C 
BRANCH  11  15
ATOM     15  C   UNL     1       0.815  12.765  19.157  0.00  0.00    +0.000 C 
BRANCH  15  21
ATOM     16  C   UNL     1       0.228  16.091  19.363  0.00  0.00    +0.000 C 
ATOM     17  C   UNL     1       0.915  15.169  20.295  0.00  0.00    +0.000 A 
ATOM     18  C   UNL     1       1.516  15.525  21.481  0.00  0.00    +0.000 A 
ATOM     19  O   UNL     1       2.050  14.439  22.078  0.00  0.00    +0.000 OA
ATOM     20  N   UNL     1       1.820  13.328  21.296  0.00  0.00    +0.000 NA
ATOM     21  C   UNL     1       1.143  13.761  20.223  0.00  0.00    +0.000 A 
ENDBRANCH  15  21
ENDBRANCH  11  15
ENDBRANCH   5  11
ENDBRANCH   1   9
BRANCH   2  22
ATOM     22  C   UNL     1       3.229   6.463  18.047  0.00  0.00    +0.000 A 
ATOM     23  C   UNL     1       2.528   5.301  17.839  0.00  0.00    +0.000 A 
ATOM     24  C   UNL     1       3.262   4.249  17.357  0.00  0.00    +0.000 A 
ATOM     25  N   UNL     1       4.592   4.351  17.110  0.00  0.00    +0.000 NA
ATOM     26  C   UNL     1       5.206   5.528  17.361  0.00  0.00    +0.000 A 
ATOM     27  N   UNL     1       4.560   6.610  17.835  0.00  0.00    +0.000 NA
BRANCH  26  28
ATOM     28  C   UNL     1       6.676   5.657  17.042  0.00  0.00    +0.000 C 
ATOM     29  C   UNL     1       7.677   4.694  17.639  0.00  0.00    +0.000 C 
ATOM     30  C   UNL     1       7.371   4.634  16.173  0.00  0.00    +0.000 C 
ENDBRANCH  26  28
BRANCH  24  31
ATOM     31  C   UNL     1       2.573   2.925  17.084  0.00  0.00    +0.000 C 
BRANCH  31  32
ATOM     32  N   UNL     1       2.043   2.266  18.291  0.00  0.00    +0.000 NA
ATOM     33  C   UNL     1       0.668   2.713  18.579  0.00  0.00    +0.000 C 
ATOM     34  C   UNL     1       0.531   2.672  20.093  0.00  0.00    +0.000 C 
ATOM     35  C   UNL     1       1.923   2.944  20.558  0.00  0.00    +0.000 C 
ATOM     36  C   UNL     1       2.285   2.744  22.013  0.00  0.00    +0.000 C 
ATOM     37  C   UNL     1       2.224   4.134  21.450  0.00  0.00    +0.000 C 
ATOM     38  C   UNL     1       2.886   2.579  19.461  0.00  0.00    +0.000 C 
ENDBRANCH  31  32
ENDBRANCH  24  31
ENDBRANCH   2  22
TORSDOF 8
ENDMDL
MODEL 8
REMARK VINA RESULT:      -8.6      2.998      9.441
REMARK  Name = 
REMARK  9 active torsions:
REMARK  status: ('A' for Active; 'I' for Inactive)
REMARK    1  A    between atoms: C_1  and  C_2
REMARK    2  A    between atoms: C_6  and  C_7
REMARK    3  A    between atoms: C_7  and  C_8
REMARK    4  A    between atoms: C_8  and  C_9
REMARK    5  A    between atoms: C_13  and  N_14
REMARK    6  A    between atoms: C_15  and  C_17
REMARK    7  A    between atoms: C_19  and  C_20
REMARK    8  A    between atoms: C_20  and  N_21
REMARK    9  A    between atoms: C_29  and  C_30
REMARK                            x       y       z     vdW  Elec       q    Type
REMARK                         _______ _______ _______ _____ _____    ______ ____
ROOT
ATOM      1  N   UNL     1       1.976   7.936  20.062  0.00  0.00    +0.000 N 
ATOM      2  C   UNL     1       2.198   7.944  18.699  0.00  0.00    +0.000 C 
ATOM      3  O   UNL     1       1.727   8.735  17.883  0.00  0.00    +0.000 OA
ATOM      4  H   UNL     1       2.362   7.131  20.550  0.00  0.00    +0.000 HD
ENDROOT
BRANCH   1   9
ATOM      5  C   UNL     1      -0.338  10.786  20.614  0.00  0.00    +0.000 A 
ATOM      6  C   UNL     1      -0.547  10.666  21.998  0.00  0.00    +0.000 A 
ATOM      7  C   UNL     1       0.050   9.650  22.743  0.00  0.00    +0.000 A 
ATOM      8  C   UNL     1       0.880   8.722  22.122  0.00  0.00    +0.000 A 
ATOM      9  C   UNL     1       1.104   8.791  20.751  0.00  0.00    +0.000 A 
ATOM     10  C   UNL     1       0.470   9.793  20.011  0.00  0.00    +0.000 A 
BRANCH   5  11
ATOM     11  C   UNL     1      -0.894  12.013  19.733  0.00  0.00    +0.000 C 
ATOM     12  C   UNL     1      -2.363  11.797  19.254  0.00  0.00    +0.000 C 
ATOM     13  O   UNL     1      -1.974  11.769  17.870  0.00  0.00    +0.000 OA
ATOM     14  C   UNL     1      -0.604  12.073  18.208  0.00  0.00    +0.000 C 
BRANCH  11  15
ATOM     15  C   UNL     1      -0.710  13.353  20.470  0.00  0.00    +0.000 C 
BRANCH  15  21
ATOM     16  C   UNL     1       2.666  13.587  20.422  0.00  0.00    +0.000 C 
ATOM     17  C   UNL     1       1.627  14.424  19.780  0.00  0.00    +0.000 A 
ATOM     18  C   UNL     1       1.858  15.552  19.025  0.00  0.00    +0.000 A 
ATOM     19  O   UNL     1       0.689  16.073  18.596  0.00  0.00    +0.000 OA
ATOM     20  N   UNL     1      -0.353  15.303  19.063  0.00  0.00    +0.000 NA
ATOM     21  C   UNL     1       0.204  14.314  19.778  0.00  0.00    +0.000 A 
ENDBRANCH  15  21
ENDBRANCH  11  15
ENDBRANCH   5  11
ENDBRANCH   1   9
BRANCH   2  22
ATOM     22  C   UNL     1       3.056   6.824  18.216  0.00  0.00    +0.000 A 
ATOM     23  C   UNL     1       2.454   5.633  17.894  0.00  0.00    +0.000 A 
ATOM     24  C   UNL     1       3.294   4.657  17.425  0.00  0.00    +0.000 A 
ATOM     25  N   UNL     1       4.629   4.855  17.299  0.00  0.00    +0.000 NA
ATOM     26  C   UNL     1       5.141   6.054  17.657  0.00  0.00    +0.000 A 
ATOM     27  N   UNL     1       4.387   7.066  18.125  0.00  0.00    +0.000 NA
BRANCH  26  28
ATOM     28  C   UNL     1       6.620   6.291  17.470  0.00  0.00    +0.000 C 
ATOM     29  C   UNL     1       7.588   6.027  18.603  0.00  0.00    +0.000 C 
ATOM     30  C   UNL     1       7.586   5.131  17.400  0.00  0.00    +0.000 C 
ENDBRANCH  26  28
BRANCH  24  31
ATOM     31  C   UNL     1       2.720   3.308  17.032  0.00  0.00    +0.000 C 
BRANCH  31  32
ATOM     32  N   UNL     1       2.225   2.513  18.170  0.00  0.00    +0.000 NA
ATOM     33  C   UNL     1       0.809   2.812  18.450  0.00  0.00    +0.000 C 
ATOM     34  C   UNL     1       0.642   2.642  19.952  0.00  0.00    +0.000 C 
ATOM     35  C   UNL     1       1.993   3.000  20.477  0.00  0.00    +0.000 C 
ATOM     36  C   UNL     1       2.339   2.720  21.923  0.00  0.00    +0.000 C 
ATOM     37  C   UNL     1       2.164   4.138  21.464  0.00  0.00    +0.000 C 
ATOM     38  C   UNL     1       3.009   2.808  19.384  0.00  0.00    +0.000 C 
ENDBRANCH  31  32
ENDBRANCH  24  31
ENDBRANCH   2  22
TORSDOF 8
ENDMDL
MODEL 9
REMARK VINA RESULT:      -8.5      3.289      9.207
REMARK  Name = 
REMARK  9 active torsions:
REMARK  status: ('A' for Active; 'I' for Inactive)
REMARK    1  A    between atoms: C_1  and  C_2
REMARK    2  A    between atoms: C_6  and  C_7
REMARK    3  A    between atoms: C_7  and  C_8
REMARK    4  A    between atoms: C_8  and  C_9
REMARK    5  A    between atoms: C_13  and  N_14
REMARK    6  A    between atoms: C_15  and  C_17
REMARK    7  A    between atoms: C_19  and  C_20
REMARK    8  A    between atoms: C_20  and  N_21
REMARK    9  A    between atoms: C_29  and  C_30
REMARK                            x       y       z     vdW  Elec       q    Type
REMARK                         _______ _______ _______ _____ _____    ______ ____
ROOT
ATOM      1  N   UNL     1       2.136   7.769  19.815  0.00  0.00    +0.000 N 
ATOM      2  C   UNL     1       2.376   7.721  18.455  0.00  0.00    +0.000 C 
ATOM      3  O   UNL     1       1.883   8.452  17.598  0.00  0.00    +0.000 OA
ATOM      4  H   UNL     1       2.549   7.005  20.346  0.00  0.00    +0.000 HD
ENDROOT
BRANCH   1   9
ATOM      5  C   UNL     1       0.369  10.923  20.659  0.00  0.00    +0.000 A 
ATOM      6  C   UNL     1      -0.441  10.473  21.714  0.00  0.00    +0.000 A 
ATOM      7  C   UNL     1      -0.425   9.144  22.136  0.00  0.00    +0.000 A 
ATOM      8  C   UNL     1       0.411   8.223  21.512  0.00  0.00    +0.000 A 
ATOM      9  C   UNL     1       1.220   8.618  20.453  0.00  0.00    +0.000 A 
ATOM     10  C   UNL     1       1.166   9.945  20.018  0.00  0.00    +0.000 A 
BRANCH   5  11
ATOM     11  C   UNL     1       0.486  12.467  20.222  0.00  0.00    +0.000 C 
ATOM     12  C   UNL     1      -0.634  13.358  20.841  0.00  0.00    +0.000 C 
ATOM     13  O   UNL     1      -1.195  13.662  19.552  0.00  0.00    +0.000 OA
ATOM     14  C   UNL     1      -0.135  12.947  18.880  0.00  0.00    +0.000 C 
BRANCH  11  15
ATOM     15  C   UNL     1       1.896  13.020  20.504  0.00  0.00    +0.000 C 
BRANCH  15  21
ATOM     16  C   UNL     1       1.404  16.365  20.373  0.00  0.00    +0.000 C 
ATOM     17  C   UNL     1       2.131  15.456  19.458  0.00  0.00    +0.000 A 
ATOM     18  C   UNL     1       2.751  15.824  18.286  0.00  0.00    +0.000 A 
ATOM     19  O   UNL     1       3.313  14.747  17.699  0.00  0.00    +0.000 OA
ATOM     20  N   UNL     1       3.074  13.629  18.468  0.00  0.00    +0.000 NA
ATOM     21  C   UNL     1       2.361  14.048  19.523  0.00  0.00    +0.000 A 
ENDBRANCH  15  21
ENDBRANCH  11  15
ENDBRANCH   5  11
ENDBRANCH   1   9
BRANCH   2  22
ATOM     22  C   UNL     1       3.286   6.617  18.037  0.00  0.00    +0.000 A 
ATOM     23  C   UNL     1       2.743   5.377  17.807  0.00  0.00    +0.000 A 
ATOM     24  C   UNL     1       3.628   4.415  17.393  0.00  0.00    +0.000 A 
ATOM     25  N   UNL     1       4.949   4.673  17.231  0.00  0.00    +0.000 NA
ATOM     26  C   UNL     1       5.401   5.918  17.498  0.00  0.00    +0.000 A 
ATOM     27  N   UNL     1       4.600   6.920  17.909  0.00  0.00    +0.000 NA
BRANCH  26  28
ATOM     28  C   UNL     1       6.863   6.219  17.272  0.00  0.00    +0.000 C 
ATOM     29  C   UNL     1       7.403   7.613  17.497  0.00  0.00    +0.000 C 
ATOM     30  C   UNL     1       7.782   6.507  18.437  0.00  0.00    +0.000 C 
ENDBRANCH  26  28
BRANCH  24  31
ATOM     31  C   UNL     1       3.121   3.014  17.102  0.00  0.00    +0.000 C 
BRANCH  31  32
ATOM     32  N   UNL     1       2.469   2.362  18.253  0.00  0.00    +0.000 NA
ATOM     33  C   UNL     1       1.055   2.763  18.358  0.00  0.00    +0.000 C 
ATOM     34  C   UNL     1       0.734   2.751  19.845  0.00  0.00    +0.000 C 
ATOM     35  C   UNL     1       2.049   3.085  20.469  0.00  0.00    +0.000 C 
ATOM     36  C   UNL     1       2.236   2.930  21.962  0.00  0.00    +0.000 C 
ATOM     37  C   UNL     1       2.196   4.304  21.359  0.00  0.00    +0.000 C 
ATOM     38  C   UNL     1       3.151   2.732  19.508  0.00  0.00    +0.000 C 
ENDBRANCH  31  32
ENDBRANCH  24  31
ENDBRANCH   2  22
TORSDOF 8
ENDMDL
