MODEL 1
REMARK VINA RESULT:      -9.0      0.000      0.000
REMARK  Name = 
REMARK  8 active torsions:
REMARK  status: ('A' for Active; 'I' for Inactive)
REMARK    1  A    between atoms: C_1  and  C_2
REMARK    2  A    between atoms: C_6  and  C_7
REMARK    3  A    between atoms: N_12  and  C_13
REMARK    4  A    between atoms: C_17  and  C_18
REMARK    5  A    between atoms: C_18  and  C_19
REMARK    6  A    between atoms: C_18  and  C_20
REMARK    7  A    between atoms: C_20  and  C_21
REMARK    8  A    between atoms: N_25  and  C_26
REMARK                            x       y       z     vdW  Elec       q    Type
REMARK                         _______ _______ _______ _____ _____    ______ ____
ROOT
ATOM      1  C   UNL     1       2.848   6.304  18.972  0.00  0.00    +0.000 A 
ATOM      2  C   UNL     1       2.739   5.294  19.926  0.00  0.00    +0.000 A 
ATOM      3  C   UNL     1       3.370   4.068  19.733  0.00  0.00    +0.000 A 
ATOM      4  C   UNL     1       4.169   3.851  18.606  0.00  0.00    +0.000 A 
ATOM      5  C   UNL     1       4.328   4.856  17.647  0.00  0.00    +0.000 A 
ATOM      6  C   UNL     1       3.604   6.052  17.810  0.00  0.00    +0.000 A 
ENDROOT
BRANCH   1  15
ATOM      7  C   UNL     1      -1.428  12.167  18.317  0.00  0.00    +0.000 C 
ATOM      8  C   UNL     1      -0.549  11.125  18.951  0.00  0.00    +0.000 A 
ATOM      9  C   UNL     1       0.477  10.559  18.208  0.00  0.00    +0.000 A 
ATOM     10  C   UNL     1       1.141   9.528  18.822  0.00  0.00    +0.000 A 
ATOM     11  C   UNL     1       0.822   9.098  20.096  0.00  0.00    +0.000 A 
ATOM     12  C   UNL     1      -0.185   9.705  20.812  0.00  0.00    +0.000 A 
ATOM     13  N   UNL     1      -0.868  10.730  20.230  0.00  0.00    +0.000 NA
ATOM     14  C   UNL     1       1.649   7.918  20.460  0.00  0.00    +0.000 C 
ATOM     15  N   UNL     1       2.329   7.603  19.214  0.00  0.00    +0.000 N 
ATOM     16  C   UNL     1       2.136   8.607  18.260  0.00  0.00    +0.000 C 
ATOM     17  O   UNL     1       2.608   8.753  17.151  0.00  0.00    +0.000 OA
BRANCH  12  18
ATOM     18  C   UNL     1      -0.509   9.207  22.204  0.00  0.00    +0.000 C 
ATOM     19  C   UNL     1       0.329   9.454  23.428  0.00  0.00    +0.000 C 
ATOM     20  C   UNL     1      -0.931  10.234  23.236  0.00  0.00    +0.000 C 
ENDBRANCH  12  18
ENDBRANCH   1  15
BRANCH   5  21
ATOM     21  C   UNL     1       5.344   4.735  16.515  0.00  0.00    +0.000 C 
ATOM     22  C   UNL     1       5.205   3.427  15.728  0.00  0.00    +0.000 C 
BRANCH  21  23
ATOM     23  C   UNL     1       6.804   4.832  17.005  0.00  0.00    +0.000 C 
BRANCH  23  24
ATOM     24  C   UNL     1       7.246   6.194  17.435  0.00  0.00    +0.000 A 
ATOM     25  N   UNL     1       7.229   7.287  16.706  0.00  0.00    +0.000 NA
ATOM     26  N   UNL     1       7.866   8.281  17.410  0.00  0.00    +0.000 NA
ATOM     27  C   UNL     1       8.259   7.767  18.553  0.00  0.00    +0.000 A 
ATOM     28  N   UNL     1       7.846   6.475  18.636  0.00  0.00    +0.000 N 
ATOM     29  C   UNL     1       8.031   5.601  19.762  0.00  0.00    +0.000 C 
ENDBRANCH  23  24
ENDBRANCH  21  23
ENDBRANCH   5  21
TORSDOF 5
ENDMDL
MODEL 2
REMARK VINA RESULT:      -8.8      1.581      2.523
REMARK  Name = 
REMARK  8 active torsions:
REMARK  status: ('A' for Active; 'I' for Inactive)
REMARK    1  A    between atoms: C_1  and  C_2
REMARK    2  A    between atoms: C_6  and  C_7
REMARK    3  A    between atoms: N_12  and  C_13
REMARK    4  A    between atoms: C_17  and  C_18
REMARK    5  A    between atoms: C_18  and  C_19
REMARK    6  A    between atoms: C_18  and  C_20
REMARK    7  A    between atoms: C_20  and  C_21
REMARK    8  A    between atoms: N_25  and  C_26
REMARK                            x       y       z     vdW  Elec       q    Type
REMARK                         _______ _______ _______ _____ _____    ______ ____
ROOT
ATOM      1  C   UNL     1       2.706   6.002  18.964  0.00  0.00    +0.000 A 
ATOM      2  C   UNL     1       2.296   4.958  19.792  0.00  0.00    +0.000 A 
ATOM      3  C   UNL     1       2.799   3.673  19.610  0.00  0.00    +0.000 A 
ATOM      4  C   UNL     1       3.763   3.420  18.630  0.00  0.00    +0.000 A 
ATOM      5  C   UNL     1       4.222   4.453  17.805  0.00  0.00    +0.000 A 
ATOM      6  C   UNL     1       3.631   5.723  17.940  0.00  0.00    +0.000 A 
ENDROOT
BRANCH   1  15
ATOM      7  C   UNL     1      -0.966  12.265  18.349  0.00  0.00    +0.000 C 
ATOM      8  C   UNL     1      -0.203  11.133  18.977  0.00  0.00    +0.000 A 
ATOM      9  C   UNL     1       0.774  10.481  18.240  0.00  0.00    +0.000 A 
ATOM     10  C   UNL     1       1.325   9.380  18.845  0.00  0.00    +0.000 A 
ATOM     11  C   UNL     1       0.944   8.962  20.106  0.00  0.00    +0.000 A 
ATOM     12  C   UNL     1      -0.010   9.654  20.818  0.00  0.00    +0.000 A 
ATOM     13  N   UNL     1      -0.581  10.750  20.244  0.00  0.00    +0.000 NA
ATOM     14  C   UNL     1       1.646   7.702  20.462  0.00  0.00    +0.000 C 
ATOM     15  N   UNL     1       2.312   7.341  19.222  0.00  0.00    +0.000 N 
ATOM     16  C   UNL     1       2.234   8.374  18.282  0.00  0.00    +0.000 C 
ATOM     17  O   UNL     1       2.736   8.491  17.183  0.00  0.00    +0.000 OA
BRANCH  12  18
ATOM     18  C   UNL     1      -0.404   9.168  22.196  0.00  0.00    +0.000 C 
ATOM     19  C   UNL     1       0.349   9.459  23.465  0.00  0.00    +0.000 C 
ATOM     20  C   UNL     1      -0.918  10.198  23.183  0.00  0.00    +0.000 C 
ENDBRANCH  12  18
ENDBRANCH   1  15
BRANCH   5  21
ATOM     21  C   UNL     1       5.411   4.266  16.868  0.00  0.00    +0.000 C 
ATOM     22  C   UNL     1       6.749   4.623  17.526  0.00  0.00    +0.000 C 
BRANCH  21  23
ATOM     23  C   UNL     1       5.292   5.094  15.571  0.00  0.00    +0.000 C 
BRANCH  23  24
ATOM     24  C   UNL     1       6.479   5.038  14.665  0.00  0.00    +0.000 A 
ATOM     25  N   UNL     1       7.611   5.688  14.818  0.00  0.00    +0.000 NA
ATOM     26  N   UNL     1       8.373   5.493  13.691  0.00  0.00    +0.000 NA
ATOM     27  C   UNL     1       7.684   4.729  12.875  0.00  0.00    +0.000 A 
ATOM     28  N   UNL     1       6.512   4.375  13.464  0.00  0.00    +0.000 N 
ATOM     29  C   UNL     1       5.520   3.494  12.909  0.00  0.00    +0.000 C 
ENDBRANCH  23  24
ENDBRANCH  21  23
ENDBRANCH   5  21
TORSDOF 5
ENDMDL
MODEL 3
REMARK VINA RESULT:      -8.7      0.679      1.190
REMARK  Name = 
REMARK  8 active torsions:
REMARK  status: ('A' for Active; 'I' for Inactive)
REMARK    1  A    between atoms: C_1  and  C_2
REMARK    2  A    between atoms: C_6  and  C_7
REMARK    3  A    between atoms: N_12  and  C_13
REMARK    4  A    between atoms: C_17  and  C_18
REMARK    5  A    between atoms: C_18  and  C_19
REMARK    6  A    between atoms: C_18  and  C_20
REMARK    7  A    between atoms: C_20  and  C_21
REMARK    8  A    between atoms: N_25  and  C_26
REMARK                            x       y       z     vdW  Elec       q    Type
REMARK                         _______ _______ _______ _____ _____    ______ ____
ROOT
ATOM      1  C   UNL     1       2.764   6.365  18.786  0.00  0.00    +0.000 A 
ATOM      2  C   UNL     1       2.697   5.327  19.714  0.00  0.00    +0.000 A 
ATOM      3  C   UNL     1       3.274   4.091  19.435  0.00  0.00    +0.000 A 
ATOM      4  C   UNL     1       3.976   3.888  18.242  0.00  0.00    +0.000 A 
ATOM      5  C   UNL     1       4.091   4.920  17.305  0.00  0.00    +0.000 A 
ATOM      6  C   UNL     1       3.419   6.129  17.561  0.00  0.00    +0.000 A 
ENDROOT
BRANCH   1  15
ATOM      7  C   UNL     1      -1.233  12.449  18.496  0.00  0.00    +0.000 C 
ATOM      8  C   UNL     1      -0.405  11.331  19.064  0.00  0.00    +0.000 A 
ATOM      9  C   UNL     1       0.595  10.764  18.287  0.00  0.00    +0.000 A 
ATOM     10  C   UNL     1       1.209   9.668  18.835  0.00  0.00    +0.000 A 
ATOM     11  C   UNL     1       0.869   9.175  20.081  0.00  0.00    +0.000 A 
ATOM     12  C   UNL     1      -0.110   9.784  20.834  0.00  0.00    +0.000 A 
ATOM     13  N   UNL     1      -0.744  10.873  20.317  0.00  0.00    +0.000 NA
ATOM     14  C   UNL     1       1.639   7.939  20.371  0.00  0.00    +0.000 C 
ATOM     15  N   UNL     1       2.305   7.669  19.108  0.00  0.00    +0.000 N 
ATOM     16  C   UNL     1       2.161   8.737  18.217  0.00  0.00    +0.000 C 
ATOM     17  O   UNL     1       2.641   8.928  17.119  0.00  0.00    +0.000 OA
BRANCH  12  18
ATOM     18  C   UNL     1      -0.460   9.217  22.193  0.00  0.00    +0.000 C 
ATOM     19  C   UNL     1       0.331   9.439  23.453  0.00  0.00    +0.000 C 
ATOM     20  C   UNL     1      -0.948  10.185  23.253  0.00  0.00    +0.000 C 
ENDBRANCH  12  18
ENDBRANCH   1  15
BRANCH   5  21
ATOM     21  C   UNL     1       5.013   4.807  16.094  0.00  0.00    +0.000 C 
ATOM     22  C   UNL     1       5.609   3.405  15.929  0.00  0.00    +0.000 C 
BRANCH  21  23
ATOM     23  C   UNL     1       6.184   5.811  16.133  0.00  0.00    +0.000 C 
BRANCH  23  24
ATOM     24  C   UNL     1       7.052   5.735  17.347  0.00  0.00    +0.000 A 
ATOM     25  N   UNL     1       7.331   4.654  18.042  0.00  0.00    +0.000 NA
ATOM     26  N   UNL     1       8.021   5.035  19.168  0.00  0.00    +0.000 NA
ATOM     27  C   UNL     1       8.144   6.342  19.134  0.00  0.00    +0.000 A 
ATOM     28  N   UNL     1       7.598   6.820  17.985  0.00  0.00    +0.000 N 
ATOM     29  C   UNL     1       7.594   8.194  17.559  0.00  0.00    +0.000 C 
ENDBRANCH  23  24
ENDBRANCH  21  23
ENDBRANCH   5  21
TORSDOF 5
ENDMDL
MODEL 4
REMARK VINA RESULT:      -8.5      2.479      8.975
REMARK  Name = 
REMARK  8 active torsions:
REMARK  status: ('A' for Active; 'I' for Inactive)
REMARK    1  A    between atoms: C_1  and  C_2
REMARK    2  A    between atoms: C_6  and  C_7
REMARK    3  A    between atoms: N_12  and  C_13
REMARK    4  A    between atoms: C_17  and  C_18
REMARK    5  A    between atoms: C_18  and  C_19
REMARK    6  A    between atoms: C_18  and  C_20
REMARK    7  A    between atoms: C_20  and  C_21
REMARK    8  A    between atoms: N_25  and  C_26
REMARK                            x       y       z     vdW  Elec       q    Type
REMARK                         _______ _______ _______ _____ _____    ______ ____
ROOT
ATOM      1  C   UNL     1       1.636   8.383  19.261  0.00  0.00    +0.000 A 
ATOM      2  C   UNL     1       1.452   9.201  18.147  0.00  0.00    +0.000 A 
ATOM      3  C   UNL     1       0.750  10.399  18.258  0.00  0.00    +0.000 A 
ATOM      4  C   UNL     1       0.266  10.826  19.498  0.00  0.00    +0.000 A 
ATOM      5  C   UNL     1       0.465  10.045  20.642  0.00  0.00    +0.000 A 
ATOM      6  C   UNL     1       1.090   8.794  20.493  0.00  0.00    +0.000 A 
ENDROOT
BRANCH   1  15
ATOM      7  C   UNL     1       3.572   1.422  18.329  0.00  0.00    +0.000 C 
ATOM      8  C   UNL     1       3.658   2.922  18.330  0.00  0.00    +0.000 A 
ATOM      9  C   UNL     1       2.983   3.641  19.306  0.00  0.00    +0.000 A 
ATOM     10  C   UNL     1       3.011   5.003  19.151  0.00  0.00    +0.000 A 
ATOM     11  C   UNL     1       3.679   5.615  18.108  0.00  0.00    +0.000 A 
ATOM     12  C   UNL     1       4.362   4.867  17.175  0.00  0.00    +0.000 A 
ATOM     13  N   UNL     1       4.351   3.510  17.296  0.00  0.00    +0.000 NA
ATOM     14  C   UNL     1       3.464   7.084  18.153  0.00  0.00    +0.000 C 
ATOM     15  N   UNL     1       2.464   7.233  19.198  0.00  0.00    +0.000 N 
ATOM     16  C   UNL     1       2.263   6.031  19.884  0.00  0.00    +0.000 C 
ATOM     17  O   UNL     1       1.592   5.777  20.863  0.00  0.00    +0.000 OA
BRANCH  12  18
ATOM     18  C   UNL     1       5.082   5.570  16.044  0.00  0.00    +0.000 C 
ATOM     19  C   UNL     1       6.553   5.458  15.752  0.00  0.00    +0.000 C 
ATOM     20  C   UNL     1       5.579   4.718  14.893  0.00  0.00    +0.000 C 
ENDBRANCH  12  18
ENDBRANCH   1  15
BRANCH   5  21
ATOM     21  C   UNL     1       0.136  10.567  22.038  0.00  0.00    +0.000 C 
ATOM     22  C   UNL     1      -0.023   9.444  23.070  0.00  0.00    +0.000 C 
BRANCH  21  23
ATOM     23  C   UNL     1      -1.148  11.421  22.075  0.00  0.00    +0.000 C 
BRANCH  23  24
ATOM     24  C   UNL     1      -0.975  12.816  22.581  0.00  0.00    +0.000 A 
ATOM     25  N   UNL     1       0.085  13.577  22.426  0.00  0.00    +0.000 NA
ATOM     26  N   UNL     1      -0.091  14.715  23.176  0.00  0.00    +0.000 NA
ATOM     27  C   UNL     1      -1.257  14.619  23.774  0.00  0.00    +0.000 A 
ATOM     28  N   UNL     1      -1.870  13.469  23.390  0.00  0.00    +0.000 N 
ATOM     29  C   UNL     1      -3.187  13.043  23.782  0.00  0.00    +0.000 C 
ENDBRANCH  23  24
ENDBRANCH  21  23
ENDBRANCH   5  21
TORSDOF 5
ENDMDL
MODEL 5
REMARK VINA RESULT:      -8.4      2.717      9.287
REMARK  Name = 
REMARK  8 active torsions:
REMARK  status: ('A' for Active; 'I' for Inactive)
REMARK    1  A    between atoms: C_1  and  C_2
REMARK    2  A    between atoms: C_6  and  C_7
REMARK    3  A    between atoms: N_12  and  C_13
REMARK    4  A    between atoms: C_17  and  C_18
REMARK    5  A    between atoms: C_18  and  C_19
REMARK    6  A    between atoms: C_18  and  C_20
REMARK    7  A    between atoms: C_20  and  C_21
REMARK    8  A    between atoms: N_25  and  C_26
REMARK                            x       y       z     vdW  Elec       q    Type
REMARK                         _______ _______ _______ _____ _____    ______ ____
ROOT
ATOM      1  C   UNL     1       0.786   9.915  18.748  0.00  0.00    +0.000 A 
ATOM      2  C   UNL     1       1.075  11.221  19.139  0.00  0.00    +0.000 A 
ATOM      3  C   UNL     1       0.171  12.251  18.889  0.00  0.00    +0.000 A 
ATOM      4  C   UNL     1      -1.064  11.981  18.290  0.00  0.00    +0.000 A 
ATOM      5  C   UNL     1      -1.399  10.675  17.917  0.00  0.00    +0.000 A 
ATOM      6  C   UNL     1      -0.434   9.666  18.089  0.00  0.00    +0.000 A 
ENDROOT
BRANCH   1  15
ATOM      7  C   UNL     1       2.803   3.144  20.526  0.00  0.00    +0.000 C 
ATOM      8  C   UNL     1       2.869   4.530  19.949  0.00  0.00    +0.000 A 
ATOM      9  C   UNL     1       2.198   5.564  20.586  0.00  0.00    +0.000 A 
ATOM     10  C   UNL     1       2.205   6.762  19.920  0.00  0.00    +0.000 A 
ATOM     11  C   UNL     1       2.851   6.931  18.710  0.00  0.00    +0.000 A 
ATOM     12  C   UNL     1       3.532   5.887  18.124  0.00  0.00    +0.000 A 
ATOM     13  N   UNL     1       3.540   4.681  18.757  0.00  0.00    +0.000 NA
ATOM     14  C   UNL     1       2.616   8.304  18.191  0.00  0.00    +0.000 C 
ATOM     15  N   UNL     1       1.629   8.835  19.117  0.00  0.00    +0.000 N 
ATOM     16  C   UNL     1       1.453   7.988  20.215  0.00  0.00    +0.000 C 
ATOM     17  O   UNL     1       0.799   8.124  21.229  0.00  0.00    +0.000 OA
BRANCH  12  18
ATOM     18  C   UNL     1       4.226   6.107  16.798  0.00  0.00    +0.000 C 
ATOM     19  C   UNL     1       5.680   6.451  16.628  0.00  0.00    +0.000 C 
ATOM     20  C   UNL     1       5.222   5.057  16.344  0.00  0.00    +0.000 C 
ENDBRANCH  12  18
ENDBRANCH   1  15
BRANCH   5  21
ATOM     21  C   UNL     1      -2.805  10.308  17.453  0.00  0.00    +0.000 C 
ATOM     22  C   UNL     1      -2.827   9.701  16.046  0.00  0.00    +0.000 C 
BRANCH  21  23
ATOM     23  C   UNL     1      -3.774  11.508  17.459  0.00  0.00    +0.000 C 
BRANCH  23  24
ATOM     24  C   UNL     1      -4.921  11.400  18.411  0.00  0.00    +0.000 A 
ATOM     25  N   UNL     1      -6.053  10.764  18.202  0.00  0.00    +0.000 NA
ATOM     26  N   UNL     1      -6.899  11.042  19.248  0.00  0.00    +0.000 NA
ATOM     27  C   UNL     1      -6.264  11.845  20.070  0.00  0.00    +0.000 A 
ATOM     28  N   UNL     1      -5.001  12.055  19.614  0.00  0.00    +0.000 N 
ATOM     29  C   UNL     1      -3.982  12.827  20.273  0.00  0.00    +0.000 C 
ENDBRANCH  23  24
ENDBRANCH  21  23
ENDBRANCH   5  21
TORSDOF 5
ENDMDL
MODEL 6
REMARK VINA RESULT:      -8.4      2.932      4.399
REMARK  Name = 
REMARK  8 active torsions:
REMARK  status: ('A' for Active; 'I' for Inactive)
REMARK    1  A    between atoms: C_1  and  C_2
REMARK    2  A    between atoms: C_6  and  C_7
REMARK    3  A    between atoms: N_12  and  C_13
REMARK    4  A    between atoms: C_17  and  C_18
REMARK    5  A    between atoms: C_18  and  C_19
REMARK    6  A    between atoms: C_18  and  C_20
REMARK    7  A    between atoms: C_20  and  C_21
REMARK    8  A    between atoms: N_25  and  C_26
REMARK                            x       y       z     vdW  Elec       q    Type
REMARK                         _______ _______ _______ _____ _____    ______ ____
ROOT
ATOM      1  C   UNL     1       1.407   9.272  18.972  0.00  0.00    +0.000 A 
ATOM      2  C   UNL     1       1.208   8.863  20.290  0.00  0.00    +0.000 A 
ATOM      3  C   UNL     1       1.600   7.592  20.703  0.00  0.00    +0.000 A 
ATOM      4  C   UNL     1       2.250   6.727  19.817  0.00  0.00    +0.000 A 
ATOM      5  C   UNL     1       2.496   7.121  18.497  0.00  0.00    +0.000 A 
ATOM      6  C   UNL     1       2.006   8.369  18.073  0.00  0.00    +0.000 A 
ENDROOT
BRANCH   1  15
ATOM      7  C   UNL     1      -0.724  16.226  19.404  0.00  0.00    +0.000 C 
ATOM      8  C   UNL     1       0.055  15.013  18.980  0.00  0.00    +0.000 A 
ATOM      9  C   UNL     1      -0.583  13.783  18.917  0.00  0.00    +0.000 A 
ATOM     10  C   UNL     1       0.234  12.715  18.650  0.00  0.00    +0.000 A 
ATOM     11  C   UNL     1       1.592  12.857  18.439  0.00  0.00    +0.000 A 
ATOM     12  C   UNL     1       2.184  14.100  18.481  0.00  0.00    +0.000 A 
ATOM     13  N   UNL     1       1.402  15.182  18.750  0.00  0.00    +0.000 NA
ATOM     14  C   UNL     1       2.225  11.525  18.257  0.00  0.00    +0.000 C 
ATOM     15  N   UNL     1       1.142  10.607  18.570  0.00  0.00    +0.000 N 
ATOM     16  C   UNL     1      -0.077  11.281  18.693  0.00  0.00    +0.000 C 
ATOM     17  O   UNL     1      -1.205  10.862  18.853  0.00  0.00    +0.000 OA
BRANCH  12  18
ATOM     18  C   UNL     1       3.674  14.219  18.249  0.00  0.00    +0.000 C 
ATOM     19  C   UNL     1       4.378  15.457  17.766  0.00  0.00    +0.000 C 
ATOM     20  C   UNL     1       4.467  15.083  19.210  0.00  0.00    +0.000 C 
ENDBRANCH  12  18
ENDBRANCH   1  15
BRANCH   5  21
ATOM     21  C   UNL     1       3.376   6.294  17.563  0.00  0.00    +0.000 C 
ATOM     22  C   UNL     1       3.318   4.793  17.865  0.00  0.00    +0.000 C 
BRANCH  21  23
ATOM     23  C   UNL     1       4.859   6.721  17.599  0.00  0.00    +0.000 C 
BRANCH  23  24
ATOM     24  C   UNL     1       5.719   6.135  16.527  0.00  0.00    +0.000 A 
ATOM     25  N   UNL     1       5.536   6.244  15.231  0.00  0.00    +0.000 NA
ATOM     26  N   UNL     1       6.445   5.430  14.599  0.00  0.00    +0.000 NA
ATOM     27  C   UNL     1       7.160   4.839  15.529  0.00  0.00    +0.000 A 
ATOM     28  N   UNL     1       6.777   5.290  16.752  0.00  0.00    +0.000 N 
ATOM     29  C   UNL     1       7.369   4.924  18.010  0.00  0.00    +0.000 C 
ENDBRANCH  23  24
ENDBRANCH  21  23
ENDBRANCH   5  21
TORSDOF 5
ENDMDL
MODEL 7
REMARK VINA RESULT:      -8.4      2.073      8.431
REMARK  Name = 
REMARK  8 active torsions:
REMARK  status: ('A' for Active; 'I' for Inactive)
REMARK    1  A    between atoms: C_1  and  C_2
REMARK    2  A    between atoms: C_6  and  C_7
REMARK    3  A    between atoms: N_12  and  C_13
REMARK    4  A    between atoms: C_17  and  C_18
REMARK    5  A    between atoms: C_18  and  C_19
REMARK    6  A    between atoms: C_18  and  C_20
REMARK    7  A    between atoms: C_20  and  C_21
REMARK    8  A    between atoms: N_25  and  C_26
REMARK                            x       y       z     vdW  Elec       q    Type
REMARK                         _______ _______ _______ _____ _____    ______ ____
ROOT
ATOM      1  C   UNL     1       1.420   8.541  19.850  0.00  0.00    +0.000 A 
ATOM      2  C   UNL     1       1.200   8.309  21.206  0.00  0.00    +0.000 A 
ATOM      3  C   UNL     1       0.426   9.190  21.958  0.00  0.00    +0.000 A 
ATOM      4  C   UNL     1      -0.186  10.292  21.351  0.00  0.00    +0.000 A 
ATOM      5  C   UNL     1      -0.013  10.533  19.984  0.00  0.00    +0.000 A 
ATOM      6  C   UNL     1       0.850   9.688  19.263  0.00  0.00    +0.000 A 
ENDROOT
BRANCH   1  15
ATOM      7  C   UNL     1       6.822   5.258  16.227  0.00  0.00    +0.000 C 
ATOM      8  C   UNL     1       5.562   5.433  17.028  0.00  0.00    +0.000 A 
ATOM      9  C   UNL     1       4.788   6.568  16.837  0.00  0.00    +0.000 A 
ATOM     10  C   UNL     1       3.732   6.706  17.701  0.00  0.00    +0.000 A 
ATOM     11  C   UNL     1       3.449   5.770  18.678  0.00  0.00    +0.000 A 
ATOM     12  C   UNL     1       4.225   4.641  18.816  0.00  0.00    +0.000 A 
ATOM     13  N   UNL     1       5.286   4.476  17.977  0.00  0.00    +0.000 NA
ATOM     14  C   UNL     1       2.306   6.227  19.509  0.00  0.00    +0.000 C 
ATOM     15  N   UNL     1       2.087   7.585  19.040  0.00  0.00    +0.000 N 
ATOM     16  C   UNL     1       2.839   7.855  17.893  0.00  0.00    +0.000 C 
ATOM     17  O   UNL     1       2.859   8.826  17.164  0.00  0.00    +0.000 OA
BRANCH  12  18
ATOM     18  C   UNL     1       3.888   3.638  19.898  0.00  0.00    +0.000 C 
ATOM     19  C   UNL     1       2.702   2.713  19.882  0.00  0.00    +0.000 C 
ATOM     20  C   UNL     1       4.057   2.168  19.569  0.00  0.00    +0.000 C 
ENDBRANCH  12  18
ENDBRANCH   1  15
BRANCH   5  21
ATOM     21  C   UNL     1      -0.822  11.597  19.248  0.00  0.00    +0.000 C 
ATOM     22  C   UNL     1      -0.790  12.960  19.948  0.00  0.00    +0.000 C 
BRANCH  21  23
ATOM     23  C   UNL     1      -2.302  11.204  19.058  0.00  0.00    +0.000 C 
BRANCH  23  24
ATOM     24  C   UNL     1      -2.684  10.801  17.671  0.00  0.00    +0.000 A 
ATOM     25  N   UNL     1      -1.943  10.128  16.820  0.00  0.00    +0.000 NA
ATOM     26  N   UNL     1      -2.591  10.108  15.608  0.00  0.00    +0.000 NA
ATOM     27  C   UNL     1      -3.714  10.773  15.749  0.00  0.00    +0.000 A 
ATOM     28  N   UNL     1      -3.841  11.182  17.039  0.00  0.00    +0.000 N 
ATOM     29  C   UNL     1      -4.966  11.884  17.595  0.00  0.00    +0.000 C 
ENDBRANCH  23  24
ENDBRANCH  21  23
ENDBRANCH   5  21
TORSDOF 5
ENDMDL
MODEL 8
REMARK VINA RESULT:      -8.4      1.630      2.223
REMARK  Name = 
REMARK  8 active torsions:
REMARK  status: ('A' for Active; 'I' for Inactive)
REMARK    1  A    between atoms: C_1  and  C_2
REMARK    2  A    between atoms: C_6  and  C_7
REMARK    3  A    between atoms: N_12  and  C_13
REMARK    4  A    between atoms: C_17  and  C_18
REMARK    5  A    between atoms: C_18  and  C_19
REMARK    6  A    between atoms: C_18  and  C_20
REMARK    7  A    between atoms: C_20  and  C_21
REMARK    8  A    between atoms: N_25  and  C_26
REMARK                            x       y       z     vdW  Elec       q    Type
REMARK                         _______ _______ _______ _____ _____    ______ ____
ROOT
ATOM      1  C   UNL     1       1.966   5.965  19.840  0.00  0.00    +0.000 A 
ATOM      2  C   UNL     1       1.826   5.234  21.018  0.00  0.00    +0.000 A 
ATOM      3  C   UNL     1       1.996   3.852  21.018  0.00  0.00    +0.000 A 
ATOM      4  C   UNL     1       2.363   3.182  19.846  0.00  0.00    +0.000 A 
ATOM      5  C   UNL     1       2.546   3.891  18.654  0.00  0.00    +0.000 A 
ATOM      6  C   UNL     1       2.275   5.271  18.653  0.00  0.00    +0.000 A 
ENDROOT
BRANCH   1  15
ATOM      7  C   UNL     1      -0.167  12.743  18.232  0.00  0.00    +0.000 C 
ATOM      8  C   UNL     1       0.377  11.585  19.020  0.00  0.00    +0.000 A 
ATOM      9  C   UNL     1       1.076  10.583  18.362  0.00  0.00    +0.000 A 
ATOM     10  C   UNL     1       1.419   9.506  19.137  0.00  0.00    +0.000 A 
ATOM     11  C   UNL     1       1.107   9.432  20.481  0.00  0.00    +0.000 A 
ATOM     12  C   UNL     1       0.437  10.461  21.105  0.00  0.00    +0.000 A 
ATOM     13  N   UNL     1       0.077  11.545  20.363  0.00  0.00    +0.000 NA
ATOM     14  C   UNL     1       1.529   8.119  21.034  0.00  0.00    +0.000 C 
ATOM     15  N   UNL     1       1.935   7.384  19.847  0.00  0.00    +0.000 N 
ATOM     16  C   UNL     1       1.989   8.217  18.726  0.00  0.00    +0.000 C 
ATOM     17  O   UNL     1       2.368   8.002  17.592  0.00  0.00    +0.000 OA
BRANCH  12  18
ATOM     18  C   UNL     1       0.109  10.346  22.578  0.00  0.00    +0.000 C 
ATOM     19  C   UNL     1      -1.177  10.793  23.215  0.00  0.00    +0.000 C 
ATOM     20  C   UNL     1      -0.945   9.335  22.985  0.00  0.00    +0.000 C 
ENDBRANCH  12  18
ENDBRANCH   1  15
BRANCH   5  21
ATOM     21  C   UNL     1       3.140   3.234  17.412  0.00  0.00    +0.000 C 
ATOM     22  C   UNL     1       3.854   1.914  17.721  0.00  0.00    +0.000 C 
BRANCH  21  23
ATOM     23  C   UNL     1       4.141   4.144  16.670  0.00  0.00    +0.000 C 
BRANCH  23  24
ATOM     24  C   UNL     1       5.501   4.234  17.283  0.00  0.00    +0.000 A 
ATOM     25  N   UNL     1       5.777   4.282  18.567  0.00  0.00    +0.000 NA
ATOM     26  N   UNL     1       7.122   4.526  18.707  0.00  0.00    +0.000 NA
ATOM     27  C   UNL     1       7.634   4.624  17.502  0.00  0.00    +0.000 A 
ATOM     28  N   UNL     1       6.666   4.396  16.577  0.00  0.00    +0.000 N 
ATOM     29  C   UNL     1       6.852   4.354  15.151  0.00  0.00    +0.000 C 
ENDBRANCH  23  24
ENDBRANCH  21  23
ENDBRANCH   5  21
TORSDOF 5
ENDMDL
MODEL 9
REMARK VINA RESULT:      -8.3      1.308      2.278
REMARK  Name = 
REMARK  8 active torsions:
REMARK  status: ('A' for Active; 'I' for Inactive)
REMARK    1  A    between atoms: C_1  and  C_2
REMARK    2  A    between atoms: C_6  and  C_7
REMARK    3  A    between atoms: N_12  and  C_13
REMARK    4  A    between atoms: C_17  and  C_18
REMARK    5  A    between atoms: C_18  and  C_19
REMARK    6  A    between atoms: C_18  and  C_20
REMARK    7  A    between atoms: C_20  and  C_21
REMARK    8  A    between atoms: N_25  and  C_26
REMARK                            x       y       z     vdW  Elec       q    Type
REMARK                         _______ _______ _______ _____ _____    ______ ____
ROOT
ATOM      1  C   UNL     1       2.841   6.460  19.433  0.00  0.00    +0.000 A 
ATOM      2  C   UNL     1       2.309   5.359  20.101  0.00  0.00    +0.000 A 
ATOM      3  C   UNL     1       2.996   4.147  20.127  0.00  0.00    +0.000 A 
ATOM      4  C   UNL     1       4.255   4.032  19.530  0.00  0.00    +0.000 A 
ATOM      5  C   UNL     1       4.833   5.129  18.881  0.00  0.00    +0.000 A 
ATOM      6  C   UNL     1       4.082   6.314  18.782  0.00  0.00    +0.000 A 
ENDROOT
BRANCH   1  15
ATOM      7  C   UNL     1      -1.825  11.875  18.027  0.00  0.00    +0.000 C 
ATOM      8  C   UNL     1      -0.890  10.982  18.793  0.00  0.00    +0.000 A 
ATOM      9  C   UNL     1       0.192  10.411  18.138  0.00  0.00    +0.000 A 
ATOM     10  C   UNL     1       0.913   9.510  18.878  0.00  0.00    +0.000 A 
ATOM     11  C   UNL     1       0.595   9.207  20.189  0.00  0.00    +0.000 A 
ATOM     12  C   UNL     1      -0.470   9.818  20.813  0.00  0.00    +0.000 A 
ATOM     13  N   UNL     1      -1.211  10.715  20.104  0.00  0.00    +0.000 NA
ATOM     14  C   UNL     1       1.495   8.143  20.702  0.00  0.00    +0.000 C 
ATOM     15  N   UNL     1       2.225   7.736  19.513  0.00  0.00    +0.000 N 
ATOM     16  C   UNL     1       1.984   8.605  18.445  0.00  0.00    +0.000 C 
ATOM     17  O   UNL     1       2.472   8.656  17.334  0.00  0.00    +0.000 OA
BRANCH  12  18
ATOM     18  C   UNL     1      -0.792   9.462  22.248  0.00  0.00    +0.000 C 
ATOM     19  C   UNL     1       0.155   9.604  23.408  0.00  0.00    +0.000 C 
ATOM     20  C   UNL     1      -0.945  10.601  23.236  0.00  0.00    +0.000 C 
ENDBRANCH  12  18
ENDBRANCH   1  15
BRANCH   5  21
ATOM     21  C   UNL     1       6.280   5.106  18.399  0.00  0.00    +0.000 C 
ATOM     22  C   UNL     1       7.283   5.444  19.508  0.00  0.00    +0.000 C 
BRANCH  21  23
ATOM     23  C   UNL     1       6.539   6.073  17.224  0.00  0.00    +0.000 C 
BRANCH  23  24
ATOM     24  C   UNL     1       6.779   5.423  15.901  0.00  0.00    +0.000 A 
ATOM     25  N   UNL     1       7.777   5.665  15.080  0.00  0.00    +0.000 NA
ATOM     26  N   UNL     1       7.544   4.985  13.909  0.00  0.00    +0.000 NA
ATOM     27  C   UNL     1       6.405   4.345  14.043  0.00  0.00    +0.000 A 
ATOM     28  N   UNL     1       5.915   4.547  15.294  0.00  0.00    +0.000 N 
ATOM     29  C   UNL     1       4.720   3.959  15.838  0.00  0.00    +0.000 C 
ENDBRANCH  23  24
ENDBRANCH  21  23
ENDBRANCH   5  21
TORSDOF 5
ENDMDL
