MODEL 1
REMARK VINA RESULT:      -9.0      0.000      0.000
REMARK  Name = 
REMARK  8 active torsions:
REMARK  status: ('A' for Active; 'I' for Inactive)
REMARK    1  A    between atoms: C_1  and  C_2
REMARK    2  A    between atoms: C_2  and  C_3
REMARK    3  A    between atoms: C_2  and  C_10
REMARK    4  A    between atoms: C_3  and  C_4
REMARK    5  A    between atoms: N_8  and  C_9
REMARK    6  A    between atoms: C_14  and  N_15
REMARK    7  A    between atoms: C_16  and  C_18
REMARK    8  A    between atoms: C_24  and  C_25
REMARK                            x       y       z     vdW  Elec       q    Type
REMARK                         _______ _______ _______ _____ _____    ______ ____
ROOT
ATOM      1  N   UNL     1       2.199   6.533  19.073  0.00  0.00    +0.000 N 
ATOM      2  C   UNL     1       2.138   7.882  18.727  0.00  0.00    +0.000 C 
ATOM      3  O   UNL     1       2.525   8.374  17.669  0.00  0.00    +0.000 OA
ATOM      4  H   UNL     1       1.741   6.303  19.951  0.00  0.00    +0.000 HD
ENDROOT
BRANCH   2   5
ATOM      5  C   UNL     1       1.473   8.710  19.726  0.00  0.00    +0.000 A 
ATOM      6  N   UNL     1       1.252   8.334  20.972  0.00  0.00    +0.000 NA
ATOM      7  C   UNL     1       0.501   9.341  21.527  0.00  0.00    +0.000 A 
ATOM      8  C   UNL     1      -0.026   9.413  22.822  0.00  0.00    +0.000 A 
ATOM      9  C   UNL     1      -0.829  10.500  23.166  0.00  0.00    +0.000 A 
ATOM     10  C   UNL     1      -1.109  11.494  22.229  0.00  0.00    +0.000 A 
ATOM     11  C   UNL     1      -0.598  11.463  20.909  0.00  0.00    +0.000 A 
ATOM     12  C   UNL     1       0.239  10.360  20.612  0.00  0.00    +0.000 A 
ATOM     13  N   UNL     1       0.944   9.966  19.493  0.00  0.00    +0.000 N 
ATOM     14  H   UNL     1       1.026  10.459  18.613  0.00  0.00    +0.000 HD
BRANCH  11  15
ATOM     15  C   UNL     1      -1.013  12.544  19.939  0.00  0.00    +0.000 C 
ATOM     16  F   UNL     1      -0.850  12.192  18.630  0.00  0.00    +0.000 F 
ATOM     17  F   UNL     1      -2.319  12.900  20.067  0.00  0.00    +0.000 F 
ATOM     18  F   UNL     1      -0.294  13.690  20.100  0.00  0.00    +0.000 F 
ENDBRANCH  11  15
ENDBRANCH   2   5
BRANCH   1  23
ATOM     19  C   UNL     1       4.462   4.587  16.783  0.00  0.00    +0.000 A 
ATOM     20  C   UNL     1       3.791   3.354  16.777  0.00  0.00    +0.000 A 
ATOM     21  C   UNL     1       2.598   3.184  17.474  0.00  0.00    +0.000 A 
ATOM     22  C   UNL     1       2.057   4.230  18.220  0.00  0.00    +0.000 A 
ATOM     23  C   UNL     1       2.695   5.467  18.279  0.00  0.00    +0.000 A 
ATOM     24  C   UNL     1       3.877   5.647  17.525  0.00  0.00    +0.000 A 
BRANCH  19  26
ATOM     25  C   UNL     1       6.006   3.769  14.870  0.00  0.00    +0.000 C 
ATOM     26  C   UNL     1       5.784   4.786  16.015  0.00  0.00    +0.000 C 
BRANCH  26  27
ATOM     27  C   UNL     1       6.987   4.763  16.991  0.00  0.00    +0.000 C 
BRANCH  27  28
ATOM     28  C   UNL     1       7.447   6.124  17.409  0.00  0.00    +0.000 A 
ATOM     29  N   UNL     1       7.500   7.200  16.647  0.00  0.00    +0.000 NA
ATOM     30  N   UNL     1       8.006   8.237  17.397  0.00  0.00    +0.000 NA
ATOM     31  C   UNL     1       8.242   7.776  18.604  0.00  0.00    +0.000 A 
ATOM     32  N   UNL     1       7.899   6.461  18.661  0.00  0.00    +0.000 N 
ATOM     33  C   UNL     1       7.995   5.614  19.819  0.00  0.00    +0.000 C 
ENDBRANCH  27  28
ENDBRANCH  26  27
ENDBRANCH  19  26
ENDBRANCH   1  23
TORSDOF 6
ENDMDL
MODEL 2
REMARK VINA RESULT:      -8.9      4.737     10.251
REMARK  Name = 
REMARK  8 active torsions:
REMARK  status: ('A' for Active; 'I' for Inactive)
REMARK    1  A    between atoms: C_1  and  C_2
REMARK    2  A    between atoms: C_2  and  C_3
REMARK    3  A    between atoms: C_2  and  C_10
REMARK    4  A    between atoms: C_3  and  C_4
REMARK    5  A    between atoms: N_8  and  C_9
REMARK    6  A    between atoms: C_14  and  N_15
REMARK    7  A    between atoms: C_16  and  C_18
REMARK    8  A    between atoms: C_24  and  C_25
REMARK                            x       y       z     vdW  Elec       q    Type
REMARK                         _______ _______ _______ _____ _____    ______ ____
ROOT
ATOM      1  N   UNL     1       1.354   9.160  18.009  0.00  0.00    +0.000 N 
ATOM      2  C   UNL     1       1.859   8.247  18.935  0.00  0.00    +0.000 C 
ATOM      3  O   UNL     1       1.529   8.161  20.116  0.00  0.00    +0.000 OA
ATOM      4  H   UNL     1       1.679   9.014  17.056  0.00  0.00    +0.000 HD
ENDROOT
BRANCH   2   5
ATOM      5  C   UNL     1       2.800   7.294  18.360  0.00  0.00    +0.000 A 
ATOM      6  N   UNL     1       3.761   7.618  17.517  0.00  0.00    +0.000 NA
ATOM      7  C   UNL     1       4.322   6.426  17.129  0.00  0.00    +0.000 A 
ATOM      8  C   UNL     1       5.362   6.216  16.216  0.00  0.00    +0.000 A 
ATOM      9  C   UNL     1       5.738   4.909  15.907  0.00  0.00    +0.000 A 
ATOM     10  C   UNL     1       5.079   3.829  16.494  0.00  0.00    +0.000 A 
ATOM     11  C   UNL     1       4.023   3.994  17.423  0.00  0.00    +0.000 A 
ATOM     12  C   UNL     1       3.697   5.336  17.732  0.00  0.00    +0.000 A 
ATOM     13  N   UNL     1       2.781   5.929  18.578  0.00  0.00    +0.000 N 
ATOM     14  H   UNL     1       2.142   5.467  19.214  0.00  0.00    +0.000 HD
BRANCH  11  15
ATOM     15  C   UNL     1       3.318   2.767  17.953  0.00  0.00    +0.000 C 
ATOM     16  F   UNL     1       3.883   1.594  17.541  0.00  0.00    +0.000 F 
ATOM     17  F   UNL     1       3.298   2.711  19.311  0.00  0.00    +0.000 F 
ATOM     18  F   UNL     1       2.016   2.704  17.556  0.00  0.00    +0.000 F 
ENDBRANCH  11  15
ENDBRANCH   2   5
BRANCH   1  23
ATOM     19  C   UNL     1      -1.991  10.879  17.958  0.00  0.00    +0.000 A 
ATOM     20  C   UNL     1      -1.690  12.007  18.737  0.00  0.00    +0.000 A 
ATOM     21  C   UNL     1      -0.405  12.218  19.228  0.00  0.00    +0.000 A 
ATOM     22  C   UNL     1       0.610  11.294  18.979  0.00  0.00    +0.000 A 
ATOM     23  C   UNL     1       0.359  10.145  18.232  0.00  0.00    +0.000 A 
ATOM     24  C   UNL     1      -0.936   9.967  17.693  0.00  0.00    +0.000 A 
BRANCH  19  26
ATOM     25  C   UNL     1      -3.456  10.298  15.902  0.00  0.00    +0.000 C 
ATOM     26  C   UNL     1      -3.412  10.636  17.411  0.00  0.00    +0.000 C 
BRANCH  26  27
ATOM     27  C   UNL     1      -4.325  11.852  17.713  0.00  0.00    +0.000 C 
BRANCH  27  28
ATOM     28  C   UNL     1      -5.416  11.553  18.692  0.00  0.00    +0.000 A 
ATOM     29  N   UNL     1      -6.453  10.764  18.491  0.00  0.00    +0.000 NA
ATOM     30  N   UNL     1      -7.237  10.781  19.622  0.00  0.00    +0.000 NA
ATOM     31  C   UNL     1      -6.657  11.573  20.495  0.00  0.00    +0.000 A 
ATOM     32  N   UNL     1      -5.509  12.072  19.960  0.00  0.00    +0.000 N 
ATOM     33  C   UNL     1      -4.591  12.961  20.617  0.00  0.00    +0.000 C 
ENDBRANCH  27  28
ENDBRANCH  26  27
ENDBRANCH  19  26
ENDBRANCH   1  23
TORSDOF 6
ENDMDL
MODEL 3
REMARK VINA RESULT:      -8.8      2.554      3.652
REMARK  Name = 
REMARK  8 active torsions:
REMARK  status: ('A' for Active; 'I' for Inactive)
REMARK    1  A    between atoms: C_1  and  C_2
REMARK    2  A    between atoms: C_2  and  C_3
REMARK    3  A    between atoms: C_2  and  C_10
REMARK    4  A    between atoms: C_3  and  C_4
REMARK    5  A    between atoms: N_8  and  C_9
REMARK    6  A    between atoms: C_14  and  N_15
REMARK    7  A    between atoms: C_16  and  C_18
REMARK    8  A    between atoms: C_24  and  C_25
REMARK                            x       y       z     vdW  Elec       q    Type
REMARK                         _______ _______ _______ _____ _____    ______ ____
ROOT
ATOM      1  N   UNL     1       2.355   6.866  18.605  0.00  0.00    +0.000 N 
ATOM      2  C   UNL     1       2.395   8.118  17.992  0.00  0.00    +0.000 C 
ATOM      3  O   UNL     1       2.904   8.372  16.903  0.00  0.00    +0.000 OA
ATOM      4  H   UNL     1       1.806   6.834  19.460  0.00  0.00    +0.000 HD
ENDROOT
BRANCH   2   5
ATOM      5  C   UNL     1       1.680   9.152  18.732  0.00  0.00    +0.000 A 
ATOM      6  N   UNL     1       1.664  10.427  18.395  0.00  0.00    +0.000 NA
ATOM      7  C   UNL     1       0.995  11.063  19.412  0.00  0.00    +0.000 A 
ATOM      8  C   UNL     1       0.735  12.432  19.553  0.00  0.00    +0.000 A 
ATOM      9  C   UNL     1       0.097  12.883  20.708  0.00  0.00    +0.000 A 
ATOM     10  C   UNL     1      -0.268  11.984  21.709  0.00  0.00    +0.000 A 
ATOM     11  C   UNL     1      -0.026  10.592  21.609  0.00  0.00    +0.000 A 
ATOM     12  C   UNL     1       0.594  10.173  20.407  0.00  0.00    +0.000 A 
ATOM     13  N   UNL     1       0.975   8.946  19.903  0.00  0.00    +0.000 N 
ATOM     14  H   UNL     1       0.835   8.037  20.326  0.00  0.00    +0.000 HD
BRANCH  11  15
ATOM     15  C   UNL     1      -0.388   9.702  22.775  0.00  0.00    +0.000 C 
ATOM     16  F   UNL     1      -0.878   8.484  22.398  0.00  0.00    +0.000 F 
ATOM     17  F   UNL     1       0.667   9.440  23.592  0.00  0.00    +0.000 F 
ATOM     18  F   UNL     1      -1.349  10.251  23.569  0.00  0.00    +0.000 F 
ENDBRANCH  11  15
ENDBRANCH   2   5
BRANCH   1  23
ATOM     19  C   UNL     1       4.767   4.399  17.108  0.00  0.00    +0.000 A 
ATOM     20  C   UNL     1       3.988   3.233  17.175  0.00  0.00    +0.000 A 
ATOM     21  C   UNL     1       2.684   3.270  17.660  0.00  0.00    +0.000 A 
ATOM     22  C   UNL     1       2.131   4.466  18.118  0.00  0.00    +0.000 A 
ATOM     23  C   UNL     1       2.869   5.647  18.095  0.00  0.00    +0.000 A 
ATOM     24  C   UNL     1       4.174   5.610  17.552  0.00  0.00    +0.000 A 
BRANCH  19  26
ATOM     25  C   UNL     1       7.284   4.718  17.634  0.00  0.00    +0.000 C 
ATOM     26  C   UNL     1       6.214   4.368  16.574  0.00  0.00    +0.000 C 
BRANCH  26  27
ATOM     27  C   UNL     1       6.357   5.299  15.342  0.00  0.00    +0.000 C 
BRANCH  27  28
ATOM     28  C   UNL     1       6.379   4.567  14.037  0.00  0.00    +0.000 A 
ATOM     29  N   UNL     1       5.545   3.618  13.658  0.00  0.00    +0.000 NA
ATOM     30  N   UNL     1       5.922   3.184  12.408  0.00  0.00    +0.000 NA
ATOM     31  C   UNL     1       6.973   3.884  12.045  0.00  0.00    +0.000 A 
ATOM     32  N   UNL     1       7.290   4.768  13.030  0.00  0.00    +0.000 N 
ATOM     33  C   UNL     1       8.367   5.719  12.994  0.00  0.00    +0.000 C 
ENDBRANCH  27  28
ENDBRANCH  26  27
ENDBRANCH  19  26
ENDBRANCH   1  23
TORSDOF 6
ENDMDL
MODEL 4
REMARK VINA RESULT:      -8.8      5.860      8.191
REMARK  Name = 
REMARK  8 active torsions:
REMARK  status: ('A' for Active; 'I' for Inactive)
REMARK    1  A    between atoms: C_1  and  C_2
REMARK    2  A    between atoms: C_2  and  C_3
REMARK    3  A    between atoms: C_2  and  C_10
REMARK    4  A    between atoms: C_3  and  C_4
REMARK    5  A    between atoms: N_8  and  C_9
REMARK    6  A    between atoms: C_14  and  N_15
REMARK    7  A    between atoms: C_16  and  C_18
REMARK    8  A    between atoms: C_24  and  C_25
REMARK                            x       y       z     vdW  Elec       q    Type
REMARK                         _______ _______ _______ _____ _____    ______ ____
ROOT
ATOM      1  N   UNL     1       8.333   9.227  17.837  0.00  0.00    +0.000 N 
ATOM      2  C   UNL     1       8.953  10.045  18.780  0.00  0.00    +0.000 C 
ATOM      3  O   UNL     1       9.188   9.749  19.950  0.00  0.00    +0.000 OA
ATOM      4  H   UNL     1       8.313   9.610  16.895  0.00  0.00    +0.000 HD
ENDROOT
BRANCH   2   5
ATOM      5  C   UNL     1       9.405  11.321  18.237  0.00  0.00    +0.000 A 
ATOM      6  N   UNL     1      10.590  11.516  17.691  0.00  0.00    +0.000 NA
ATOM      7  C   UNL     1      10.653  12.863  17.433  0.00  0.00    +0.000 A 
ATOM      8  C   UNL     1      11.717  13.590  16.885  0.00  0.00    +0.000 A 
ATOM      9  C   UNL     1      11.603  14.975  16.770  0.00  0.00    +0.000 A 
ATOM     10  C   UNL     1      10.448  15.625  17.205  0.00  0.00    +0.000 A 
ATOM     11  C   UNL     1       9.348  14.932  17.765  0.00  0.00    +0.000 A 
ATOM     12  C   UNL     1       9.493  13.525  17.831  0.00  0.00    +0.000 A 
ATOM     13  N   UNL     1       8.680  12.498  18.266  0.00  0.00    +0.000 N 
ATOM     14  H   UNL     1       7.732  12.569  18.616  0.00  0.00    +0.000 HD
BRANCH  11  15
ATOM     15  C   UNL     1       8.168  15.725  18.276  0.00  0.00    +0.000 C 
ATOM     16  F   UNL     1       7.891  15.500  19.594  0.00  0.00    +0.000 F 
ATOM     17  F   UNL     1       8.340  17.069  18.159  0.00  0.00    +0.000 F 
ATOM     18  F   UNL     1       7.017  15.435  17.607  0.00  0.00    +0.000 F 
ENDBRANCH  11  15
ENDBRANCH   2   5
BRANCH   1  23
ATOM     19  C   UNL     1       6.422   6.035  17.277  0.00  0.00    +0.000 A 
ATOM     20  C   UNL     1       6.997   5.236  18.277  0.00  0.00    +0.000 A 
ATOM     21  C   UNL     1       7.957   5.750  19.143  0.00  0.00    +0.000 A 
ATOM     22  C   UNL     1       8.392   7.069  19.017  0.00  0.00    +0.000 A 
ATOM     23  C   UNL     1       7.872   7.899  18.026  0.00  0.00    +0.000 A 
ATOM     24  C   UNL     1       6.858   7.383  17.186  0.00  0.00    +0.000 A 
BRANCH  19  26
ATOM     25  C   UNL     1       4.034   5.068  17.003  0.00  0.00    +0.000 C 
ATOM     26  C   UNL     1       5.358   5.474  16.313  0.00  0.00    +0.000 C 
BRANCH  26  27
ATOM     27  C   UNL     1       5.930   4.280  15.509  0.00  0.00    +0.000 C 
BRANCH  27  28
ATOM     28  C   UNL     1       6.800   4.690  14.362  0.00  0.00    +0.000 A 
ATOM     29  N   UNL     1       7.823   5.522  14.414  0.00  0.00    +0.000 NA
ATOM     30  N   UNL     1       8.335   5.658  13.145  0.00  0.00    +0.000 NA
ATOM     31  C   UNL     1       7.622   4.899  12.344  0.00  0.00    +0.000 A 
ATOM     32  N   UNL     1       6.655   4.267  13.064  0.00  0.00    +0.000 N 
ATOM     33  C   UNL     1       5.689   3.339  12.544  0.00  0.00    +0.000 C 
ENDBRANCH  27  28
ENDBRANCH  26  27
ENDBRANCH  19  26
ENDBRANCH   1  23
TORSDOF 6
ENDMDL
MODEL 5
REMARK VINA RESULT:      -8.7      2.335      3.339
REMARK  Name = 
REMARK  8 active torsions:
REMARK  status: ('A' for Active; 'I' for Inactive)
REMARK    1  A    between atoms: C_1  and  C_2
REMARK    2  A    between atoms: C_2  and  C_3
REMARK    3  A    between atoms: C_2  and  C_10
REMARK    4  A    between atoms: C_3  and  C_4
REMARK    5  A    between atoms: N_8  and  C_9
REMARK    6  A    between atoms: C_14  and  N_15
REMARK    7  A    between atoms: C_16  and  C_18
REMARK    8  A    between atoms: C_24  and  C_25
REMARK                            x       y       z     vdW  Elec       q    Type
REMARK                         _______ _______ _______ _____ _____    ______ ____
ROOT
ATOM      1  N   UNL     1       2.202   7.532  19.210  0.00  0.00    +0.000 N 
ATOM      2  C   UNL     1       2.076   8.499  18.213  0.00  0.00    +0.000 C 
ATOM      3  O   UNL     1       2.724   8.549  17.170  0.00  0.00    +0.000 OA
ATOM      4  H   UNL     1       1.513   7.602  19.954  0.00  0.00    +0.000 HD
ENDROOT
BRANCH   2   5
ATOM      5  C   UNL     1       1.007   9.459  18.465  0.00  0.00    +0.000 A 
ATOM      6  N   UNL     1       0.876  10.144  19.585  0.00  0.00    +0.000 NA
ATOM      7  C   UNL     1      -0.311  10.822  19.458  0.00  0.00    +0.000 A 
ATOM      8  C   UNL     1      -0.929  11.668  20.388  0.00  0.00    +0.000 A 
ATOM      9  C   UNL     1      -2.179  12.206  20.088  0.00  0.00    +0.000 A 
ATOM     10  C   UNL     1      -2.809  11.897  18.882  0.00  0.00    +0.000 A 
ATOM     11  C   UNL     1      -2.223  11.048  17.912  0.00  0.00    +0.000 A 
ATOM     12  C   UNL     1      -0.939  10.551  18.243  0.00  0.00    +0.000 A 
ATOM     13  N   UNL     1      -0.030   9.739  17.595  0.00  0.00    +0.000 N 
ATOM     14  H   UNL     1      -0.110   9.346  16.666  0.00  0.00    +0.000 HD
BRANCH  11  15
ATOM     15  C   UNL     1      -3.008  10.711  16.667  0.00  0.00    +0.000 C 
ATOM     16  F   UNL     1      -2.482  11.251  15.528  0.00  0.00    +0.000 F 
ATOM     17  F   UNL     1      -3.091   9.373  16.438  0.00  0.00    +0.000 F 
ATOM     18  F   UNL     1      -4.292  11.162  16.724  0.00  0.00    +0.000 F 
ENDBRANCH  11  15
ENDBRANCH   2   5
BRANCH   1  23
ATOM     19  C   UNL     1       5.347   5.504  18.827  0.00  0.00    +0.000 A 
ATOM     20  C   UNL     1       4.892   4.266  19.306  0.00  0.00    +0.000 A 
ATOM     21  C   UNL     1       3.569   4.093  19.702  0.00  0.00    +0.000 A 
ATOM     22  C   UNL     1       2.670   5.159  19.658  0.00  0.00    +0.000 A 
ATOM     23  C   UNL     1       3.077   6.415  19.214  0.00  0.00    +0.000 A 
ATOM     24  C   UNL     1       4.408   6.567  18.763  0.00  0.00    +0.000 A 
BRANCH  19  26
ATOM     25  C   UNL     1       7.064   7.030  17.627  0.00  0.00    +0.000 C 
ATOM     26  C   UNL     1       6.811   5.706  18.387  0.00  0.00    +0.000 C 
BRANCH  26  27
ATOM     27  C   UNL     1       7.293   4.502  17.537  0.00  0.00    +0.000 C 
BRANCH  27  28
ATOM     28  C   UNL     1       6.959   4.622  16.084  0.00  0.00    +0.000 A 
ATOM     29  N   UNL     1       7.698   5.200  15.156  0.00  0.00    +0.000 NA
ATOM     30  N   UNL     1       7.025   5.126  13.958  0.00  0.00    +0.000 NA
ATOM     31  C   UNL     1       5.893   4.495  14.176  0.00  0.00    +0.000 A 
ATOM     32  N   UNL     1       5.813   4.153  15.491  0.00  0.00    +0.000 N 
ATOM     33  C   UNL     1       4.732   3.435  16.110  0.00  0.00    +0.000 C 
ENDBRANCH  27  28
ENDBRANCH  26  27
ENDBRANCH  19  26
ENDBRANCH   1  23
TORSDOF 6
ENDMDL
MODEL 6
REMARK VINA RESULT:      -8.6      4.502     10.325
REMARK  Name = 
REMARK  8 active torsions:
REMARK  status: ('A' for Active; 'I' for Inactive)
REMARK    1  A    between atoms: C_1  and  C_2
REMARK    2  A    between atoms: C_2  and  C_3
REMARK    3  A    between atoms: C_2  and  C_10
REMARK    4  A    between atoms: C_3  and  C_4
REMARK    5  A    between atoms: N_8  and  C_9
REMARK    6  A    between atoms: C_14  and  N_15
REMARK    7  A    between atoms: C_16  and  C_18
REMARK    8  A    between atoms: C_24  and  C_25
REMARK                            x       y       z     vdW  Elec       q    Type
REMARK                         _______ _______ _______ _____ _____    ______ ____
ROOT
ATOM      1  N   UNL     1       0.786   9.324  19.115  0.00  0.00    +0.000 N 
ATOM      2  C   UNL     1       1.852   9.165  18.231  0.00  0.00    +0.000 C 
ATOM      3  O   UNL     1       2.280  10.018  17.456  0.00  0.00    +0.000 OA
ATOM      4  H   UNL     1       0.641   8.539  19.745  0.00  0.00    +0.000 HD
ENDROOT
BRANCH   2   5
ATOM      5  C   UNL     1       2.518   7.873  18.347  0.00  0.00    +0.000 A 
ATOM      6  N   UNL     1       3.456   7.447  17.523  0.00  0.00    +0.000 NA
ATOM      7  C   UNL     1       3.715   6.154  17.907  0.00  0.00    +0.000 A 
ATOM      8  C   UNL     1       4.609   5.243  17.331  0.00  0.00    +0.000 A 
ATOM      9  C   UNL     1       4.670   3.944  17.833  0.00  0.00    +0.000 A 
ATOM     10  C   UNL     1       3.843   3.557  18.888  0.00  0.00    +0.000 A 
ATOM     11  C   UNL     1       2.925   4.443  19.501  0.00  0.00    +0.000 A 
ATOM     12  C   UNL     1       2.920   5.760  18.982  0.00  0.00    +0.000 A 
ATOM     13  N   UNL     1       2.223   6.910  19.294  0.00  0.00    +0.000 N 
ATOM     14  H   UNL     1       1.553   7.040  20.042  0.00  0.00    +0.000 HD
BRANCH  11  15
ATOM     15  C   UNL     1       2.017   3.917  20.589  0.00  0.00    +0.000 C 
ATOM     16  F   UNL     1       2.042   2.557  20.708  0.00  0.00    +0.000 F 
ATOM     17  F   UNL     1       2.327   4.403  21.820  0.00  0.00    +0.000 F 
ATOM     18  F   UNL     1       0.711   4.240  20.376  0.00  0.00    +0.000 F 
ENDBRANCH  11  15
ENDBRANCH   2   5
BRANCH   1  23
ATOM     19  C   UNL     1      -2.202  11.609  19.161  0.00  0.00    +0.000 A 
ATOM     20  C   UNL     1      -1.633  12.732  19.782  0.00  0.00    +0.000 A 
ATOM     21  C   UNL     1      -0.286  12.751  20.135  0.00  0.00    +0.000 A 
ATOM     22  C   UNL     1       0.523  11.639  19.904  0.00  0.00    +0.000 A 
ATOM     23  C   UNL     1       0.003  10.490  19.313  0.00  0.00    +0.000 A 
ATOM     24  C   UNL     1      -1.352  10.500  18.909  0.00  0.00    +0.000 A 
BRANCH  19  26
ATOM     25  C   UNL     1      -3.940  11.574  17.241  0.00  0.00    +0.000 C 
ATOM     26  C   UNL     1      -3.692  11.578  18.767  0.00  0.00    +0.000 C 
BRANCH  26  27
ATOM     27  C   UNL     1      -4.453  12.755  19.429  0.00  0.00    +0.000 C 
BRANCH  27  28
ATOM     28  C   UNL     1      -5.615  12.323  20.267  0.00  0.00    +0.000 A 
ATOM     29  N   UNL     1      -5.607  12.117  21.570  0.00  0.00    +0.000 NA
ATOM     30  N   UNL     1      -6.862  11.700  21.950  0.00  0.00    +0.000 NA
ATOM     31  C   UNL     1      -7.614  11.670  20.874  0.00  0.00    +0.000 A 
ATOM     32  N   UNL     1      -6.878  12.060  19.798  0.00  0.00    +0.000 N 
ATOM     33  C   UNL     1      -7.356  12.173  18.447  0.00  0.00    +0.000 C 
ENDBRANCH  27  28
ENDBRANCH  26  27
ENDBRANCH  19  26
ENDBRANCH   1  23
TORSDOF 6
ENDMDL
MODEL 7
REMARK VINA RESULT:      -8.6      1.714      2.601
REMARK  Name = 
REMARK  8 active torsions:
REMARK  status: ('A' for Active; 'I' for Inactive)
REMARK    1  A    between atoms: C_1  and  C_2
REMARK    2  A    between atoms: C_2  and  C_3
REMARK    3  A    between atoms: C_2  and  C_10
REMARK    4  A    between atoms: C_3  and  C_4
REMARK    5  A    between atoms: N_8  and  C_9
REMARK    6  A    between atoms: C_14  and  N_15
REMARK    7  A    between atoms: C_16  and  C_18
REMARK    8  A    between atoms: C_24  and  C_25
REMARK                            x       y       z     vdW  Elec       q    Type
REMARK                         _______ _______ _______ _____ _____    ______ ____
ROOT
ATOM      1  N   UNL     1       1.431   6.337  20.952  0.00  0.00    +0.000 N 
ATOM      2  C   UNL     1       1.768   7.524  20.301  0.00  0.00    +0.000 C 
ATOM      3  O   UNL     1       2.563   7.635  19.370  0.00  0.00    +0.000 OA
ATOM      4  H   UNL     1       0.682   6.430  21.634  0.00  0.00    +0.000 HD
ENDROOT
BRANCH   2   5
ATOM      5  C   UNL     1       1.013   8.680  20.770  0.00  0.00    +0.000 A 
ATOM      6  N   UNL     1       0.708   8.902  22.034  0.00  0.00    +0.000 NA
ATOM      7  C   UNL     1      -0.104  10.010  22.022  0.00  0.00    +0.000 A 
ATOM      8  C   UNL     1      -0.728  10.638  23.107  0.00  0.00    +0.000 A 
ATOM      9  C   UNL     1      -1.577  11.717  22.868  0.00  0.00    +0.000 A 
ATOM     10  C   UNL     1      -1.807  12.158  21.564  0.00  0.00    +0.000 A 
ATOM     11  C   UNL     1      -1.198  11.555  20.437  0.00  0.00    +0.000 A 
ATOM     12  C   UNL     1      -0.319  10.484  20.728  0.00  0.00    +0.000 A 
ATOM     13  N   UNL     1       0.476   9.661  19.957  0.00  0.00    +0.000 N 
ATOM     14  H   UNL     1       0.614   9.701  18.954  0.00  0.00    +0.000 HD
BRANCH  11  15
ATOM     15  C   UNL     1      -1.562  12.051  19.057  0.00  0.00    +0.000 C 
ATOM     16  F   UNL     1      -1.238  11.175  18.062  0.00  0.00    +0.000 F 
ATOM     17  F   UNL     1      -2.892  12.298  18.916  0.00  0.00    +0.000 F 
ATOM     18  F   UNL     1      -0.928  13.214  18.740  0.00  0.00    +0.000 F 
ENDBRANCH  11  15
ENDBRANCH   2   5
BRANCH   1  23
ATOM     19  C   UNL     1       2.827   3.436  19.008  0.00  0.00    +0.000 A 
ATOM     20  C   UNL     1       2.987   2.507  20.048  0.00  0.00    +0.000 A 
ATOM     21  C   UNL     1       2.601   2.815  21.350  0.00  0.00    +0.000 A 
ATOM     22  C   UNL     1       2.072   4.069  21.655  0.00  0.00    +0.000 A 
ATOM     23  C   UNL     1       1.914   5.035  20.664  0.00  0.00    +0.000 A 
ATOM     24  C   UNL     1       2.259   4.695  19.335  0.00  0.00    +0.000 A 
BRANCH  19  26
ATOM     25  C   UNL     1       4.067   1.797  17.430  0.00  0.00    +0.000 C 
ATOM     26  C   UNL     1       3.252   3.104  17.563  0.00  0.00    +0.000 C 
BRANCH  26  27
ATOM     27  C   UNL     1       4.038   4.289  16.943  0.00  0.00    +0.000 C 
BRANCH  27  28
ATOM     28  C   UNL     1       5.455   4.379  17.413  0.00  0.00    +0.000 A 
ATOM     29  N   UNL     1       5.862   4.454  18.666  0.00  0.00    +0.000 NA
ATOM     30  N   UNL     1       7.234   4.553  18.671  0.00  0.00    +0.000 NA
ATOM     31  C   UNL     1       7.639   4.528  17.421  0.00  0.00    +0.000 A 
ATOM     32  N   UNL     1       6.561   4.411  16.599  0.00  0.00    +0.000 N 
ATOM     33  C   UNL     1       6.600   4.331  15.165  0.00  0.00    +0.000 C 
ENDBRANCH  27  28
ENDBRANCH  26  27
ENDBRANCH  19  26
ENDBRANCH   1  23
TORSDOF 6
ENDMDL
MODEL 8
REMARK VINA RESULT:      -8.6      4.624     10.187
REMARK  Name = 
REMARK  8 active torsions:
REMARK  status: ('A' for Active; 'I' for Inactive)
REMARK    1  A    between atoms: C_1  and  C_2
REMARK    2  A    between atoms: C_2  and  C_3
REMARK    3  A    between atoms: C_2  and  C_10
REMARK    4  A    between atoms: C_3  and  C_4
REMARK    5  A    between atoms: N_8  and  C_9
REMARK    6  A    between atoms: C_14  and  N_15
REMARK    7  A    between atoms: C_16  and  C_18
REMARK    8  A    between atoms: C_24  and  C_25
REMARK                            x       y       z     vdW  Elec       q    Type
REMARK                         _______ _______ _______ _____ _____    ______ ____
ROOT
ATOM      1  N   UNL     1       0.570   9.111  18.895  0.00  0.00    +0.000 N 
ATOM      2  C   UNL     1       1.738   9.021  18.139  0.00  0.00    +0.000 C 
ATOM      3  O   UNL     1       2.171   9.882  17.376  0.00  0.00    +0.000 OA
ATOM      4  H   UNL     1       0.428   8.338  19.541  0.00  0.00    +0.000 HD
ENDROOT
BRANCH   2   5
ATOM      5  C   UNL     1       2.500   7.803  18.386  0.00  0.00    +0.000 A 
ATOM      6  N   UNL     1       3.569   7.446  17.699  0.00  0.00    +0.000 NA
ATOM      7  C   UNL     1       3.897   6.195  18.162  0.00  0.00    +0.000 A 
ATOM      8  C   UNL     1       4.936   5.359  17.736  0.00  0.00    +0.000 A 
ATOM      9  C   UNL     1       5.052   4.086  18.292  0.00  0.00    +0.000 A 
ATOM     10  C   UNL     1       4.140   3.651  19.253  0.00  0.00    +0.000 A 
ATOM     11  C   UNL     1       3.075   4.461  19.715  0.00  0.00    +0.000 A 
ATOM     12  C   UNL     1       3.013   5.757  19.148  0.00  0.00    +0.000 A 
ATOM     13  N   UNL     1       2.180   6.843  19.327  0.00  0.00    +0.000 N 
ATOM     14  H   UNL     1       1.413   6.928  19.983  0.00  0.00    +0.000 HD
BRANCH  11  15
ATOM     15  C   UNL     1       2.091   3.881  20.704  0.00  0.00    +0.000 C 
ATOM     16  F   UNL     1       2.401   4.156  22.005  0.00  0.00    +0.000 F 
ATOM     17  F   UNL     1       0.823   4.337  20.522  0.00  0.00    +0.000 F 
ATOM     18  F   UNL     1       2.016   2.523  20.627  0.00  0.00    +0.000 F 
ENDBRANCH  11  15
ENDBRANCH   2   5
BRANCH   1  23
ATOM     19  C   UNL     1      -2.553  11.146  18.394  0.00  0.00    +0.000 A 
ATOM     20  C   UNL     1      -2.210  12.292  19.127  0.00  0.00    +0.000 A 
ATOM     21  C   UNL     1      -0.963  12.409  19.734  0.00  0.00    +0.000 A 
ATOM     22  C   UNL     1      -0.033  11.373  19.649  0.00  0.00    +0.000 A 
ATOM     23  C   UNL     1      -0.332  10.204  18.953  0.00  0.00    +0.000 A 
ATOM     24  C   UNL     1      -1.580  10.116  18.296  0.00  0.00    +0.000 A 
BRANCH  19  26
ATOM     25  C   UNL     1      -3.899  11.154  16.180  0.00  0.00    +0.000 C 
ATOM     26  C   UNL     1      -3.933  11.007  17.719  0.00  0.00    +0.000 C 
BRANCH  26  27
ATOM     27  C   UNL     1      -4.940  12.014  18.331  0.00  0.00    +0.000 C 
BRANCH  27  28
ATOM     28  C   UNL     1      -5.992  11.370  19.177  0.00  0.00    +0.000 A 
ATOM     29  N   UNL     1      -6.437  10.133  19.067  0.00  0.00    +0.000 NA
ATOM     30  N   UNL     1      -7.422   9.942  20.008  0.00  0.00    +0.000 NA
ATOM     31  C   UNL     1      -7.552  11.062  20.682  0.00  0.00    +0.000 A 
ATOM     32  N   UNL     1      -6.671  11.982  20.202  0.00  0.00    +0.000 N 
ATOM     33  C   UNL     1      -6.501  13.321  20.694  0.00  0.00    +0.000 C 
ENDBRANCH  27  28
ENDBRANCH  26  27
ENDBRANCH  19  26
ENDBRANCH   1  23
TORSDOF 6
ENDMDL
MODEL 9
REMARK VINA RESULT:      -8.6      4.154      9.877
REMARK  Name = 
REMARK  8 active torsions:
REMARK  status: ('A' for Active; 'I' for Inactive)
REMARK    1  A    between atoms: C_1  and  C_2
REMARK    2  A    between atoms: C_2  and  C_3
REMARK    3  A    between atoms: C_2  and  C_10
REMARK    4  A    between atoms: C_3  and  C_4
REMARK    5  A    between atoms: N_8  and  C_9
REMARK    6  A    between atoms: C_14  and  N_15
REMARK    7  A    between atoms: C_16  and  C_18
REMARK    8  A    between atoms: C_24  and  C_25
REMARK                            x       y       z     vdW  Elec       q    Type
REMARK                         _______ _______ _______ _____ _____    ______ ____
ROOT
ATOM      1  N   UNL     1       1.605   9.352  18.552  0.00  0.00    +0.000 N 
ATOM      2  C   UNL     1       1.804   8.384  19.537  0.00  0.00    +0.000 C 
ATOM      3  O   UNL     1       1.436   8.460  20.708  0.00  0.00    +0.000 OA
ATOM      4  H   UNL     1       1.895   9.068  17.620  0.00  0.00    +0.000 HD
ENDROOT
BRANCH   2   5
ATOM      5  C   UNL     1       2.442   7.171  19.041  0.00  0.00    +0.000 A 
ATOM      6  N   UNL     1       3.340   7.148  18.075  0.00  0.00    +0.000 NA
ATOM      7  C   UNL     1       3.582   5.818  17.835  0.00  0.00    +0.000 A 
ATOM      8  C   UNL     1       4.434   5.251  16.879  0.00  0.00    +0.000 A 
ATOM      9  C   UNL     1       4.480   3.864  16.751  0.00  0.00    +0.000 A 
ATOM     10  C   UNL     1       3.681   3.054  17.558  0.00  0.00    +0.000 A 
ATOM     11  C   UNL     1       2.805   3.582  18.538  0.00  0.00    +0.000 A 
ATOM     12  C   UNL     1       2.815   4.993  18.657  0.00  0.00    +0.000 A 
ATOM     13  N   UNL     1       2.156   5.889  19.474  0.00  0.00    +0.000 N 
ATOM     14  H   UNL     1       1.516   5.678  20.229  0.00  0.00    +0.000 HD
BRANCH  11  15
ATOM     15  C   UNL     1       1.923   2.634  19.316  0.00  0.00    +0.000 C 
ATOM     16  F   UNL     1       2.029   2.780  20.669  0.00  0.00    +0.000 F 
ATOM     17  F   UNL     1       0.602   2.782  19.029  0.00  0.00    +0.000 F 
ATOM     18  F   UNL     1       2.217   1.328  19.066  0.00  0.00    +0.000 F 
ENDBRANCH  11  15
ENDBRANCH   2   5
BRANCH   1  23
ATOM     19  C   UNL     1      -1.163  11.819  19.182  0.00  0.00    +0.000 A 
ATOM     20  C   UNL     1      -0.437  13.017  19.100  0.00  0.00    +0.000 A 
ATOM     21  C   UNL     1       0.922  13.013  18.799  0.00  0.00    +0.000 A 
ATOM     22  C   UNL     1       1.601  11.811  18.600  0.00  0.00    +0.000 A 
ATOM     23  C   UNL     1       0.933  10.592  18.694  0.00  0.00    +0.000 A 
ATOM     24  C   UNL     1      -0.459  10.609  18.947  0.00  0.00    +0.000 A 
BRANCH  19  26
ATOM     25  C   UNL     1      -3.588  11.692  18.277  0.00  0.00    +0.000 C 
ATOM     26  C   UNL     1      -2.669  11.814  19.515  0.00  0.00    +0.000 C 
BRANCH  26  27
ATOM     27  C   UNL     1      -3.047  13.070  20.340  0.00  0.00    +0.000 C 
BRANCH  27  28
ATOM     28  C   UNL     1      -3.503  12.760  21.731  0.00  0.00    +0.000 A 
ATOM     29  N   UNL     1      -4.740  12.507  22.110  0.00  0.00    +0.000 NA
ATOM     30  N   UNL     1      -4.743  12.302  23.471  0.00  0.00    +0.000 NA
ATOM     31  C   UNL     1      -3.505  12.425  23.894  0.00  0.00    +0.000 A 
ATOM     32  N   UNL     1      -2.693  12.703  22.838  0.00  0.00    +0.000 N 
ATOM     33  C   UNL     1      -1.269  12.888  22.897  0.00  0.00    +0.000 C 
ENDBRANCH  27  28
ENDBRANCH  26  27
ENDBRANCH  19  26
ENDBRANCH   1  23
TORSDOF 6
ENDMDL
