MODEL 1
REMARK VINA RESULT:      -8.8      0.000      0.000
REMARK  Name = 
REMARK  10 active torsions:
REMARK  status: ('A' for Active; 'I' for Inactive)
REMARK    1  A    between atoms: C_1  and  N_2
REMARK    2  A    between atoms: N_2  and  S_3
REMARK    3  A    between atoms: S_3  and  C_6
REMARK    4  A    between atoms: C_9  and  N_10
REMARK    5  A    between atoms: N_13  and  C_14
REMARK    6  A    between atoms: C_18  and  C_19
REMARK    7  A    between atoms: C_19  and  C_20
REMARK    8  A    between atoms: C_19  and  S_21
REMARK    9  A    between atoms: S_21  and  C_22
REMARK   10  A    between atoms: N_26  and  C_27
REMARK                            x       y       z     vdW  Elec       q    Type
REMARK                         _______ _______ _______ _____ _____    ______ ____
ROOT
ATOM      1  N   UNL     1       8.984   8.680  19.047  0.00  0.00    +0.000 N 
ATOM      2  C   UNL     1       8.059   8.123  18.176  0.00  0.00    +0.000 C 
ATOM      3  O   UNL     1       7.492   8.730  17.277  0.00  0.00    +0.000 OA
ATOM      4  N   UNL     1       7.836   6.791  18.468  0.00  0.00    +0.000 N 
ATOM      5  H   UNL     1       9.685   8.045  19.404  0.00  0.00    +0.000 HD
ATOM      6  H   UNL     1       7.955   6.542  19.439  0.00  0.00    +0.000 HD
ENDROOT
BRANCH   1  10
ATOM      7  C   UNL     1       9.700  12.831  19.078  0.00  0.00    +0.000 A 
ATOM      8  C   UNL     1       9.281  12.201  20.248  0.00  0.00    +0.000 A 
ATOM      9  C   UNL     1       9.076  10.823  20.253  0.00  0.00    +0.000 A 
ATOM     10  C   UNL     1       9.275  10.062  19.090  0.00  0.00    +0.000 A 
ATOM     11  C   UNL     1       9.756  10.692  17.935  0.00  0.00    +0.000 A 
ATOM     12  C   UNL     1       9.948  12.081  17.922  0.00  0.00    +0.000 A 
BRANCH   7  13
ATOM     13  S   UNL     1       9.792  14.602  19.041  0.00  0.00    +0.000 S 
ATOM     14  O   UNL     1      11.135  14.975  18.663  0.00  0.00    +0.000 OA
ATOM     15  O   UNL     1       9.168  15.121  20.241  0.00  0.00    +0.000 OA
BRANCH  13  17
ATOM     16  C   UNL     1       7.379  14.817  17.868  0.00  0.00    +0.000 C 
ATOM     17  N   UNL     1       8.819  14.992  17.728  0.00  0.00    +0.000 NA
ATOM     18  H   UNL     1       9.158  15.823  17.244  0.00  0.00    +0.000 HD
ENDBRANCH  13  17
ENDBRANCH   7  13
ENDBRANCH   1  10
BRANCH   4  19
ATOM     19  C   UNL     1       6.961   5.982  17.710  0.00  0.00    +0.000 A 
ATOM     20  C   UNL     1       7.413   5.116  16.711  0.00  0.00    +0.000 A 
ATOM     21  C   UNL     1       6.510   4.322  16.007  0.00  0.00    +0.000 A 
ATOM     22  C   UNL     1       5.149   4.379  16.309  0.00  0.00    +0.000 A 
ATOM     23  C   UNL     1       4.676   5.230  17.323  0.00  0.00    +0.000 A 
ATOM     24  C   UNL     1       5.599   6.033  18.012  0.00  0.00    +0.000 A 
BRANCH  23  25
ATOM     25  C   UNL     1       3.234   5.192  17.809  0.00  0.00    +0.000 C 
ATOM     26  C   UNL     1       3.211   5.750  19.235  0.00  0.00    +0.000 C 
BRANCH  25  27
ATOM     27  S   UNL     1       2.488   3.525  17.700  0.00  0.00    +0.000 S 
BRANCH  27  28
ATOM     28  C   UNL     1       2.132   3.230  19.365  0.00  0.00    +0.000 A 
ATOM     29  N   UNL     1       1.016   3.527  19.998  0.00  0.00    +0.000 NA
ATOM     30  N   UNL     1       1.201   3.232  21.331  0.00  0.00    +0.000 NA
ATOM     31  C   UNL     1       2.417   2.755  21.466  0.00  0.00    +0.000 A 
ATOM     32  N   UNL     1       3.032   2.715  20.250  0.00  0.00    +0.000 N 
ATOM     33  C   UNL     1       4.368   2.252  19.992  0.00  0.00    +0.000 C 
ENDBRANCH  27  28
ENDBRANCH  25  27
ENDBRANCH  23  25
ENDBRANCH   4  19
TORSDOF 7
ENDMDL
MODEL 2
REMARK VINA RESULT:      -8.7      0.674      1.105
REMARK  Name = 
REMARK  10 active torsions:
REMARK  status: ('A' for Active; 'I' for Inactive)
REMARK    1  A    between atoms: C_1  and  N_2
REMARK    2  A    between atoms: N_2  and  S_3
REMARK    3  A    between atoms: S_3  and  C_6
REMARK    4  A    between atoms: C_9  and  N_10
REMARK    5  A    between atoms: N_13  and  C_14
REMARK    6  A    between atoms: C_18  and  C_19
REMARK    7  A    between atoms: C_19  and  C_20
REMARK    8  A    between atoms: C_19  and  S_21
REMARK    9  A    between atoms: S_21  and  C_22
REMARK   10  A    between atoms: N_26  and  C_27
REMARK                            x       y       z     vdW  Elec       q    Type
REMARK                         _______ _______ _______ _____ _____    ______ ____
ROOT
ATOM      1  N   UNL     1       8.905   8.565  19.014  0.00  0.00    +0.000 N 
ATOM      2  C   UNL     1       7.967   8.008  18.156  0.00  0.00    +0.000 C 
ATOM      3  O   UNL     1       7.391   8.613  17.262  0.00  0.00    +0.000 OA
ATOM      4  N   UNL     1       7.743   6.677  18.457  0.00  0.00    +0.000 N 
ATOM      5  H   UNL     1       9.608   7.929  19.365  0.00  0.00    +0.000 HD
ATOM      6  H   UNL     1       7.873   6.432  19.427  0.00  0.00    +0.000 HD
ENDROOT
BRANCH   1  10
ATOM      7  C   UNL     1       9.957  12.640  19.180  0.00  0.00    +0.000 A 
ATOM      8  C   UNL     1       9.872  12.007  17.942  0.00  0.00    +0.000 A 
ATOM      9  C   UNL     1       9.490  10.668  17.879  0.00  0.00    +0.000 A 
ATOM     10  C   UNL     1       9.202   9.946  19.048  0.00  0.00    +0.000 A 
ATOM     11  C   UNL     1       9.229  10.606  20.282  0.00  0.00    +0.000 A 
ATOM     12  C   UNL     1       9.627  11.949  20.352  0.00  0.00    +0.000 A 
BRANCH   7  13
ATOM     13  S   UNL     1      10.605  14.290  19.257  0.00  0.00    +0.000 S 
ATOM     14  O   UNL     1      11.513  14.469  18.148  0.00  0.00    +0.000 OA
ATOM     15  O   UNL     1      11.008  14.563  20.621  0.00  0.00    +0.000 OA
BRANCH  13  17
ATOM     16  C   UNL     1       8.316  15.505  19.981  0.00  0.00    +0.000 C 
ATOM     17  N   UNL     1       9.258  15.229  18.904  0.00  0.00    +0.000 NA
ATOM     18  H   UNL     1       9.487  15.985  18.259  0.00  0.00    +0.000 HD
ENDBRANCH  13  17
ENDBRANCH   7  13
ENDBRANCH   1  10
BRANCH   4  19
ATOM     19  C   UNL     1       6.856   5.869  17.713  0.00  0.00    +0.000 A 
ATOM     20  C   UNL     1       7.297   4.958  16.749  0.00  0.00    +0.000 A 
ATOM     21  C   UNL     1       6.381   4.167  16.058  0.00  0.00    +0.000 A 
ATOM     22  C   UNL     1       5.019   4.271  16.339  0.00  0.00    +0.000 A 
ATOM     23  C   UNL     1       4.556   5.167  17.319  0.00  0.00    +0.000 A 
ATOM     24  C   UNL     1       5.493   5.967  17.994  0.00  0.00    +0.000 A 
BRANCH  23  25
ATOM     25  C   UNL     1       3.108   5.185  17.785  0.00  0.00    +0.000 C 
ATOM     26  C   UNL     1       3.084   5.768  19.201  0.00  0.00    +0.000 C 
BRANCH  25  27
ATOM     27  S   UNL     1       2.309   3.542  17.694  0.00  0.00    +0.000 S 
BRANCH  27  28
ATOM     28  C   UNL     1       2.065   3.216  19.373  0.00  0.00    +0.000 A 
ATOM     29  N   UNL     1       0.976   3.457  20.073  0.00  0.00    +0.000 NA
ATOM     30  N   UNL     1       1.252   3.159  21.390  0.00  0.00    +0.000 NA
ATOM     31  C   UNL     1       2.495   2.736  21.449  0.00  0.00    +0.000 A 
ATOM     32  N   UNL     1       3.037   2.735  20.198  0.00  0.00    +0.000 N 
ATOM     33  C   UNL     1       4.375   2.335  19.858  0.00  0.00    +0.000 C 
ENDBRANCH  27  28
ENDBRANCH  25  27
ENDBRANCH  23  25
ENDBRANCH   4  19
TORSDOF 7
ENDMDL
MODEL 3
REMARK VINA RESULT:      -8.7      0.554      1.120
REMARK  Name = 
REMARK  10 active torsions:
REMARK  status: ('A' for Active; 'I' for Inactive)
REMARK    1  A    between atoms: C_1  and  N_2
REMARK    2  A    between atoms: N_2  and  S_3
REMARK    3  A    between atoms: S_3  and  C_6
REMARK    4  A    between atoms: C_9  and  N_10
REMARK    5  A    between atoms: N_13  and  C_14
REMARK    6  A    between atoms: C_18  and  C_19
REMARK    7  A    between atoms: C_19  and  C_20
REMARK    8  A    between atoms: C_19  and  S_21
REMARK    9  A    between atoms: S_21  and  C_22
REMARK   10  A    between atoms: N_26  and  C_27
REMARK                            x       y       z     vdW  Elec       q    Type
REMARK                         _______ _______ _______ _____ _____    ______ ____
ROOT
ATOM      1  N   UNL     1       8.933   8.648  19.062  0.00  0.00    +0.000 N 
ATOM      2  C   UNL     1       8.048   8.079  18.158  0.00  0.00    +0.000 C 
ATOM      3  O   UNL     1       7.527   8.671  17.221  0.00  0.00    +0.000 OA
ATOM      4  N   UNL     1       7.803   6.754  18.464  0.00  0.00    +0.000 N 
ATOM      5  H   UNL     1       9.613   8.018  19.464  0.00  0.00    +0.000 HD
ATOM      6  H   UNL     1       7.875   6.524  19.444  0.00  0.00    +0.000 HD
ENDROOT
BRANCH   1  10
ATOM      7  C   UNL     1       9.651  12.799  19.083  0.00  0.00    +0.000 A 
ATOM      8  C   UNL     1       9.425  12.139  20.288  0.00  0.00    +0.000 A 
ATOM      9  C   UNL     1       9.222  10.760  20.291  0.00  0.00    +0.000 A 
ATOM     10  C   UNL     1       9.230  10.030  19.093  0.00  0.00    +0.000 A 
ATOM     11  C   UNL     1       9.519  10.690  17.892  0.00  0.00    +0.000 A 
ATOM     12  C   UNL     1       9.709  12.079  17.883  0.00  0.00    +0.000 A 
BRANCH   7  13
ATOM     13  S   UNL     1       9.739  14.571  19.077  0.00  0.00    +0.000 S 
ATOM     14  O   UNL     1      11.103  14.953  18.797  0.00  0.00    +0.000 OA
ATOM     15  O   UNL     1       9.033  15.072  20.238  0.00  0.00    +0.000 OA
BRANCH  13  17
ATOM     16  C   UNL     1       7.406  15.044  17.821  0.00  0.00    +0.000 C 
ATOM     17  N   UNL     1       8.857  14.976  17.705  0.00  0.00    +0.000 NA
ATOM     18  H   UNL     1       9.331  15.692  17.154  0.00  0.00    +0.000 HD
ENDBRANCH  13  17
ENDBRANCH   7  13
ENDBRANCH   1  10
BRANCH   4  19
ATOM     19  C   UNL     1       6.962   5.935  17.681  0.00  0.00    +0.000 A 
ATOM     20  C   UNL     1       7.457   5.031  16.738  0.00  0.00    +0.000 A 
ATOM     21  C   UNL     1       6.583   4.229  16.006  0.00  0.00    +0.000 A 
ATOM     22  C   UNL     1       5.208   4.316  16.225  0.00  0.00    +0.000 A 
ATOM     23  C   UNL     1       4.691   5.205  17.183  0.00  0.00    +0.000 A 
ATOM     24  C   UNL     1       5.585   6.016  17.901  0.00  0.00    +0.000 A 
BRANCH  23  25
ATOM     25  C   UNL     1       3.222   5.204  17.583  0.00  0.00    +0.000 C 
ATOM     26  C   UNL     1       3.102   5.972  18.903  0.00  0.00    +0.000 C 
BRANCH  25  27
ATOM     27  S   UNL     1       2.513   3.521  17.689  0.00  0.00    +0.000 S 
BRANCH  27  28
ATOM     28  C   UNL     1       3.011   3.068  19.281  0.00  0.00    +0.000 A 
ATOM     29  N   UNL     1       4.192   2.608  19.636  0.00  0.00    +0.000 NA
ATOM     30  N   UNL     1       4.121   2.260  20.968  0.00  0.00    +0.000 NA
ATOM     31  C   UNL     1       2.904   2.529  21.383  0.00  0.00    +0.000 A 
ATOM     32  N   UNL     1       2.178   3.060  20.359  0.00  0.00    +0.000 N 
ATOM     33  C   UNL     1       0.806   3.483  20.426  0.00  0.00    +0.000 C 
ENDBRANCH  27  28
ENDBRANCH  25  27
ENDBRANCH  23  25
ENDBRANCH   4  19
TORSDOF 7
ENDMDL
MODEL 4
REMARK VINA RESULT:      -8.6      1.173      1.702
REMARK  Name = 
REMARK  10 active torsions:
REMARK  status: ('A' for Active; 'I' for Inactive)
REMARK    1  A    between atoms: C_1  and  N_2
REMARK    2  A    between atoms: N_2  and  S_3
REMARK    3  A    between atoms: S_3  and  C_6
REMARK    4  A    between atoms: C_9  and  N_10
REMARK    5  A    between atoms: N_13  and  C_14
REMARK    6  A    between atoms: C_18  and  C_19
REMARK    7  A    between atoms: C_19  and  C_20
REMARK    8  A    between atoms: C_19  and  S_21
REMARK    9  A    between atoms: S_21  and  C_22
REMARK   10  A    between atoms: N_26  and  C_27
REMARK                            x       y       z     vdW  Elec       q    Type
REMARK                         _______ _______ _______ _____ _____    ______ ____
ROOT
ATOM      1  N   UNL     1       8.860   8.559  18.874  0.00  0.00    +0.000 N 
ATOM      2  C   UNL     1       7.941   8.023  17.984  0.00  0.00    +0.000 C 
ATOM      3  O   UNL     1       7.302   8.669  17.163  0.00  0.00    +0.000 OA
ATOM      4  N   UNL     1       7.815   6.658  18.157  0.00  0.00    +0.000 N 
ATOM      5  H   UNL     1       9.614   7.944  19.147  0.00  0.00    +0.000 HD
ATOM      6  H   UNL     1       7.986   6.330  19.097  0.00  0.00    +0.000 HD
ENDROOT
BRANCH   1  10
ATOM      7  C   UNL     1       9.644  12.666  19.393  0.00  0.00    +0.000 A 
ATOM      8  C   UNL     1       9.419  12.170  18.111  0.00  0.00    +0.000 A 
ATOM      9  C   UNL     1       9.124  10.819  17.937  0.00  0.00    +0.000 A 
ATOM     10  C   UNL     1       9.064   9.949  19.036  0.00  0.00    +0.000 A 
ATOM     11  C   UNL     1       9.229  10.465  20.327  0.00  0.00    +0.000 A 
ATOM     12  C   UNL     1       9.541  11.821  20.506  0.00  0.00    +0.000 A 
BRANCH   7  13
ATOM     13  S   UNL     1      10.182  14.345  19.583  0.00  0.00    +0.000 S 
ATOM     14  O   UNL     1      10.980  14.429  20.783  0.00  0.00    +0.000 OA
ATOM     15  O   UNL     1       9.050  15.220  19.359  0.00  0.00    +0.000 OA
BRANCH  13  17
ATOM     16  C   UNL     1      10.973  15.568  17.319  0.00  0.00    +0.000 C 
ATOM     17  N   UNL     1      11.256  14.531  18.303  0.00  0.00    +0.000 NA
ATOM     18  H   UNL     1      12.222  14.403  18.604  0.00  0.00    +0.000 HD
ENDBRANCH  13  17
ENDBRANCH   7  13
ENDBRANCH   1  10
BRANCH   4  19
ATOM     19  C   UNL     1       6.966   5.864  17.356  0.00  0.00    +0.000 A 
ATOM     20  C   UNL     1       7.360   5.358  16.114  0.00  0.00    +0.000 A 
ATOM     21  C   UNL     1       6.491   4.560  15.372  0.00  0.00    +0.000 A 
ATOM     22  C   UNL     1       5.227   4.251  15.874  0.00  0.00    +0.000 A 
ATOM     23  C   UNL     1       4.819   4.734  17.130  0.00  0.00    +0.000 A 
ATOM     24  C   UNL     1       5.702   5.549  17.857  0.00  0.00    +0.000 A 
BRANCH  23  25
ATOM     25  C   UNL     1       3.529   4.277  17.796  0.00  0.00    +0.000 C 
ATOM     26  C   UNL     1       3.252   5.225  18.967  0.00  0.00    +0.000 C 
BRANCH  25  27
ATOM     27  S   UNL     1       3.577   2.523  18.314  0.00  0.00    +0.000 S 
BRANCH  27  28
ATOM     28  C   UNL     1       2.849   2.636  19.877  0.00  0.00    +0.000 A 
ATOM     29  N   UNL     1       3.471   2.639  21.038  0.00  0.00    +0.000 NA
ATOM     30  N   UNL     1       2.510   2.621  22.026  0.00  0.00    +0.000 NA
ATOM     31  C   UNL     1       1.336   2.619  21.437  0.00  0.00    +0.000 A 
ATOM     32  N   UNL     1       1.502   2.650  20.084  0.00  0.00    +0.000 N 
ATOM     33  C   UNL     1       0.452   2.660  19.104  0.00  0.00    +0.000 C 
ENDBRANCH  27  28
ENDBRANCH  25  27
ENDBRANCH  23  25
ENDBRANCH   4  19
TORSDOF 7
ENDMDL
MODEL 5
REMARK VINA RESULT:      -8.5      0.803      1.549
REMARK  Name = 
REMARK  10 active torsions:
REMARK  status: ('A' for Active; 'I' for Inactive)
REMARK    1  A    between atoms: C_1  and  N_2
REMARK    2  A    between atoms: N_2  and  S_3
REMARK    3  A    between atoms: S_3  and  C_6
REMARK    4  A    between atoms: C_9  and  N_10
REMARK    5  A    between atoms: N_13  and  C_14
REMARK    6  A    between atoms: C_18  and  C_19
REMARK    7  A    between atoms: C_19  and  C_20
REMARK    8  A    between atoms: C_19  and  S_21
REMARK    9  A    between atoms: S_21  and  C_22
REMARK   10  A    between atoms: N_26  and  C_27
REMARK                            x       y       z     vdW  Elec       q    Type
REMARK                         _______ _______ _______ _____ _____    ______ ____
ROOT
ATOM      1  N   UNL     1       8.968   8.665  18.892  0.00  0.00    +0.000 N 
ATOM      2  C   UNL     1       7.987   8.153  18.054  0.00  0.00    +0.000 C 
ATOM      3  O   UNL     1       7.324   8.816  17.266  0.00  0.00    +0.000 OA
ATOM      4  N   UNL     1       7.831   6.793  18.240  0.00  0.00    +0.000 N 
ATOM      5  H   UNL     1       9.716   8.029  19.127  0.00  0.00    +0.000 HD
ATOM      6  H   UNL     1       8.043   6.464  19.170  0.00  0.00    +0.000 HD
ENDROOT
BRANCH   1  10
ATOM      7  C   UNL     1       9.883  12.746  19.396  0.00  0.00    +0.000 A 
ATOM      8  C   UNL     1       9.887  12.198  18.116  0.00  0.00    +0.000 A 
ATOM      9  C   UNL     1       9.551  10.857  17.939  0.00  0.00    +0.000 A 
ATOM     10  C   UNL     1       9.220  10.049  19.037  0.00  0.00    +0.000 A 
ATOM     11  C   UNL     1       9.158  10.621  20.313  0.00  0.00    +0.000 A 
ATOM     12  C   UNL     1       9.510  11.965  20.498  0.00  0.00    +0.000 A 
BRANCH   7  13
ATOM     13  S   UNL     1      10.476  14.403  19.624  0.00  0.00    +0.000 S 
ATOM     14  O   UNL     1      11.895  14.414  19.357  0.00  0.00    +0.000 OA
ATOM     15  O   UNL     1       9.931  14.921  20.861  0.00  0.00    +0.000 OA
BRANCH  13  17
ATOM     16  C   UNL     1       8.394  15.702  18.517  0.00  0.00    +0.000 C 
ATOM     17  N   UNL     1       9.761  15.225  18.345  0.00  0.00    +0.000 NA
ATOM     18  H   UNL     1      10.428  15.835  17.873  0.00  0.00    +0.000 HD
ENDBRANCH  13  17
ENDBRANCH   7  13
ENDBRANCH   1  10
BRANCH   4  19
ATOM     19  C   UNL     1       6.918   6.022  17.488  0.00  0.00    +0.000 A 
ATOM     20  C   UNL     1       7.327   5.123  16.500  0.00  0.00    +0.000 A 
ATOM     21  C   UNL     1       6.386   4.369  15.801  0.00  0.00    +0.000 A 
ATOM     22  C   UNL     1       5.029   4.499  16.098  0.00  0.00    +0.000 A 
ATOM     23  C   UNL     1       4.598   5.384  17.102  0.00  0.00    +0.000 A 
ATOM     24  C   UNL     1       5.560   6.146  17.785  0.00  0.00    +0.000 A 
BRANCH  23  25
ATOM     25  C   UNL     1       3.155   5.425  17.584  0.00  0.00    +0.000 C 
ATOM     26  C   UNL     1       3.137   6.154  18.931  0.00  0.00    +0.000 C 
BRANCH  25  27
ATOM     27  S   UNL     1       2.386   3.768  17.677  0.00  0.00    +0.000 S 
BRANCH  27  28
ATOM     28  C   UNL     1       3.170   3.135  19.080  0.00  0.00    +0.000 A 
ATOM     29  N   UNL     1       4.400   2.670  19.154  0.00  0.00    +0.000 NA
ATOM     30  N   UNL     1       4.576   2.156  20.421  0.00  0.00    +0.000 NA
ATOM     31  C   UNL     1       3.454   2.334  21.081  0.00  0.00    +0.000 A 
ATOM     32  N   UNL     1       2.548   2.967  20.281  0.00  0.00    +0.000 N 
ATOM     33  C   UNL     1       1.209   3.336  20.649  0.00  0.00    +0.000 C 
ENDBRANCH  27  28
ENDBRANCH  25  27
ENDBRANCH  23  25
ENDBRANCH   4  19
TORSDOF 7
ENDMDL
MODEL 6
REMARK VINA RESULT:      -8.3      1.015      1.325
REMARK  Name = 
REMARK  10 active torsions:
REMARK  status: ('A' for Active; 'I' for Inactive)
REMARK    1  A    between atoms: C_1  and  N_2
REMARK    2  A    between atoms: N_2  and  S_3
REMARK    3  A    between atoms: S_3  and  C_6
REMARK    4  A    between atoms: C_9  and  N_10
REMARK    5  A    between atoms: N_13  and  C_14
REMARK    6  A    between atoms: C_18  and  C_19
REMARK    7  A    between atoms: C_19  and  C_20
REMARK    8  A    between atoms: C_19  and  S_21
REMARK    9  A    between atoms: S_21  and  C_22
REMARK   10  A    between atoms: N_26  and  C_27
REMARK                            x       y       z     vdW  Elec       q    Type
REMARK                         _______ _______ _______ _____ _____    ______ ____
ROOT
ATOM      1  N   UNL     1       9.158   9.063  18.965  0.00  0.00    +0.000 N 
ATOM      2  C   UNL     1       8.152   8.488  18.203  0.00  0.00    +0.000 C 
ATOM      3  O   UNL     1       7.481   9.082  17.368  0.00  0.00    +0.000 OA
ATOM      4  N   UNL     1       7.981   7.155  18.524  0.00  0.00    +0.000 N 
ATOM      5  H   UNL     1       9.903   8.440  19.246  0.00  0.00    +0.000 HD
ATOM      6  H   UNL     1       8.209   6.914  19.478  0.00  0.00    +0.000 HD
ENDROOT
BRANCH   1  10
ATOM      7  C   UNL     1       9.836  13.220  18.862  0.00  0.00    +0.000 A 
ATOM      8  C   UNL     1       9.294  12.644  20.009  0.00  0.00    +0.000 A 
ATOM      9  C   UNL     1       9.100  11.265  20.062  0.00  0.00    +0.000 A 
ATOM     10  C   UNL     1       9.433  10.450  18.969  0.00  0.00    +0.000 A 
ATOM     11  C   UNL     1      10.035  11.027  17.844  0.00  0.00    +0.000 A 
ATOM     12  C   UNL     1      10.217  12.416  17.781  0.00  0.00    +0.000 A 
BRANCH   7  13
ATOM     13  S   UNL     1       9.918  14.988  18.745  0.00  0.00    +0.000 S 
ATOM     14  O   UNL     1      11.158  15.339  18.093  0.00  0.00    +0.000 OA
ATOM     15  O   UNL     1       9.546  15.552  20.026  0.00  0.00    +0.000 OA
BRANCH  13  17
ATOM     16  C   UNL     1       7.411  14.686  17.814  0.00  0.00    +0.000 C 
ATOM     17  N   UNL     1       8.703  15.338  17.639  0.00  0.00    +0.000 NA
ATOM     18  H   UNL     1       8.713  16.322  17.371  0.00  0.00    +0.000 HD
ENDBRANCH  13  17
ENDBRANCH   7  13
ENDBRANCH   1  10
BRANCH   4  19
ATOM     19  C   UNL     1       7.040   6.329  17.871  0.00  0.00    +0.000 A 
ATOM     20  C   UNL     1       7.417   5.257  17.058  0.00  0.00    +0.000 A 
ATOM     21  C   UNL     1       6.447   4.459  16.453  0.00  0.00    +0.000 A 
ATOM     22  C   UNL     1       5.095   4.720  16.670  0.00  0.00    +0.000 A 
ATOM     23  C   UNL     1       4.695   5.782  17.501  0.00  0.00    +0.000 A 
ATOM     24  C   UNL     1       5.685   6.585  18.090  0.00  0.00    +0.000 A 
BRANCH  23  25
ATOM     25  C   UNL     1       3.244   5.991  17.911  0.00  0.00    +0.000 C 
ATOM     26  C   UNL     1       2.934   7.485  17.772  0.00  0.00    +0.000 C 
BRANCH  25  27
ATOM     27  S   UNL     1       2.879   5.356  19.587  0.00  0.00    +0.000 S 
BRANCH  27  28
ATOM     28  C   UNL     1       1.955   3.948  19.197  0.00  0.00    +0.000 A 
ATOM     29  N   UNL     1       1.508   3.604  18.007  0.00  0.00    +0.000 NA
ATOM     30  N   UNL     1       0.721   2.483  18.166  0.00  0.00    +0.000 NA
ATOM     31  C   UNL     1       0.723   2.175  19.443  0.00  0.00    +0.000 A 
ATOM     32  N   UNL     1       1.506   3.058  20.126  0.00  0.00    +0.000 N 
ATOM     33  C   UNL     1       1.757   3.047  21.541  0.00  0.00    +0.000 C 
ENDBRANCH  27  28
ENDBRANCH  25  27
ENDBRANCH  23  25
ENDBRANCH   4  19
TORSDOF 7
ENDMDL
MODEL 7
REMARK VINA RESULT:      -8.3      1.590      2.203
REMARK  Name = 
REMARK  10 active torsions:
REMARK  status: ('A' for Active; 'I' for Inactive)
REMARK    1  A    between atoms: C_1  and  N_2
REMARK    2  A    between atoms: N_2  and  S_3
REMARK    3  A    between atoms: S_3  and  C_6
REMARK    4  A    between atoms: C_9  and  N_10
REMARK    5  A    between atoms: N_13  and  C_14
REMARK    6  A    between atoms: C_18  and  C_19
REMARK    7  A    between atoms: C_19  and  C_20
REMARK    8  A    between atoms: C_19  and  S_21
REMARK    9  A    between atoms: S_21  and  C_22
REMARK   10  A    between atoms: N_26  and  C_27
REMARK                            x       y       z     vdW  Elec       q    Type
REMARK                         _______ _______ _______ _____ _____    ______ ____
ROOT
ATOM      1  N   UNL     1       8.811   8.417  19.017  0.00  0.00    +0.000 N 
ATOM      2  C   UNL     1       7.970   7.801  18.102  0.00  0.00    +0.000 C 
ATOM      3  O   UNL     1       7.445   8.360  17.148  0.00  0.00    +0.000 OA
ATOM      4  N   UNL     1       7.773   6.471  18.421  0.00  0.00    +0.000 N 
ATOM      5  H   UNL     1       9.508   7.820  19.441  0.00  0.00    +0.000 HD
ATOM      6  H   UNL     1       7.834   6.255  19.405  0.00  0.00    +0.000 HD
ENDROOT
BRANCH   1  10
ATOM      7  C   UNL     1       9.699  12.534  19.118  0.00  0.00    +0.000 A 
ATOM      8  C   UNL     1       9.498  11.909  17.890  0.00  0.00    +0.000 A 
ATOM      9  C   UNL     1       9.170  10.555  17.852  0.00  0.00    +0.000 A 
ATOM     10  C   UNL     1       9.051   9.810  19.036  0.00  0.00    +0.000 A 
ATOM     11  C   UNL     1       9.193  10.459  20.269  0.00  0.00    +0.000 A 
ATOM     12  C   UNL     1       9.539  11.818  20.311  0.00  0.00    +0.000 A 
BRANCH   7  13
ATOM     13  S   UNL     1      10.281  14.210  19.144  0.00  0.00    +0.000 S 
ATOM     14  O   UNL     1      11.712  14.187  19.337  0.00  0.00    +0.000 OA
ATOM     15  O   UNL     1       9.410  14.987  20.001  0.00  0.00    +0.000 OA
BRANCH  13  17
ATOM     16  C   UNL     1      11.105  15.456  16.905  0.00  0.00    +0.000 C 
ATOM     17  N   UNL     1      10.040  14.704  17.556  0.00  0.00    +0.000 NA
ATOM     18  H   UNL     1       9.551  13.993  17.013  0.00  0.00    +0.000 HD
ENDBRANCH  13  17
ENDBRANCH   7  13
ENDBRANCH   1  10
BRANCH   4  19
ATOM     19  C   UNL     1       6.983   5.608  17.631  0.00  0.00    +0.000 A 
ATOM     20  C   UNL     1       7.353   5.217  16.342  0.00  0.00    +0.000 A 
ATOM     21  C   UNL     1       6.547   4.346  15.612  0.00  0.00    +0.000 A 
ATOM     22  C   UNL     1       5.371   3.847  16.175  0.00  0.00    +0.000 A 
ATOM     23  C   UNL     1       4.991   4.213  17.478  0.00  0.00    +0.000 A 
ATOM     24  C   UNL     1       5.808   5.104  18.192  0.00  0.00    +0.000 A 
BRANCH  23  25
ATOM     25  C   UNL     1       3.821   3.557  18.197  0.00  0.00    +0.000 C 
ATOM     26  C   UNL     1       3.906   2.049  17.941  0.00  0.00    +0.000 C 
BRANCH  25  27
ATOM     27  S   UNL     1       2.202   4.256  17.710  0.00  0.00    +0.000 S 
BRANCH  27  28
ATOM     28  C   UNL     1       2.077   5.570  18.825  0.00  0.00    +0.000 A 
ATOM     29  N   UNL     1       2.324   6.840  18.579  0.00  0.00    +0.000 NA
ATOM     30  N   UNL     1       2.218   7.523  19.771  0.00  0.00    +0.000 NA
ATOM     31  C   UNL     1       1.900   6.652  20.701  0.00  0.00    +0.000 A 
ATOM     32  N   UNL     1       1.779   5.413  20.146  0.00  0.00    +0.000 N 
ATOM     33  C   UNL     1       1.440   4.203  20.844  0.00  0.00    +0.000 C 
ENDBRANCH  27  28
ENDBRANCH  25  27
ENDBRANCH  23  25
ENDBRANCH   4  19
TORSDOF 7
ENDMDL
MODEL 8
REMARK VINA RESULT:      -8.2      1.115      1.649
REMARK  Name = 
REMARK  10 active torsions:
REMARK  status: ('A' for Active; 'I' for Inactive)
REMARK    1  A    between atoms: C_1  and  N_2
REMARK    2  A    between atoms: N_2  and  S_3
REMARK    3  A    between atoms: S_3  and  C_6
REMARK    4  A    between atoms: C_9  and  N_10
REMARK    5  A    between atoms: N_13  and  C_14
REMARK    6  A    between atoms: C_18  and  C_19
REMARK    7  A    between atoms: C_19  and  C_20
REMARK    8  A    between atoms: C_19  and  S_21
REMARK    9  A    between atoms: S_21  and  C_22
REMARK   10  A    between atoms: N_26  and  C_27
REMARK                            x       y       z     vdW  Elec       q    Type
REMARK                         _______ _______ _______ _____ _____    ______ ____
ROOT
ATOM      1  N   UNL     1       8.845   8.576  18.985  0.00  0.00    +0.000 N 
ATOM      2  C   UNL     1       7.984   7.998  18.063  0.00  0.00    +0.000 C 
ATOM      3  O   UNL     1       7.407   8.604  17.169  0.00  0.00    +0.000 OA
ATOM      4  N   UNL     1       7.836   6.644  18.297  0.00  0.00    +0.000 N 
ATOM      5  H   UNL     1       9.573   7.972  19.340  0.00  0.00    +0.000 HD
ATOM      6  H   UNL     1       7.941   6.365  19.261  0.00  0.00    +0.000 HD
ENDROOT
BRANCH   1  10
ATOM      7  C   UNL     1       9.628  12.701  19.326  0.00  0.00    +0.000 A 
ATOM      8  C   UNL     1       9.354  12.159  18.073  0.00  0.00    +0.000 A 
ATOM      9  C   UNL     1       9.060  10.801  17.958  0.00  0.00    +0.000 A 
ATOM     10  C   UNL     1       9.048   9.971  19.089  0.00  0.00    +0.000 A 
ATOM     11  C   UNL     1       9.263  10.534  20.353  0.00  0.00    +0.000 A 
ATOM     12  C   UNL     1       9.574  11.896  20.471  0.00  0.00    +0.000 A 
BRANCH   7  13
ATOM     13  S   UNL     1      10.165  14.388  19.434  0.00  0.00    +0.000 S 
ATOM     14  O   UNL     1      10.882  14.710  18.222  0.00  0.00    +0.000 OA
ATOM     15  O   UNL     1      10.747  14.604  20.742  0.00  0.00    +0.000 OA
BRANCH  13  17
ATOM     16  C   UNL     1       8.437  15.993  18.137  0.00  0.00    +0.000 C 
ATOM     17  N   UNL     1       8.718  15.238  19.351  0.00  0.00    +0.000 NA
ATOM     18  H   UNL     1       7.954  14.718  19.782  0.00  0.00    +0.000 HD
ENDBRANCH  13  17
ENDBRANCH   7  13
ENDBRANCH   1  10
BRANCH   4  19
ATOM     19  C   UNL     1       7.038   5.813  17.481  0.00  0.00    +0.000 A 
ATOM     20  C   UNL     1       7.430   5.417  16.200  0.00  0.00    +0.000 A 
ATOM     21  C   UNL     1       6.614   4.577  15.443  0.00  0.00    +0.000 A 
ATOM     22  C   UNL     1       5.407   4.117  15.971  0.00  0.00    +0.000 A 
ATOM     23  C   UNL     1       5.004   4.488  17.266  0.00  0.00    +0.000 A 
ATOM     24  C   UNL     1       5.832   5.347  18.007  0.00  0.00    +0.000 A 
BRANCH  23  25
ATOM     25  C   UNL     1       3.793   3.869  17.949  0.00  0.00    +0.000 C 
ATOM     26  C   UNL     1       2.999   3.108  16.883  0.00  0.00    +0.000 C 
BRANCH  25  27
ATOM     27  S   UNL     1       2.770   5.098  18.836  0.00  0.00    +0.000 S 
BRANCH  27  28
ATOM     28  C   UNL     1       2.313   4.182  20.229  0.00  0.00    +0.000 A 
ATOM     29  N   UNL     1       2.832   4.272  21.436  0.00  0.00    +0.000 NA
ATOM     30  N   UNL     1       2.263   3.282  22.209  0.00  0.00    +0.000 NA
ATOM     31  C   UNL     1       1.411   2.630  21.452  0.00  0.00    +0.000 A 
ATOM     32  N   UNL     1       1.394   3.177  20.204  0.00  0.00    +0.000 N 
ATOM     33  C   UNL     1       0.586   2.738  19.099  0.00  0.00    +0.000 C 
ENDBRANCH  27  28
ENDBRANCH  25  27
ENDBRANCH  23  25
ENDBRANCH   4  19
TORSDOF 7
ENDMDL
MODEL 9
REMARK VINA RESULT:      -8.2      1.062      1.280
REMARK  Name = 
REMARK  10 active torsions:
REMARK  status: ('A' for Active; 'I' for Inactive)
REMARK    1  A    between atoms: C_1  and  N_2
REMARK    2  A    between atoms: N_2  and  S_3
REMARK    3  A    between atoms: S_3  and  C_6
REMARK    4  A    between atoms: C_9  and  N_10
REMARK    5  A    between atoms: N_13  and  C_14
REMARK    6  A    between atoms: C_18  and  C_19
REMARK    7  A    between atoms: C_19  and  C_20
REMARK    8  A    between atoms: C_19  and  S_21
REMARK    9  A    between atoms: S_21  and  C_22
REMARK   10  A    between atoms: N_26  and  C_27
REMARK                            x       y       z     vdW  Elec       q    Type
REMARK                         _______ _______ _______ _____ _____    ______ ____
ROOT
ATOM      1  N   UNL     1       8.694   8.475  19.027  0.00  0.00    +0.000 N 
ATOM      2  C   UNL     1       7.888   7.855  18.082  0.00  0.00    +0.000 C 
ATOM      3  O   UNL     1       7.546   8.355  17.019  0.00  0.00    +0.000 OA
ATOM      4  N   UNL     1       7.494   6.600  18.508  0.00  0.00    +0.000 N 
ATOM      5  H   UNL     1       9.260   7.856  19.591  0.00  0.00    +0.000 HD
ATOM      6  H   UNL     1       7.418   6.495  19.508  0.00  0.00    +0.000 HD
ENDROOT
BRANCH   1  10
ATOM      7  C   UNL     1       9.742  12.549  18.812  0.00  0.00    +0.000 A 
ATOM      8  C   UNL     1      10.301  11.752  19.807  0.00  0.00    +0.000 A 
ATOM      9  C   UNL     1       9.985  10.395  19.862  0.00  0.00    +0.000 A 
ATOM     10  C   UNL     1       9.101   9.825  18.933  0.00  0.00    +0.000 A 
ATOM     11  C   UNL     1       8.591  10.619  17.898  0.00  0.00    +0.000 A 
ATOM     12  C   UNL     1       8.894  11.987  17.849  0.00  0.00    +0.000 A 
BRANCH   7  13
ATOM     13  S   UNL     1      10.019  14.301  18.858  0.00  0.00    +0.000 S 
ATOM     14  O   UNL     1       8.766  14.962  18.575  0.00  0.00    +0.000 OA
ATOM     15  O   UNL     1      11.221  14.597  18.107  0.00  0.00    +0.000 OA
BRANCH  13  17
ATOM     16  C   UNL     1       9.584  15.642  21.151  0.00  0.00    +0.000 C 
ATOM     17  N   UNL     1      10.328  14.579  20.485  0.00  0.00    +0.000 NA
ATOM     18  H   UNL     1      10.479  13.708  20.992  0.00  0.00    +0.000 HD
ENDBRANCH  13  17
ENDBRANCH   7  13
ENDBRANCH   1  10
BRANCH   4  19
ATOM     19  C   UNL     1       6.694   5.746  17.718  0.00  0.00    +0.000 A 
ATOM     20  C   UNL     1       7.233   4.888  16.756  0.00  0.00    +0.000 A 
ATOM     21  C   UNL     1       6.400   4.048  16.018  0.00  0.00    +0.000 A 
ATOM     22  C   UNL     1       5.025   4.051  16.250  0.00  0.00    +0.000 A 
ATOM     23  C   UNL     1       4.465   4.892  17.227  0.00  0.00    +0.000 A 
ATOM     24  C   UNL     1       5.318   5.743  17.950  0.00  0.00    +0.000 A 
BRANCH  23  25
ATOM     25  C   UNL     1       3.003   4.799  17.640  0.00  0.00    +0.000 C 
ATOM     26  C   UNL     1       2.861   5.489  19.000  0.00  0.00    +0.000 C 
BRANCH  25  27
ATOM     27  S   UNL     1       2.376   3.081  17.660  0.00  0.00    +0.000 S 
BRANCH  27  28
ATOM     28  C   UNL     1       2.103   2.864  19.353  0.00  0.00    +0.000 A 
ATOM     29  N   UNL     1       0.972   3.055  20.000  0.00  0.00    +0.000 NA
ATOM     30  N   UNL     1       1.228   2.887  21.344  0.00  0.00    +0.000 NA
ATOM     31  C   UNL     1       2.501   2.589  21.471  0.00  0.00    +0.000 A 
ATOM     32  N   UNL     1       3.086   2.543  20.241  0.00  0.00    +0.000 N 
ATOM     33  C   UNL     1       4.466   2.246  19.972  0.00  0.00    +0.000 C 
ENDBRANCH  27  28
ENDBRANCH  25  27
ENDBRANCH  23  25
ENDBRANCH   4  19
TORSDOF 7
ENDMDL
