MODEL 1
REMARK VINA RESULT:      -8.3      0.000      0.000
REMARK  Name = 
REMARK  9 active torsions:
REMARK  status: ('A' for Active; 'I' for Inactive)
REMARK    1  A    between atoms: C_1  and  C_2
REMARK    2  A    between atoms: C_2  and  C_3
REMARK    3  A    between atoms: C_2  and  C_10
REMARK    4  A    between atoms: C_3  and  C_4
REMARK    5  A    between atoms: N_8  and  C_9
REMARK    6  A    between atoms: C_14  and  N_15
REMARK    7  A    between atoms: C_16  and  C_18
REMARK    8  A    between atoms: C_20  and  C_21
REMARK    9  A    between atoms: C_25  and  C_26
REMARK                            x       y       z     vdW  Elec       q    Type
REMARK                         _______ _______ _______ _____ _____    ______ ____
ROOT
ATOM      1  N   UNL     1       2.073   8.705  17.858  0.00  0.00    +0.000 N 
ATOM      2  C   UNL     1       2.325   7.681  18.759  0.00  0.00    +0.000 C 
ATOM      3  O   UNL     1       2.107   7.698  19.967  0.00  0.00    +0.000 OA
ATOM      4  H   UNL     1       2.240   8.465  16.883  0.00  0.00    +0.000 HD
ENDROOT
BRANCH   1   9
ATOM      5  C   UNL     1      -0.414  11.326  18.738  0.00  0.00    +0.000 A 
ATOM      6  C   UNL     1       0.399  12.467  18.769  0.00  0.00    +0.000 A 
ATOM      7  C   UNL     1       1.762  12.373  18.494  0.00  0.00    +0.000 A 
ATOM      8  C   UNL     1       2.337  11.135  18.194  0.00  0.00    +0.000 A 
ATOM      9  C   UNL     1       1.554   9.983  18.150  0.00  0.00    +0.000 A 
ATOM     10  C   UNL     1       0.177  10.091  18.401  0.00  0.00    +0.000 A 
BRANCH   5  12
ATOM     11  C   UNL     1      -2.765  11.353  17.768  0.00  0.00    +0.000 C 
ATOM     12  C   UNL     1      -1.908  11.462  19.038  0.00  0.00    +0.000 C 
BRANCH  12  13
ATOM     13  C   UNL     1      -2.158  12.763  19.828  0.00  0.00    +0.000 C 
BRANCH  13  14
ATOM     14  C   UNL     1      -2.832  12.555  21.143  0.00  0.00    +0.000 A 
ATOM     15  N   UNL     1      -4.126  12.670  21.369  0.00  0.00    +0.000 NA
ATOM     16  N   UNL     1      -4.349  12.478  22.711  0.00  0.00    +0.000 NA
ATOM     17  C   UNL     1      -3.189  12.253  23.278  0.00  0.00    +0.000 A 
ATOM     18  N   UNL     1      -2.211  12.267  22.331  0.00  0.00    +0.000 N 
ATOM     19  C   UNL     1      -0.813  12.030  22.564  0.00  0.00    +0.000 C 
ENDBRANCH  13  14
ENDBRANCH  12  13
ENDBRANCH   5  12
ENDBRANCH   1   9
BRANCH   2  20
ATOM     20  C   UNL     1       2.894   6.441  18.145  0.00  0.00    +0.000 A 
ATOM     21  C   UNL     1       2.223   5.250  18.302  0.00  0.00    +0.000 A 
ATOM     22  C   UNL     1       2.790   4.141  17.720  0.00  0.00    +0.000 A 
ATOM     23  N   UNL     1       3.956   4.245  17.041  0.00  0.00    +0.000 NA
ATOM     24  C   UNL     1       4.552   5.450  16.925  0.00  0.00    +0.000 A 
ATOM     25  N   UNL     1       4.054   6.575  17.465  0.00  0.00    +0.000 NA
BRANCH  22  26
ATOM     26  C   UNL     1       2.146   2.781  17.842  0.00  0.00    +0.000 C 
ATOM     27  C   UNL     1       2.265   1.977  19.118  0.00  0.00    +0.000 C 
ATOM     28  C   UNL     1       0.952   2.600  18.752  0.00  0.00    +0.000 C 
ENDBRANCH  22  26
BRANCH  24  29
ATOM     29  C   UNL     1       5.837   5.533  16.140  0.00  0.00    +0.000 C 
ATOM     30  C   UNL     1       6.590   4.271  15.787  0.00  0.00    +0.000 C 
ATOM     31  C   UNL     1       5.882   5.040  14.711  0.00  0.00    +0.000 C 
ENDBRANCH  24  29
ENDBRANCH   2  20
TORSDOF 7
ENDMDL
MODEL 2
REMARK VINA RESULT:      -8.2      0.643      2.723
REMARK  Name = 
REMARK  9 active torsions:
REMARK  status: ('A' for Active; 'I' for Inactive)
REMARK    1  A    between atoms: C_1  and  C_2
REMARK    2  A    between atoms: C_2  and  C_3
REMARK    3  A    between atoms: C_2  and  C_10
REMARK    4  A    between atoms: C_3  and  C_4
REMARK    5  A    between atoms: N_8  and  C_9
REMARK    6  A    between atoms: C_14  and  N_15
REMARK    7  A    between atoms: C_16  and  C_18
REMARK    8  A    between atoms: C_20  and  C_21
REMARK    9  A    between atoms: C_25  and  C_26
REMARK                            x       y       z     vdW  Elec       q    Type
REMARK                         _______ _______ _______ _____ _____    ______ ____
ROOT
ATOM      1  N   UNL     1       2.061   8.908  17.901  0.00  0.00    +0.000 N 
ATOM      2  C   UNL     1       2.283   7.860  18.782  0.00  0.00    +0.000 C 
ATOM      3  O   UNL     1       2.008   7.837  19.978  0.00  0.00    +0.000 OA
ATOM      4  H   UNL     1       2.278   8.699  16.928  0.00  0.00    +0.000 HD
ENDROOT
BRANCH   1   9
ATOM      5  C   UNL     1      -0.484  11.451  18.841  0.00  0.00    +0.000 A 
ATOM      6  C   UNL     1       0.294  12.617  18.850  0.00  0.00    +0.000 A 
ATOM      7  C   UNL     1       1.652  12.565  18.540  0.00  0.00    +0.000 A 
ATOM      8  C   UNL     1       2.257  11.345  18.227  0.00  0.00    +0.000 A 
ATOM      9  C   UNL     1       1.510  10.169  18.204  0.00  0.00    +0.000 A 
ATOM     10  C   UNL     1       0.137  10.235  18.490  0.00  0.00    +0.000 A 
BRANCH   5  12
ATOM     11  C   UNL     1      -2.858  11.402  17.932  0.00  0.00    +0.000 C 
ATOM     12  C   UNL     1      -1.973  11.541  19.179  0.00  0.00    +0.000 C 
BRANCH  12  13
ATOM     13  C   UNL     1      -2.243  12.836  19.973  0.00  0.00    +0.000 C 
BRANCH  13  14
ATOM     14  C   UNL     1      -2.956  12.619  21.265  0.00  0.00    +0.000 A 
ATOM     15  N   UNL     1      -4.262  12.669  21.440  0.00  0.00    +0.000 NA
ATOM     16  N   UNL     1      -4.527  12.492  22.777  0.00  0.00    +0.000 NA
ATOM     17  C   UNL     1      -3.379  12.341  23.391  0.00  0.00    +0.000 A 
ATOM     18  N   UNL     1      -2.367  12.388  22.482  0.00  0.00    +0.000 N 
ATOM     19  C   UNL     1      -0.969  12.230  22.772  0.00  0.00    +0.000 C 
ENDBRANCH  13  14
ENDBRANCH  12  13
ENDBRANCH   5  12
ENDBRANCH   1   9
BRANCH   2  20
ATOM     20  C   UNL     1       2.900   6.646  18.160  0.00  0.00    +0.000 A 
ATOM     21  C   UNL     1       4.078   6.780  17.462  0.00  0.00    +0.000 A 
ATOM     22  C   UNL     1       4.600   5.635  16.909  0.00  0.00    +0.000 A 
ATOM     23  N   UNL     1       3.960   4.452  17.052  0.00  0.00    +0.000 NA
ATOM     24  C   UNL     1       2.811   4.399  17.757  0.00  0.00    +0.000 A 
ATOM     25  N   UNL     1       2.245   5.477  18.327  0.00  0.00    +0.000 NA
BRANCH  22  26
ATOM     26  C   UNL     1       5.882   5.669  16.110  0.00  0.00    +0.000 C 
ATOM     27  C   UNL     1       7.212   5.369  16.766  0.00  0.00    +0.000 C 
ATOM     28  C   UNL     1       6.611   4.379  15.815  0.00  0.00    +0.000 C 
ENDBRANCH  22  26
BRANCH  24  29
ATOM     29  C   UNL     1       2.137   3.060  17.918  0.00  0.00    +0.000 C 
ATOM     30  C   UNL     1       2.970   1.803  18.031  0.00  0.00    +0.000 C 
ATOM     31  C   UNL     1       2.236   2.319  19.233  0.00  0.00    +0.000 C 
ENDBRANCH  24  29
ENDBRANCH   2  20
TORSDOF 7
ENDMDL
MODEL 3
REMARK VINA RESULT:      -8.2      0.580      1.129
REMARK  Name = 
REMARK  9 active torsions:
REMARK  status: ('A' for Active; 'I' for Inactive)
REMARK    1  A    between atoms: C_1  and  C_2
REMARK    2  A    between atoms: C_2  and  C_3
REMARK    3  A    between atoms: C_2  and  C_10
REMARK    4  A    between atoms: C_3  and  C_4
REMARK    5  A    between atoms: N_8  and  C_9
REMARK    6  A    between atoms: C_14  and  N_15
REMARK    7  A    between atoms: C_16  and  C_18
REMARK    8  A    between atoms: C_20  and  C_21
REMARK    9  A    between atoms: C_25  and  C_26
REMARK                            x       y       z     vdW  Elec       q    Type
REMARK                         _______ _______ _______ _____ _____    ______ ____
ROOT
ATOM      1  N   UNL     1       2.093   8.542  17.755  0.00  0.00    +0.000 N 
ATOM      2  C   UNL     1       2.374   7.545  18.678  0.00  0.00    +0.000 C 
ATOM      3  O   UNL     1       2.206   7.602  19.893  0.00  0.00    +0.000 OA
ATOM      4  H   UNL     1       2.219   8.269  16.782  0.00  0.00    +0.000 HD
ENDROOT
BRANCH   1   9
ATOM      5  C   UNL     1      -0.350  11.211  18.613  0.00  0.00    +0.000 A 
ATOM      6  C   UNL     1       0.478  12.343  18.606  0.00  0.00    +0.000 A 
ATOM      7  C   UNL     1       1.836  12.226  18.314  0.00  0.00    +0.000 A 
ATOM      8  C   UNL     1       2.390  10.975  18.033  0.00  0.00    +0.000 A 
ATOM      9  C   UNL     1       1.594   9.832  18.026  0.00  0.00    +0.000 A 
ATOM     10  C   UNL     1       0.222   9.962  18.294  0.00  0.00    +0.000 A 
BRANCH   5  12
ATOM     11  C   UNL     1      -2.702  11.378  17.663  0.00  0.00    +0.000 C 
ATOM     12  C   UNL     1      -1.837  11.372  18.931  0.00  0.00    +0.000 C 
BRANCH  12  13
ATOM     13  C   UNL     1      -2.043  12.622  19.811  0.00  0.00    +0.000 C 
BRANCH  13  14
ATOM     14  C   UNL     1      -2.002  12.347  21.277  0.00  0.00    +0.000 A 
ATOM     15  N   UNL     1      -0.943  11.947  21.955  0.00  0.00    +0.000 NA
ATOM     16  N   UNL     1      -1.321  11.730  23.258  0.00  0.00    +0.000 NA
ATOM     17  C   UNL     1      -2.600  11.999  23.351  0.00  0.00    +0.000 A 
ATOM     18  N   UNL     1      -3.066  12.413  22.140  0.00  0.00    +0.000 N 
ATOM     19  C   UNL     1      -4.412  12.825  21.854  0.00  0.00    +0.000 C 
ENDBRANCH  13  14
ENDBRANCH  12  13
ENDBRANCH   5  12
ENDBRANCH   1   9
BRANCH   2  20
ATOM     20  C   UNL     1       2.912   6.281  18.082  0.00  0.00    +0.000 A 
ATOM     21  C   UNL     1       2.247   5.099  18.313  0.00  0.00    +0.000 A 
ATOM     22  C   UNL     1       2.784   3.968  17.745  0.00  0.00    +0.000 A 
ATOM     23  N   UNL     1       3.916   4.045  17.008  0.00  0.00    +0.000 NA
ATOM     24  C   UNL     1       4.507   5.243  16.819  0.00  0.00    +0.000 A 
ATOM     25  N   UNL     1       4.037   6.388  17.342  0.00  0.00    +0.000 NA
BRANCH  22  26
ATOM     26  C   UNL     1       2.143   2.616  17.946  0.00  0.00    +0.000 C 
ATOM     27  C   UNL     1       2.084   1.982  19.319  0.00  0.00    +0.000 C 
ATOM     28  C   UNL     1       0.832   2.515  18.691  0.00  0.00    +0.000 C 
ENDBRANCH  22  26
BRANCH  24  29
ATOM     29  C   UNL     1       5.753   5.293  15.972  0.00  0.00    +0.000 C 
ATOM     30  C   UNL     1       6.386   4.011  15.480  0.00  0.00    +0.000 C 
ATOM     31  C   UNL     1       5.686   4.914  14.509  0.00  0.00    +0.000 C 
ENDBRANCH  24  29
ENDBRANCH   2  20
TORSDOF 7
ENDMDL
MODEL 4
REMARK VINA RESULT:      -8.2      2.068      3.093
REMARK  Name = 
REMARK  9 active torsions:
REMARK  status: ('A' for Active; 'I' for Inactive)
REMARK    1  A    between atoms: C_1  and  C_2
REMARK    2  A    between atoms: C_2  and  C_3
REMARK    3  A    between atoms: C_2  and  C_10
REMARK    4  A    between atoms: C_3  and  C_4
REMARK    5  A    between atoms: N_8  and  C_9
REMARK    6  A    between atoms: C_14  and  N_15
REMARK    7  A    between atoms: C_16  and  C_18
REMARK    8  A    between atoms: C_20  and  C_21
REMARK    9  A    between atoms: C_25  and  C_26
REMARK                            x       y       z     vdW  Elec       q    Type
REMARK                         _______ _______ _______ _____ _____    ______ ____
ROOT
ATOM      1  N   UNL     1       1.795   7.771  19.737  0.00  0.00    +0.000 N 
ATOM      2  C   UNL     1       2.256   7.823  18.430  0.00  0.00    +0.000 C 
ATOM      3  O   UNL     1       2.202   8.786  17.670  0.00  0.00    +0.000 OA
ATOM      4  H   UNL     1       2.014   6.909  20.232  0.00  0.00    +0.000 HD
ENDROOT
BRANCH   1   9
ATOM      5  C   UNL     1      -0.089  10.921  20.339  0.00  0.00    +0.000 A 
ATOM      6  C   UNL     1      -0.214  10.895  21.735  0.00  0.00    +0.000 A 
ATOM      7  C   UNL     1       0.326   9.844  22.475  0.00  0.00    +0.000 A 
ATOM      8  C   UNL     1       0.993   8.799  21.832  0.00  0.00    +0.000 A 
ATOM      9  C   UNL     1       1.139   8.799  20.446  0.00  0.00    +0.000 A 
ATOM     10  C   UNL     1       0.616   9.873  19.711  0.00  0.00    +0.000 A 
BRANCH   5  12
ATOM     11  C   UNL     1      -0.205  13.449  20.084  0.00  0.00    +0.000 C 
ATOM     12  C   UNL     1      -0.687  12.090  19.555  0.00  0.00    +0.000 C 
BRANCH  12  13
ATOM     13  C   UNL     1      -2.224  11.960  19.530  0.00  0.00    +0.000 C 
BRANCH  13  14
ATOM     14  C   UNL     1      -2.780  11.584  18.198  0.00  0.00    +0.000 A 
ATOM     15  N   UNL     1      -2.073  11.226  17.143  0.00  0.00    +0.000 NA
ATOM     16  N   UNL     1      -2.935  11.031  16.091  0.00  0.00    +0.000 NA
ATOM     17  C   UNL     1      -4.149  11.275  16.522  0.00  0.00    +0.000 A 
ATOM     18  N   UNL     1      -4.105  11.600  17.843  0.00  0.00    +0.000 N 
ATOM     19  C   UNL     1      -5.239  11.904  18.672  0.00  0.00    +0.000 C 
ENDBRANCH  13  14
ENDBRANCH  12  13
ENDBRANCH   5  12
ENDBRANCH   1   9
BRANCH   2  20
ATOM     20  C   UNL     1       2.901   6.560  17.950  0.00  0.00    +0.000 A 
ATOM     21  C   UNL     1       2.244   5.364  18.133  0.00  0.00    +0.000 A 
ATOM     22  C   UNL     1       2.881   4.235  17.676  0.00  0.00    +0.000 A 
ATOM     23  N   UNL     1       4.097   4.325  17.089  0.00  0.00    +0.000 NA
ATOM     24  C   UNL     1       4.674   5.535  16.939  0.00  0.00    +0.000 A 
ATOM     25  N   UNL     1       4.109   6.680  17.358  0.00  0.00    +0.000 NA
BRANCH  22  26
ATOM     26  C   UNL     1       2.257   2.869  17.838  0.00  0.00    +0.000 C 
ATOM     27  C   UNL     1       2.327   2.136  19.160  0.00  0.00    +0.000 C 
ATOM     28  C   UNL     1       1.023   2.710  18.696  0.00  0.00    +0.000 C 
ENDBRANCH  22  26
BRANCH  24  29
ATOM     29  C   UNL     1       6.018   5.600  16.257  0.00  0.00    +0.000 C 
ATOM     30  C   UNL     1       6.782   4.328  15.970  0.00  0.00    +0.000 C 
ATOM     31  C   UNL     1       6.169   5.098  14.838  0.00  0.00    +0.000 C 
ENDBRANCH  24  29
ENDBRANCH   2  20
TORSDOF 7
ENDMDL
MODEL 5
REMARK VINA RESULT:      -8.2      1.866      3.469
REMARK  Name = 
REMARK  9 active torsions:
REMARK  status: ('A' for Active; 'I' for Inactive)
REMARK    1  A    between atoms: C_1  and  C_2
REMARK    2  A    between atoms: C_2  and  C_3
REMARK    3  A    between atoms: C_2  and  C_10
REMARK    4  A    between atoms: C_3  and  C_4
REMARK    5  A    between atoms: N_8  and  C_9
REMARK    6  A    between atoms: C_14  and  N_15
REMARK    7  A    between atoms: C_16  and  C_18
REMARK    8  A    between atoms: C_20  and  C_21
REMARK    9  A    between atoms: C_25  and  C_26
REMARK                            x       y       z     vdW  Elec       q    Type
REMARK                         _______ _______ _______ _____ _____    ______ ____
ROOT
ATOM      1  N   UNL     1       1.740   8.466  17.917  0.00  0.00    +0.000 N 
ATOM      2  C   UNL     1       2.231   7.621  18.900  0.00  0.00    +0.000 C 
ATOM      3  O   UNL     1       2.004   7.688  20.105  0.00  0.00    +0.000 OA
ATOM      4  H   UNL     1       1.971   8.190  16.964  0.00  0.00    +0.000 HD
ENDROOT
BRANCH   1   9
ATOM      5  C   UNL     1      -1.346  10.541  17.949  0.00  0.00    +0.000 A 
ATOM      6  C   UNL     1      -0.848  11.753  18.446  0.00  0.00    +0.000 A 
ATOM      7  C   UNL     1       0.503  11.887  18.764  0.00  0.00    +0.000 A 
ATOM      8  C   UNL     1       1.375  10.809  18.599  0.00  0.00    +0.000 A 
ATOM      9  C   UNL     1       0.912   9.592  18.101  0.00  0.00    +0.000 A 
ATOM     10  C   UNL     1      -0.444   9.474  17.758  0.00  0.00    +0.000 A 
BRANCH   5  12
ATOM     11  C   UNL     1      -3.055   9.904  16.177  0.00  0.00    +0.000 C 
ATOM     12  C   UNL     1      -2.832  10.427  17.604  0.00  0.00    +0.000 C 
BRANCH  12  13
ATOM     13  C   UNL     1      -3.527  11.777  17.870  0.00  0.00    +0.000 C 
BRANCH  13  14
ATOM     14  C   UNL     1      -4.887  11.653  18.473  0.00  0.00    +0.000 A 
ATOM     15  N   UNL     1      -5.946  11.137  17.879  0.00  0.00    +0.000 NA
ATOM     16  N   UNL     1      -7.022  11.269  18.724  0.00  0.00    +0.000 NA
ATOM     17  C   UNL     1      -6.600  11.863  19.813  0.00  0.00    +0.000 A 
ATOM     18  N   UNL     1      -5.263  12.101  19.713  0.00  0.00    +0.000 N 
ATOM     19  C   UNL     1      -4.440  12.709  20.721  0.00  0.00    +0.000 C 
ENDBRANCH  13  14
ENDBRANCH  12  13
ENDBRANCH   5  12
ENDBRANCH   1   9
BRANCH   2  20
ATOM     20  C   UNL     1       3.102   6.515  18.390  0.00  0.00    +0.000 A 
ATOM     21  C   UNL     1       4.440   6.761  18.183  0.00  0.00    +0.000 A 
ATOM     22  C   UNL     1       5.193   5.712  17.711  0.00  0.00    +0.000 A 
ATOM     23  N   UNL     1       4.617   4.513  17.463  0.00  0.00    +0.000 NA
ATOM     24  C   UNL     1       3.299   4.347  17.698  0.00  0.00    +0.000 A 
ATOM     25  N   UNL     1       2.503   5.326  18.161  0.00  0.00    +0.000 NA
BRANCH  22  26
ATOM     26  C   UNL     1       6.669   5.875  17.435  0.00  0.00    +0.000 C 
ATOM     27  C   UNL     1       7.685   5.738  18.548  0.00  0.00    +0.000 C 
ATOM     28  C   UNL     1       7.577   4.669  17.504  0.00  0.00    +0.000 C 
ENDBRANCH  22  26
BRANCH  24  29
ATOM     29  C   UNL     1       2.697   2.990  17.434  0.00  0.00    +0.000 C 
ATOM     30  C   UNL     1       3.370   1.747  17.969  0.00  0.00    +0.000 C 
ATOM     31  C   UNL     1       2.075   2.207  18.570  0.00  0.00    +0.000 C 
ENDBRANCH  24  29
ENDBRANCH   2  20
TORSDOF 7
ENDMDL
MODEL 6
REMARK VINA RESULT:      -8.1      2.205      2.741
REMARK  Name = 
REMARK  9 active torsions:
REMARK  status: ('A' for Active; 'I' for Inactive)
REMARK    1  A    between atoms: C_1  and  C_2
REMARK    2  A    between atoms: C_2  and  C_3
REMARK    3  A    between atoms: C_2  and  C_10
REMARK    4  A    between atoms: C_3  and  C_4
REMARK    5  A    between atoms: N_8  and  C_9
REMARK    6  A    between atoms: C_14  and  N_15
REMARK    7  A    between atoms: C_16  and  C_18
REMARK    8  A    between atoms: C_20  and  C_21
REMARK    9  A    between atoms: C_25  and  C_26
REMARK                            x       y       z     vdW  Elec       q    Type
REMARK                         _______ _______ _______ _____ _____    ______ ____
ROOT
ATOM      1  N   UNL     1       1.581   8.553  19.180  0.00  0.00    +0.000 N 
ATOM      2  C   UNL     1       2.417   8.090  18.175  0.00  0.00    +0.000 C 
ATOM      3  O   UNL     1       2.629   8.628  17.092  0.00  0.00    +0.000 OA
ATOM      4  H   UNL     1       1.609   8.010  20.041  0.00  0.00    +0.000 HD
ENDROOT
BRANCH   1   9
ATOM      5  C   UNL     1      -1.336  10.740  18.445  0.00  0.00    +0.000 A 
ATOM      6  C   UNL     1      -0.926  11.942  19.039  0.00  0.00    +0.000 A 
ATOM      7  C   UNL     1       0.311  12.031  19.675  0.00  0.00    +0.000 A 
ATOM      8  C   UNL     1       1.154  10.919  19.736  0.00  0.00    +0.000 A 
ATOM      9  C   UNL     1       0.778   9.712  19.149  0.00  0.00    +0.000 A 
ATOM     10  C   UNL     1      -0.457   9.638  18.487  0.00  0.00    +0.000 A 
BRANCH   5  12
ATOM     11  C   UNL     1      -2.560  10.487  16.230  0.00  0.00    +0.000 C 
ATOM     12  C   UNL     1      -2.696  10.674  17.748  0.00  0.00    +0.000 C 
BRANCH  12  13
ATOM     13  C   UNL     1      -3.532  11.912  18.134  0.00  0.00    +0.000 C 
BRANCH  13  14
ATOM     14  C   UNL     1      -4.923  11.594  18.568  0.00  0.00    +0.000 A 
ATOM     15  N   UNL     1      -5.831  10.969  17.843  0.00  0.00    +0.000 NA
ATOM     16  N   UNL     1      -7.005  10.933  18.557  0.00  0.00    +0.000 NA
ATOM     17  C   UNL     1      -6.792  11.536  19.700  0.00  0.00    +0.000 A 
ATOM     18  N   UNL     1      -5.495  11.946  19.764  0.00  0.00    +0.000 N 
ATOM     19  C   UNL     1      -4.880  12.618  20.875  0.00  0.00    +0.000 C 
ENDBRANCH  13  14
ENDBRANCH  12  13
ENDBRANCH   5  12
ENDBRANCH   1   9
BRANCH   2  20
ATOM     20  C   UNL     1       3.131   6.815  18.501  0.00  0.00    +0.000 A 
ATOM     21  C   UNL     1       2.439   5.805  19.129  0.00  0.00    +0.000 A 
ATOM     22  C   UNL     1       3.143   4.657  19.407  0.00  0.00    +0.000 A 
ATOM     23  N   UNL     1       4.451   4.559  19.077  0.00  0.00    +0.000 NA
ATOM     24  C   UNL     1       5.059   5.591  18.456  0.00  0.00    +0.000 A 
ATOM     25  N   UNL     1       4.434   6.741  18.152  0.00  0.00    +0.000 NA
BRANCH  22  26
ATOM     26  C   UNL     1       2.486   3.491  20.106  0.00  0.00    +0.000 C 
ATOM     27  C   UNL     1       2.223   3.527  21.596  0.00  0.00    +0.000 C 
ATOM     28  C   UNL     1       1.077   3.636  20.636  0.00  0.00    +0.000 C 
ENDBRANCH  22  26
BRANCH  24  29
ATOM     29  C   UNL     1       6.511   5.437  18.081  0.00  0.00    +0.000 C 
ATOM     30  C   UNL     1       7.362   6.662  17.830  0.00  0.00    +0.000 C 
ATOM     31  C   UNL     1       7.590   5.838  19.062  0.00  0.00    +0.000 C 
ENDBRANCH  24  29
ENDBRANCH   2  20
TORSDOF 7
ENDMDL
MODEL 7
REMARK VINA RESULT:      -8.1      1.601      3.394
REMARK  Name = 
REMARK  9 active torsions:
REMARK  status: ('A' for Active; 'I' for Inactive)
REMARK    1  A    between atoms: C_1  and  C_2
REMARK    2  A    between atoms: C_2  and  C_3
REMARK    3  A    between atoms: C_2  and  C_10
REMARK    4  A    between atoms: C_3  and  C_4
REMARK    5  A    between atoms: N_8  and  C_9
REMARK    6  A    between atoms: C_14  and  N_15
REMARK    7  A    between atoms: C_16  and  C_18
REMARK    8  A    between atoms: C_20  and  C_21
REMARK    9  A    between atoms: C_25  and  C_26
REMARK                            x       y       z     vdW  Elec       q    Type
REMARK                         _______ _______ _______ _____ _____    ______ ____
ROOT
ATOM      1  N   UNL     1       1.741   8.559  17.864  0.00  0.00    +0.000 N 
ATOM      2  C   UNL     1       2.171   7.619  18.789  0.00  0.00    +0.000 C 
ATOM      3  O   UNL     1       1.931   7.612  19.993  0.00  0.00    +0.000 OA
ATOM      4  H   UNL     1       1.971   8.340  16.896  0.00  0.00    +0.000 HD
ENDROOT
BRANCH   1   9
ATOM      5  C   UNL     1      -1.261  10.722  18.239  0.00  0.00    +0.000 A 
ATOM      6  C   UNL     1      -0.671  11.933  18.629  0.00  0.00    +0.000 A 
ATOM      7  C   UNL     1       0.713  12.036  18.761  0.00  0.00    +0.000 A 
ATOM      8  C   UNL     1       1.529  10.929  18.516  0.00  0.00    +0.000 A 
ATOM      9  C   UNL     1       0.973   9.713  18.121  0.00  0.00    +0.000 A 
ATOM     10  C   UNL     1      -0.418   9.625  17.964  0.00  0.00    +0.000 A 
BRANCH   5  12
ATOM     11  C   UNL     1      -3.203   9.978  16.777  0.00  0.00    +0.000 C 
ATOM     12  C   UNL     1      -2.781  10.641  18.096  0.00  0.00    +0.000 C 
BRANCH  12  13
ATOM     13  C   UNL     1      -3.392  12.044  18.291  0.00  0.00    +0.000 C 
BRANCH  13  14
ATOM     14  C   UNL     1      -4.400  12.121  19.388  0.00  0.00    +0.000 A 
ATOM     15  N   UNL     1      -4.159  12.502  20.628  0.00  0.00    +0.000 NA
ATOM     16  N   UNL     1      -5.318  12.368  21.354  0.00  0.00    +0.000 NA
ATOM     17  C   UNL     1      -6.241  11.906  20.547  0.00  0.00    +0.000 A 
ATOM     18  N   UNL     1      -5.720  11.760  19.298  0.00  0.00    +0.000 N 
ATOM     19  C   UNL     1      -6.435  11.306  18.137  0.00  0.00    +0.000 C 
ENDBRANCH  13  14
ENDBRANCH  12  13
ENDBRANCH   5  12
ENDBRANCH   1   9
BRANCH   2  20
ATOM     20  C   UNL     1       2.987   6.506  18.209  0.00  0.00    +0.000 A 
ATOM     21  C   UNL     1       4.262   6.775  17.766  0.00  0.00    +0.000 A 
ATOM     22  C   UNL     1       4.967   5.718  17.240  0.00  0.00    +0.000 A 
ATOM     23  N   UNL     1       4.405   4.490  17.166  0.00  0.00    +0.000 NA
ATOM     24  C   UNL     1       3.151   4.303  17.627  0.00  0.00    +0.000 A 
ATOM     25  N   UNL     1       2.405   5.289  18.155  0.00  0.00    +0.000 NA
BRANCH  22  26
ATOM     26  C   UNL     1       6.370   5.903  16.712  0.00  0.00    +0.000 C 
ATOM     27  C   UNL     1       7.509   6.258  17.644  0.00  0.00    +0.000 C 
ATOM     28  C   UNL     1       7.434   4.884  17.051  0.00  0.00    +0.000 C 
ENDBRANCH  22  26
BRANCH  24  29
ATOM     29  C   UNL     1       2.566   2.916  17.551  0.00  0.00    +0.000 C 
ATOM     30  C   UNL     1       3.379   1.726  18.006  0.00  0.00    +0.000 C 
ATOM     31  C   UNL     1       2.205   2.179  18.821  0.00  0.00    +0.000 C 
ENDBRANCH  24  29
ENDBRANCH   2  20
TORSDOF 7
ENDMDL
MODEL 8
REMARK VINA RESULT:      -8.1      2.128      3.935
REMARK  Name = 
REMARK  9 active torsions:
REMARK  status: ('A' for Active; 'I' for Inactive)
REMARK    1  A    between atoms: C_1  and  C_2
REMARK    2  A    between atoms: C_2  and  C_3
REMARK    3  A    between atoms: C_2  and  C_10
REMARK    4  A    between atoms: C_3  and  C_4
REMARK    5  A    between atoms: N_8  and  C_9
REMARK    6  A    between atoms: C_14  and  N_15
REMARK    7  A    between atoms: C_16  and  C_18
REMARK    8  A    between atoms: C_20  and  C_21
REMARK    9  A    between atoms: C_25  and  C_26
REMARK                            x       y       z     vdW  Elec       q    Type
REMARK                         _______ _______ _______ _____ _____    ______ ____
ROOT
ATOM      1  N   UNL     1       1.897   7.924  19.620  0.00  0.00    +0.000 N 
ATOM      2  C   UNL     1       2.378   7.905  18.320  0.00  0.00    +0.000 C 
ATOM      3  O   UNL     1       2.239   8.784  17.473  0.00  0.00    +0.000 OA
ATOM      4  H   UNL     1       2.195   7.139  20.196  0.00  0.00    +0.000 HD
ENDROOT
BRANCH   1   9
ATOM      5  C   UNL     1      -0.334  10.886  19.905  0.00  0.00    +0.000 A 
ATOM      6  C   UNL     1      -0.476  10.982  21.296  0.00  0.00    +0.000 A 
ATOM      7  C   UNL     1       0.167  10.075  22.137  0.00  0.00    +0.000 A 
ATOM      8  C   UNL     1       0.954   9.053  21.602  0.00  0.00    +0.000 A 
ATOM      9  C   UNL     1       1.120   8.935  20.223  0.00  0.00    +0.000 A 
ATOM     10  C   UNL     1       0.492   9.868  19.384  0.00  0.00    +0.000 A 
BRANCH   5  12
ATOM     11  C   UNL     1      -0.260  13.212  18.879  0.00  0.00    +0.000 C 
ATOM     12  C   UNL     1      -1.047  11.900  19.008  0.00  0.00    +0.000 C 
BRANCH  12  13
ATOM     13  C   UNL     1      -2.491  12.105  19.510  0.00  0.00    +0.000 C 
BRANCH  13  14
ATOM     14  C   UNL     1      -3.538  11.776  18.500  0.00  0.00    +0.000 A 
ATOM     15  N   UNL     1      -3.314  11.395  17.257  0.00  0.00    +0.000 NA
ATOM     16  N   UNL     1      -4.525  11.259  16.621  0.00  0.00    +0.000 NA
ATOM     17  C   UNL     1      -5.462  11.560  17.486  0.00  0.00    +0.000 A 
ATOM     18  N   UNL     1      -4.894  11.866  18.684  0.00  0.00    +0.000 N 
ATOM     19  C   UNL     1      -5.601  12.218  19.885  0.00  0.00    +0.000 C 
ENDBRANCH  13  14
ENDBRANCH  12  13
ENDBRANCH   5  12
ENDBRANCH   1   9
BRANCH   2  20
ATOM     20  C   UNL     1       3.163   6.681  17.967  0.00  0.00    +0.000 A 
ATOM     21  C   UNL     1       4.508   6.805  17.702  0.00  0.00    +0.000 A 
ATOM     22  C   UNL     1       5.181   5.650  17.380  0.00  0.00    +0.000 A 
ATOM     23  N   UNL     1       4.526   4.467  17.327  0.00  0.00    +0.000 NA
ATOM     24  C   UNL     1       3.206   4.426  17.607  0.00  0.00    +0.000 A 
ATOM     25  N   UNL     1       2.486   5.513  17.930  0.00  0.00    +0.000 NA
BRANCH  22  26
ATOM     26  C   UNL     1       6.657   5.672  17.058  0.00  0.00    +0.000 C 
ATOM     27  C   UNL     1       7.676   6.041  18.113  0.00  0.00    +0.000 C 
ATOM     28  C   UNL     1       7.565   4.620  17.651  0.00  0.00    +0.000 C 
ENDBRANCH  22  26
BRANCH  24  29
ATOM     29  C   UNL     1       2.514   3.087  17.561  0.00  0.00    +0.000 C 
ATOM     30  C   UNL     1       3.252   1.838  17.987  0.00  0.00    +0.000 C 
ATOM     31  C   UNL     1       2.151   2.381  18.849  0.00  0.00    +0.000 C 
ENDBRANCH  24  29
ENDBRANCH   2  20
TORSDOF 7
ENDMDL
MODEL 9
REMARK VINA RESULT:      -8.1      2.003      3.804
REMARK  Name = 
REMARK  9 active torsions:
REMARK  status: ('A' for Active; 'I' for Inactive)
REMARK    1  A    between atoms: C_1  and  C_2
REMARK    2  A    between atoms: C_2  and  C_3
REMARK    3  A    between atoms: C_2  and  C_10
REMARK    4  A    between atoms: C_3  and  C_4
REMARK    5  A    between atoms: N_8  and  C_9
REMARK    6  A    between atoms: C_14  and  N_15
REMARK    7  A    between atoms: C_16  and  C_18
REMARK    8  A    between atoms: C_20  and  C_21
REMARK    9  A    between atoms: C_25  and  C_26
REMARK                            x       y       z     vdW  Elec       q    Type
REMARK                         _______ _______ _______ _____ _____    ______ ____
ROOT
ATOM      1  N   UNL     1       1.297   8.933  19.504  0.00  0.00    +0.000 N 
ATOM      2  C   UNL     1       1.995   8.677  18.333  0.00  0.00    +0.000 C 
ATOM      3  O   UNL     1       2.049   9.395  17.339  0.00  0.00    +0.000 OA
ATOM      4  H   UNL     1       1.451   8.255  20.248  0.00  0.00    +0.000 HD
ENDROOT
BRANCH   1   9
ATOM      5  C   UNL     1      -1.649  11.199  19.368  0.00  0.00    +0.000 A 
ATOM      6  C   UNL     1      -1.251  12.208  20.256  0.00  0.00    +0.000 A 
ATOM      7  C   UNL     1      -0.012  12.144  20.892  0.00  0.00    +0.000 A 
ATOM      8  C   UNL     1       0.844  11.066  20.659  0.00  0.00    +0.000 A 
ATOM      9  C   UNL     1       0.480  10.049  19.778  0.00  0.00    +0.000 A 
ATOM     10  C   UNL     1      -0.756  10.135  19.120  0.00  0.00    +0.000 A 
BRANCH   5  12
ATOM     11  C   UNL     1      -2.887  11.294  17.149  0.00  0.00    +0.000 C 
ATOM     12  C   UNL     1      -3.011  11.300  18.680  0.00  0.00    +0.000 C 
BRANCH  12  13
ATOM     13  C   UNL     1      -3.771  12.528  19.222  0.00  0.00    +0.000 C 
BRANCH  13  14
ATOM     14  C   UNL     1      -5.033  12.192  19.942  0.00  0.00    +0.000 A 
ATOM     15  N   UNL     1      -5.186  12.168  21.253  0.00  0.00    +0.000 NA
ATOM     16  N   UNL     1      -6.463  11.743  21.531  0.00  0.00    +0.000 NA
ATOM     17  C   UNL     1      -7.063  11.514  20.388  0.00  0.00    +0.000 A 
ATOM     18  N   UNL     1      -6.215  11.806  19.364  0.00  0.00    +0.000 N 
ATOM     19  C   UNL     1      -6.524  11.710  17.964  0.00  0.00    +0.000 C 
ENDBRANCH  13  14
ENDBRANCH  12  13
ENDBRANCH   5  12
ENDBRANCH   1   9
BRANCH   2  20
ATOM     20  C   UNL     1       2.766   7.394  18.339  0.00  0.00    +0.000 A 
ATOM     21  C   UNL     1       3.871   7.276  17.527  0.00  0.00    +0.000 A 
ATOM     22  C   UNL     1       4.541   6.076  17.569  0.00  0.00    +0.000 A 
ATOM     23  N   UNL     1       4.106   5.077  18.371  0.00  0.00    +0.000 NA
ATOM     24  C   UNL     1       3.017   5.271  19.144  0.00  0.00    +0.000 A 
ATOM     25  N   UNL     1       2.316   6.416  19.156  0.00  0.00    +0.000 NA
BRANCH  22  26
ATOM     26  C   UNL     1       5.759   5.833  16.709  0.00  0.00    +0.000 C 
ATOM     27  C   UNL     1       7.136   6.243  17.183  0.00  0.00    +0.000 C 
ATOM     28  C   UNL     1       6.770   4.791  17.127  0.00  0.00    +0.000 C 
ENDBRANCH  22  26
BRANCH  24  29
ATOM     29  C   UNL     1       2.576   4.144  20.043  0.00  0.00    +0.000 C 
ATOM     30  C   UNL     1       1.199   4.169  20.668  0.00  0.00    +0.000 C 
ATOM     31  C   UNL     1       1.504   3.184  19.579  0.00  0.00    +0.000 C 
ENDBRANCH  24  29
ENDBRANCH   2  20
TORSDOF 7
ENDMDL
