MODEL 1
REMARK VINA RESULT:      -8.7      0.000      0.000
REMARK  Name = 
REMARK  6 active torsions:
REMARK  status: ('A' for Active; 'I' for Inactive)
REMARK    1  A    between atoms: C_1  and  C_2
REMARK    2  A    between atoms: C_2  and  S_3
REMARK    3  A    between atoms: C_2  and  C_9
REMARK    4  A    between atoms: S_3  and  C_4
REMARK    5  A    between atoms: C_13  and  N_14
REMARK    6  A    between atoms: C_15  and  C_17
REMARK                            x       y       z     vdW  Elec       q    Type
REMARK                         _______ _______ _______ _____ _____    ______ ____
ROOT
ATOM      1  C   UNL     1       4.570   4.892  16.893  0.00  0.00    +0.000 A 
ATOM      2  C   UNL     1       3.814   3.705  16.952  0.00  0.00    +0.000 A 
ATOM      3  C   UNL     1       2.558   3.692  17.550  0.00  0.00    +0.000 A 
ATOM      4  C   UNL     1       2.033   4.858  18.097  0.00  0.00    +0.000 A 
ATOM      5  C   UNL     1       2.744   6.059  18.059  0.00  0.00    +0.000 A 
ATOM      6  C   UNL     1       4.014   6.062  17.463  0.00  0.00    +0.000 A 
ENDROOT
BRANCH   5   7
ATOM      7  N   UNL     1       2.237   7.276  18.580  0.00  0.00    +0.000 N 
ATOM      8  C   UNL     1       1.748   7.459  19.865  0.00  0.00    +0.000 C 
ATOM      9  O   UNL     1       1.760   6.626  20.767  0.00  0.00    +0.000 OA
ATOM     10  H   UNL     1       2.172   8.079  17.965  0.00  0.00    +0.000 HD
BRANCH   8  11
ATOM     11  C   UNL     1       1.141   8.792  20.163  0.00  0.00    +0.000 A 
ATOM     12  C   UNL     1       0.375   8.887  21.319  0.00  0.00    +0.000 A 
ATOM     13  C   UNL     1      -0.155  10.118  21.688  0.00  0.00    +0.000 A 
ATOM     14  C   UNL     1      -0.818  10.266  22.913  0.00  0.00    +0.000 A 
ATOM     15  C   UNL     1      -1.370  11.492  23.272  0.00  0.00    +0.000 A 
ATOM     16  C   UNL     1      -1.308  12.563  22.385  0.00  0.00    +0.000 A 
ATOM     17  C   UNL     1      -0.626  12.431  21.169  0.00  0.00    +0.000 A 
ATOM     18  C   UNL     1      -0.002  11.215  20.823  0.00  0.00    +0.000 A 
ATOM     19  C   UNL     1       0.781  11.010  19.670  0.00  0.00    +0.000 A 
ATOM     20  N   UNL     1       1.373   9.832  19.319  0.00  0.00    +0.000 NA
ENDBRANCH   8  11
ENDBRANCH   5   7
BRANCH   1  22
ATOM     21  C   UNL     1       6.110   3.911  15.074  0.00  0.00    +0.000 C 
ATOM     22  C   UNL     1       5.937   4.947  16.198  0.00  0.00    +0.000 C 
BRANCH  22  23
ATOM     23  S   UNL     1       7.275   4.740  17.437  0.00  0.00    +0.000 S 
BRANCH  23  24
ATOM     24  C   UNL     1       7.679   6.390  17.812  0.00  0.00    +0.000 A 
ATOM     25  N   UNL     1       7.430   7.457  16.992  0.00  0.00    +0.000 NA
ATOM     26  C   UNL     1       7.943   8.469  17.657  0.00  0.00    +0.000 A 
ATOM     27  N   UNL     1       8.460   8.021  18.830  0.00  0.00    +0.000 N 
ATOM     28  N   UNL     1       8.300   6.697  18.955  0.00  0.00    +0.000 NA
ATOM     29  H   UNL     1       8.927   8.538  19.567  0.00  0.00    +0.000 HD
ENDBRANCH  23  24
ENDBRANCH  22  23
ENDBRANCH   1  22
TORSDOF 5
ENDMDL
MODEL 2
REMARK VINA RESULT:      -8.5      2.154      2.687
REMARK  Name = 
REMARK  6 active torsions:
REMARK  status: ('A' for Active; 'I' for Inactive)
REMARK    1  A    between atoms: C_1  and  C_2
REMARK    2  A    between atoms: C_2  and  S_3
REMARK    3  A    between atoms: C_2  and  C_9
REMARK    4  A    between atoms: S_3  and  C_4
REMARK    5  A    between atoms: C_13  and  N_14
REMARK    6  A    between atoms: C_15  and  C_17
REMARK                            x       y       z     vdW  Elec       q    Type
REMARK                         _______ _______ _______ _____ _____    ______ ____
ROOT
ATOM      1  C   UNL     1       5.365   4.754  18.979  0.00  0.00    +0.000 A 
ATOM      2  C   UNL     1       4.904   3.438  19.173  0.00  0.00    +0.000 A 
ATOM      3  C   UNL     1       3.606   3.197  19.614  0.00  0.00    +0.000 A 
ATOM      4  C   UNL     1       2.748   4.261  19.869  0.00  0.00    +0.000 A 
ATOM      5  C   UNL     1       3.160   5.583  19.688  0.00  0.00    +0.000 A 
ATOM      6  C   UNL     1       4.472   5.817  19.252  0.00  0.00    +0.000 A 
ENDROOT
BRANCH   5   7
ATOM      7  N   UNL     1       2.310   6.696  19.911  0.00  0.00    +0.000 N 
ATOM      8  C   UNL     1       2.213   7.810  19.089  0.00  0.00    +0.000 C 
ATOM      9  O   UNL     1       2.777   7.962  18.009  0.00  0.00    +0.000 OA
ATOM     10  H   UNL     1       1.755   6.723  20.758  0.00  0.00    +0.000 HD
BRANCH   8  11
ATOM     11  C   UNL     1       1.348   8.926  19.581  0.00  0.00    +0.000 A 
ATOM     12  C   UNL     1       0.789   8.773  20.846  0.00  0.00    +0.000 A 
ATOM     13  C   UNL     1       0.035   9.807  21.387  0.00  0.00    +0.000 A 
ATOM     14  C   UNL     1      -0.428   9.730  22.708  0.00  0.00    +0.000 A 
ATOM     15  C   UNL     1      -1.202  10.754  23.243  0.00  0.00    +0.000 A 
ATOM     16  C   UNL     1      -1.563  11.837  22.445  0.00  0.00    +0.000 A 
ATOM     17  C   UNL     1      -1.085  11.934  21.133  0.00  0.00    +0.000 A 
ATOM     18  C   UNL     1      -0.241  10.938  20.600  0.00  0.00    +0.000 A 
ATOM     19  C   UNL     1       0.362  10.988  19.328  0.00  0.00    +0.000 A 
ATOM     20  N   UNL     1       1.164  10.021  18.798  0.00  0.00    +0.000 NA
ENDBRANCH   8  11
ENDBRANCH   5   7
BRANCH   1  22
ATOM     21  C   UNL     1       7.749   5.576  19.515  0.00  0.00    +0.000 C 
ATOM     22  C   UNL     1       6.775   5.047  18.448  0.00  0.00    +0.000 C 
BRANCH  22  23
ATOM     23  S   UNL     1       6.681   6.240  17.056  0.00  0.00    +0.000 S 
BRANCH  23  24
ATOM     24  C   UNL     1       6.689   5.184  15.673  0.00  0.00    +0.000 A 
ATOM     25  N   UNL     1       7.295   5.470  14.481  0.00  0.00    +0.000 NA
ATOM     26  C   UNL     1       7.000   4.426  13.739  0.00  0.00    +0.000 A 
ATOM     27  N   UNL     1       6.263   3.550  14.469  0.00  0.00    +0.000 N 
ATOM     28  N   UNL     1       6.054   4.009  15.710  0.00  0.00    +0.000 NA
ATOM     29  H   UNL     1       5.873   2.653  14.198  0.00  0.00    +0.000 HD
ENDBRANCH  23  24
ENDBRANCH  22  23
ENDBRANCH   1  22
TORSDOF 5
ENDMDL
MODEL 3
REMARK VINA RESULT:      -8.4      2.105      2.939
REMARK  Name = 
REMARK  6 active torsions:
REMARK  status: ('A' for Active; 'I' for Inactive)
REMARK    1  A    between atoms: C_1  and  C_2
REMARK    2  A    between atoms: C_2  and  S_3
REMARK    3  A    between atoms: C_2  and  C_9
REMARK    4  A    between atoms: S_3  and  C_4
REMARK    5  A    between atoms: C_13  and  N_14
REMARK    6  A    between atoms: C_15  and  C_17
REMARK                            x       y       z     vdW  Elec       q    Type
REMARK                         _______ _______ _______ _____ _____    ______ ____
ROOT
ATOM      1  C   UNL     1       4.197   4.599  19.299  0.00  0.00    +0.000 A 
ATOM      2  C   UNL     1       3.773   3.285  19.576  0.00  0.00    +0.000 A 
ATOM      3  C   UNL     1       2.622   3.053  20.322  0.00  0.00    +0.000 A 
ATOM      4  C   UNL     1       1.876   4.122  20.805  0.00  0.00    +0.000 A 
ATOM      5  C   UNL     1       2.256   5.443  20.554  0.00  0.00    +0.000 A 
ATOM      6  C   UNL     1       3.422   5.668  19.808  0.00  0.00    +0.000 A 
ENDROOT
BRANCH   5   7
ATOM      7  N   UNL     1       1.511   6.562  21.003  0.00  0.00    +0.000 N 
ATOM      8  C   UNL     1       1.481   7.806  20.391  0.00  0.00    +0.000 C 
ATOM      9  O   UNL     1       2.020   8.101  19.327  0.00  0.00    +0.000 OA
ATOM     10  H   UNL     1       0.989   6.483  21.868  0.00  0.00    +0.000 HD
BRANCH   8  11
ATOM     11  C   UNL     1       0.730   8.882  21.107  0.00  0.00    +0.000 A 
ATOM     12  C   UNL     1       0.142   9.866  20.320  0.00  0.00    +0.000 A 
ATOM     13  C   UNL     1      -0.630  10.852  20.923  0.00  0.00    +0.000 A 
ATOM     14  C   UNL     1      -1.339  11.774  20.141  0.00  0.00    +0.000 A 
ATOM     15  C   UNL     1      -2.092  12.776  20.744  0.00  0.00    +0.000 A 
ATOM     16  C   UNL     1      -2.099  12.894  22.132  0.00  0.00    +0.000 A 
ATOM     17  C   UNL     1      -1.413  11.963  22.921  0.00  0.00    +0.000 A 
ATOM     18  C   UNL     1      -0.704  10.900  22.325  0.00  0.00    +0.000 A 
ATOM     19  C   UNL     1      -0.060   9.865  23.031  0.00  0.00    +0.000 A 
ATOM     20  N   UNL     1       0.645   8.845  22.463  0.00  0.00    +0.000 NA
ENDBRANCH   8  11
ENDBRANCH   5   7
BRANCH   1  22
ATOM     21  C   UNL     1       6.646   5.403  19.235  0.00  0.00    +0.000 C 
ATOM     22  C   UNL     1       5.436   4.885  18.438  0.00  0.00    +0.000 C 
BRANCH  22  23
ATOM     23  S   UNL     1       5.011   6.084  17.115  0.00  0.00    +0.000 S 
BRANCH  23  24
ATOM     24  C   UNL     1       6.005   5.533  15.796  0.00  0.00    +0.000 A 
ATOM     25  N   UNL     1       5.598   4.650  14.834  0.00  0.00    +0.000 NA
ATOM     26  C   UNL     1       6.676   4.498  14.096  0.00  0.00    +0.000 A 
ATOM     27  N   UNL     1       7.674   5.273  14.592  0.00  0.00    +0.000 N 
ATOM     28  N   UNL     1       7.269   5.949  15.676  0.00  0.00    +0.000 NA
ATOM     29  H   UNL     1       8.627   5.386  14.263  0.00  0.00    +0.000 HD
ENDBRANCH  23  24
ENDBRANCH  22  23
ENDBRANCH   1  22
TORSDOF 5
ENDMDL
MODEL 4
REMARK VINA RESULT:      -8.3      4.788      7.779
REMARK  Name = 
REMARK  6 active torsions:
REMARK  status: ('A' for Active; 'I' for Inactive)
REMARK    1  A    between atoms: C_1  and  C_2
REMARK    2  A    between atoms: C_2  and  S_3
REMARK    3  A    between atoms: C_2  and  C_9
REMARK    4  A    between atoms: S_3  and  C_4
REMARK    5  A    between atoms: C_13  and  N_14
REMARK    6  A    between atoms: C_15  and  C_17
REMARK                            x       y       z     vdW  Elec       q    Type
REMARK                         _______ _______ _______ _____ _____    ______ ____
ROOT
ATOM      1  C   UNL     1       4.950   4.972  17.430  0.00  0.00    +0.000 A 
ATOM      2  C   UNL     1       5.511   4.078  16.497  0.00  0.00    +0.000 A 
ATOM      3  C   UNL     1       6.624   4.441  15.745  0.00  0.00    +0.000 A 
ATOM      4  C   UNL     1       7.197   5.698  15.909  0.00  0.00    +0.000 A 
ATOM      5  C   UNL     1       6.677   6.617  16.824  0.00  0.00    +0.000 A 
ATOM      6  C   UNL     1       5.550   6.246  17.571  0.00  0.00    +0.000 A 
ENDROOT
BRANCH   5   7
ATOM      7  N   UNL     1       7.245   7.897  17.042  0.00  0.00    +0.000 N 
ATOM      8  C   UNL     1       8.099   8.232  18.083  0.00  0.00    +0.000 C 
ATOM      9  O   UNL     1       8.559   7.456  18.916  0.00  0.00    +0.000 OA
ATOM     10  H   UNL     1       6.981   8.658  16.426  0.00  0.00    +0.000 HD
BRANCH   8  11
ATOM     11  C   UNL     1       8.476   9.673  18.197  0.00  0.00    +0.000 A 
ATOM     12  C   UNL     1       9.466   9.991  19.121  0.00  0.00    +0.000 A 
ATOM     13  C   UNL     1       9.910  11.303  19.221  0.00  0.00    +0.000 A 
ATOM     14  C   UNL     1      10.994  11.623  20.049  0.00  0.00    +0.000 A 
ATOM     15  C   UNL     1      11.425  12.940  20.169  0.00  0.00    +0.000 A 
ATOM     16  C   UNL     1      10.741  13.953  19.502  0.00  0.00    +0.000 A 
ATOM     17  C   UNL     1       9.671  13.641  18.654  0.00  0.00    +0.000 A 
ATOM     18  C   UNL     1       9.270  12.302  18.468  0.00  0.00    +0.000 A 
ATOM     19  C   UNL     1       8.269  11.878  17.572  0.00  0.00    +0.000 A 
ATOM     20  N   UNL     1       7.862  10.587  17.400  0.00  0.00    +0.000 NA
ENDBRANCH   8  11
ENDBRANCH   5   7
BRANCH   1  22
ATOM     21  C   UNL     1       3.582   5.456  19.560  0.00  0.00    +0.000 C 
ATOM     22  C   UNL     1       3.753   4.581  18.306  0.00  0.00    +0.000 C 
BRANCH  22  23
ATOM     23  S   UNL     1       3.891   2.819  18.801  0.00  0.00    +0.000 S 
BRANCH  23  24
ATOM     24  C   UNL     1       2.809   2.739  20.161  0.00  0.00    +0.000 A 
ATOM     25  N   UNL     1       1.450   2.870  20.081  0.00  0.00    +0.000 NA
ATOM     26  C   UNL     1       1.069   2.792  21.337  0.00  0.00    +0.000 A 
ATOM     27  N   UNL     1       2.158   2.605  22.126  0.00  0.00    +0.000 N 
ATOM     28  N   UNL     1       3.282   2.562  21.398  0.00  0.00    +0.000 NA
ATOM     29  H   UNL     1       2.214   2.507  23.135  0.00  0.00    +0.000 HD
ENDBRANCH  23  24
ENDBRANCH  22  23
ENDBRANCH   1  22
TORSDOF 5
ENDMDL
MODEL 5
REMARK VINA RESULT:      -8.2      4.169      7.986
REMARK  Name = 
REMARK  6 active torsions:
REMARK  status: ('A' for Active; 'I' for Inactive)
REMARK    1  A    between atoms: C_1  and  C_2
REMARK    2  A    between atoms: C_2  and  S_3
REMARK    3  A    between atoms: C_2  and  C_9
REMARK    4  A    between atoms: S_3  and  C_4
REMARK    5  A    between atoms: C_13  and  N_14
REMARK    6  A    between atoms: C_15  and  C_17
REMARK                            x       y       z     vdW  Elec       q    Type
REMARK                         _______ _______ _______ _____ _____    ______ ____
ROOT
ATOM      1  C   UNL     1       4.403   5.873  17.434  0.00  0.00    +0.000 A 
ATOM      2  C   UNL     1       5.021   4.741  16.869  0.00  0.00    +0.000 A 
ATOM      3  C   UNL     1       6.334   4.800  16.415  0.00  0.00    +0.000 A 
ATOM      4  C   UNL     1       7.054   5.986  16.514  0.00  0.00    +0.000 A 
ATOM      5  C   UNL     1       6.485   7.134  17.069  0.00  0.00    +0.000 A 
ATOM      6  C   UNL     1       5.157   7.068  17.517  0.00  0.00    +0.000 A 
ENDROOT
BRANCH   5   7
ATOM      7  N   UNL     1       7.190   8.355  17.215  0.00  0.00    +0.000 N 
ATOM      8  C   UNL     1       8.178   8.606  18.155  0.00  0.00    +0.000 C 
ATOM      9  O   UNL     1       8.651   7.789  18.941  0.00  0.00    +0.000 OA
ATOM     10  H   UNL     1       6.933   9.138  16.625  0.00  0.00    +0.000 HD
BRANCH   8  11
ATOM     11  C   UNL     1       8.699  10.006  18.216  0.00  0.00    +0.000 A 
ATOM     12  C   UNL     1       9.849  10.214  18.970  0.00  0.00    +0.000 A 
ATOM     13  C   UNL     1      10.422  11.479  19.005  0.00  0.00    +0.000 A 
ATOM     14  C   UNL     1      11.650  11.684  19.648  0.00  0.00    +0.000 A 
ATOM     15  C   UNL     1      12.212  12.955  19.704  0.00  0.00    +0.000 A 
ATOM     16  C   UNL     1      11.525  14.039  19.165  0.00  0.00    +0.000 A 
ATOM     17  C   UNL     1      10.308  13.840  18.500  0.00  0.00    +0.000 A 
ATOM     18  C   UNL     1       9.762  12.547  18.373  0.00  0.00    +0.000 A 
ATOM     19  C   UNL     1       8.595  12.233  17.649  0.00  0.00    +0.000 A 
ATOM     20  N   UNL     1       8.049  10.988  17.536  0.00  0.00    +0.000 NA
ENDBRANCH   8  11
ENDBRANCH   5   7
BRANCH   1  22
ATOM     21  C   UNL     1       2.318   7.205  18.155  0.00  0.00    +0.000 C 
ATOM     22  C   UNL     1       2.973   5.823  17.988  0.00  0.00    +0.000 C 
BRANCH  22  23
ATOM     23  S   UNL     1       2.956   4.936  19.594  0.00  0.00    +0.000 S 
BRANCH  23  24
ATOM     24  C   UNL     1       2.955   3.272  19.089  0.00  0.00    +0.000 A 
ATOM     25  N   UNL     1       4.003   2.407  19.257  0.00  0.00    +0.000 NA
ATOM     26  C   UNL     1       3.572   1.303  18.688  0.00  0.00    +0.000 A 
ATOM     27  N   UNL     1       2.313   1.501  18.218  0.00  0.00    +0.000 N 
ATOM     28  N   UNL     1       1.895   2.749  18.465  0.00  0.00    +0.000 NA
ATOM     29  H   UNL     1       1.700   0.858  17.728  0.00  0.00    +0.000 HD
ENDBRANCH  23  24
ENDBRANCH  22  23
ENDBRANCH   1  22
TORSDOF 5
ENDMDL
MODEL 6
REMARK VINA RESULT:      -8.2      0.916      1.715
REMARK  Name = 
REMARK  6 active torsions:
REMARK  status: ('A' for Active; 'I' for Inactive)
REMARK    1  A    between atoms: C_1  and  C_2
REMARK    2  A    between atoms: C_2  and  S_3
REMARK    3  A    between atoms: C_2  and  C_9
REMARK    4  A    between atoms: S_3  and  C_4
REMARK    5  A    between atoms: C_13  and  N_14
REMARK    6  A    between atoms: C_15  and  C_17
REMARK                            x       y       z     vdW  Elec       q    Type
REMARK                         _______ _______ _______ _____ _____    ______ ____
ROOT
ATOM      1  C   UNL     1       4.466   4.782  16.949  0.00  0.00    +0.000 A 
ATOM      2  C   UNL     1       3.667   3.624  16.889  0.00  0.00    +0.000 A 
ATOM      3  C   UNL     1       2.404   3.602  17.470  0.00  0.00    +0.000 A 
ATOM      4  C   UNL     1       1.916   4.730  18.121  0.00  0.00    +0.000 A 
ATOM      5  C   UNL     1       2.671   5.901  18.204  0.00  0.00    +0.000 A 
ATOM      6  C   UNL     1       3.947   5.913  17.623  0.00  0.00    +0.000 A 
ENDROOT
BRANCH   5   7
ATOM      7  N   UNL     1       2.202   7.082  18.834  0.00  0.00    +0.000 N 
ATOM      8  C   UNL     1       1.827   7.188  20.165  0.00  0.00    +0.000 C 
ATOM      9  O   UNL     1       1.924   6.307  21.015  0.00  0.00    +0.000 OA
ATOM     10  H   UNL     1       2.078   7.916  18.273  0.00  0.00    +0.000 HD
BRANCH   8  11
ATOM     11  C   UNL     1       1.239   8.496  20.588  0.00  0.00    +0.000 A 
ATOM     12  C   UNL     1       0.943   9.405  19.578  0.00  0.00    +0.000 A 
ATOM     13  C   UNL     1       0.328  10.608  19.902  0.00  0.00    +0.000 A 
ATOM     14  C   UNL     1      -0.098  11.481  18.891  0.00  0.00    +0.000 A 
ATOM     15  C   UNL     1      -0.692  12.697  19.215  0.00  0.00    +0.000 A 
ATOM     16  C   UNL     1      -0.815  13.071  20.550  0.00  0.00    +0.000 A 
ATOM     17  C   UNL     1      -0.414  12.195  21.567  0.00  0.00    +0.000 A 
ATOM     18  C   UNL     1       0.124  10.930  21.254  0.00  0.00    +0.000 A 
ATOM     19  C   UNL     1       0.472   9.947  22.200  0.00  0.00    +0.000 A 
ATOM     20  N   UNL     1       1.010   8.728  21.908  0.00  0.00    +0.000 NA
ENDBRANCH   8  11
ENDBRANCH   5   7
BRANCH   1  22
ATOM     21  C   UNL     1       6.080   3.754  15.221  0.00  0.00    +0.000 C 
ATOM     22  C   UNL     1       5.844   4.850  16.274  0.00  0.00    +0.000 C 
BRANCH  22  23
ATOM     23  S   UNL     1       7.165   4.776  17.546  0.00  0.00    +0.000 S 
BRANCH  23  24
ATOM     24  C   UNL     1       7.602   6.452  17.712  0.00  0.00    +0.000 A 
ATOM     25  N   UNL     1       8.282   6.976  18.777  0.00  0.00    +0.000 NA
ATOM     26  C   UNL     1       8.338   8.258  18.492  0.00  0.00    +0.000 A 
ATOM     27  N   UNL     1       7.732   8.481  17.298  0.00  0.00    +0.000 N 
ATOM     28  N   UNL     1       7.257   7.342  16.777  0.00  0.00    +0.000 NA
ATOM     29  H   UNL     1       7.600   9.352  16.794  0.00  0.00    +0.000 HD
ENDBRANCH  23  24
ENDBRANCH  22  23
ENDBRANCH   1  22
TORSDOF 5
ENDMDL
MODEL 7
REMARK VINA RESULT:      -8.1      2.147      2.728
REMARK  Name = 
REMARK  6 active torsions:
REMARK  status: ('A' for Active; 'I' for Inactive)
REMARK    1  A    between atoms: C_1  and  C_2
REMARK    2  A    between atoms: C_2  and  S_3
REMARK    3  A    between atoms: C_2  and  C_9
REMARK    4  A    between atoms: S_3  and  C_4
REMARK    5  A    between atoms: C_13  and  N_14
REMARK    6  A    between atoms: C_15  and  C_17
REMARK                            x       y       z     vdW  Elec       q    Type
REMARK                         _______ _______ _______ _____ _____    ______ ____
ROOT
ATOM      1  C   UNL     1       4.691   4.619  17.678  0.00  0.00    +0.000 A 
ATOM      2  C   UNL     1       3.953   3.489  17.278  0.00  0.00    +0.000 A 
ATOM      3  C   UNL     1       2.568   3.462  17.407  0.00  0.00    +0.000 A 
ATOM      4  C   UNL     1       1.895   4.558  17.936  0.00  0.00    +0.000 A 
ATOM      5  C   UNL     1       2.584   5.703  18.344  0.00  0.00    +0.000 A 
ATOM      6  C   UNL     1       3.981   5.718  18.219  0.00  0.00    +0.000 A 
ENDROOT
BRANCH   5   7
ATOM      7  N   UNL     1       1.937   6.852  18.864  0.00  0.00    +0.000 N 
ATOM      8  C   UNL     1       2.065   8.141  18.365  0.00  0.00    +0.000 C 
ATOM      9  O   UNL     1       2.682   8.466  17.355  0.00  0.00    +0.000 OA
ATOM     10  H   UNL     1       1.368   6.755  19.696  0.00  0.00    +0.000 HD
BRANCH   8  11
ATOM     11  C   UNL     1       1.395   9.225  19.146  0.00  0.00    +0.000 A 
ATOM     12  C   UNL     1       0.775   8.850  20.334  0.00  0.00    +0.000 A 
ATOM     13  C   UNL     1       0.198   9.823  21.139  0.00  0.00    +0.000 A 
ATOM     14  C   UNL     1      -0.316   9.488  22.399  0.00  0.00    +0.000 A 
ATOM     15  C   UNL     1      -0.915  10.458  23.196  0.00  0.00    +0.000 A 
ATOM     16  C   UNL     1      -1.052  11.758  22.717  0.00  0.00    +0.000 A 
ATOM     17  C   UNL     1      -0.521  12.108  21.470  0.00  0.00    +0.000 A 
ATOM     18  C   UNL     1       0.152  11.151  20.682  0.00  0.00    +0.000 A 
ATOM     19  C   UNL     1       0.797  11.424  19.459  0.00  0.00    +0.000 A 
ATOM     20  N   UNL     1       1.433  10.502  18.682  0.00  0.00    +0.000 NA
ENDBRANCH   8  11
ENDBRANCH   5   7
BRANCH   1  22
ATOM     21  C   UNL     1       6.985   4.912  18.815  0.00  0.00    +0.000 C 
ATOM     22  C   UNL     1       6.214   4.695  17.502  0.00  0.00    +0.000 C 
BRANCH  22  23
ATOM     23  S   UNL     1       6.638   6.027  16.312  0.00  0.00    +0.000 S 
BRANCH  23  24
ATOM     24  C   UNL     1       6.670   5.164  14.801  0.00  0.00    +0.000 A 
ATOM     25  N   UNL     1       5.774   4.195  14.440  0.00  0.00    +0.000 NA
ATOM     26  C   UNL     1       6.215   3.804  13.266  0.00  0.00    +0.000 A 
ATOM     27  N   UNL     1       7.318   4.525  12.936  0.00  0.00    +0.000 N 
ATOM     28  N   UNL     1       7.626   5.404  13.899  0.00  0.00    +0.000 NA
ATOM     29  H   UNL     1       7.898   4.473  12.106  0.00  0.00    +0.000 HD
ENDBRANCH  23  24
ENDBRANCH  22  23
ENDBRANCH   1  22
TORSDOF 5
ENDMDL
MODEL 8
REMARK VINA RESULT:      -8.0      1.530      1.914
REMARK  Name = 
REMARK  6 active torsions:
REMARK  status: ('A' for Active; 'I' for Inactive)
REMARK    1  A    between atoms: C_1  and  C_2
REMARK    2  A    between atoms: C_2  and  S_3
REMARK    3  A    between atoms: C_2  and  C_9
REMARK    4  A    between atoms: S_3  and  C_4
REMARK    5  A    between atoms: C_13  and  N_14
REMARK    6  A    between atoms: C_15  and  C_17
REMARK                            x       y       z     vdW  Elec       q    Type
REMARK                         _______ _______ _______ _____ _____    ______ ____
ROOT
ATOM      1  C   UNL     1       4.268   4.709  18.570  0.00  0.00    +0.000 A 
ATOM      2  C   UNL     1       4.163   3.410  19.104  0.00  0.00    +0.000 A 
ATOM      3  C   UNL     1       3.306   3.146  20.167  0.00  0.00    +0.000 A 
ATOM      4  C   UNL     1       2.540   4.169  20.717  0.00  0.00    +0.000 A 
ATOM      5  C   UNL     1       2.609   5.472  20.219  0.00  0.00    +0.000 A 
ATOM      6  C   UNL     1       3.482   5.732  19.153  0.00  0.00    +0.000 A 
ENDROOT
BRANCH   5   7
ATOM      7  N   UNL     1       1.827   6.538  20.731  0.00  0.00    +0.000 N 
ATOM      8  C   UNL     1       1.709   7.796  20.158  0.00  0.00    +0.000 C 
ATOM      9  O   UNL     1       2.188   8.147  19.083  0.00  0.00    +0.000 OA
ATOM     10  H   UNL     1       1.345   6.408  21.613  0.00  0.00    +0.000 HD
BRANCH   8  11
ATOM     11  C   UNL     1       0.934   8.811  20.935  0.00  0.00    +0.000 A 
ATOM     12  C   UNL     1       0.257   9.778  20.200  0.00  0.00    +0.000 A 
ATOM     13  C   UNL     1      -0.539  10.705  20.863  0.00  0.00    +0.000 A 
ATOM     14  C   UNL     1      -1.333  11.604  20.139  0.00  0.00    +0.000 A 
ATOM     15  C   UNL     1      -2.111  12.548  20.801  0.00  0.00    +0.000 A 
ATOM     16  C   UNL     1      -2.060  12.633  22.190  0.00  0.00    +0.000 A 
ATOM     17  C   UNL     1      -1.288  11.724  22.923  0.00  0.00    +0.000 A 
ATOM     18  C   UNL     1      -0.550  10.717  22.268  0.00  0.00    +0.000 A 
ATOM     19  C   UNL     1       0.182   9.703  22.917  0.00  0.00    +0.000 A 
ATOM     20  N   UNL     1       0.914   8.737  22.292  0.00  0.00    +0.000 NA
ENDBRANCH   8  11
ENDBRANCH   5   7
BRANCH   1  22
ATOM     21  C   UNL     1       4.827   4.211  16.104  0.00  0.00    +0.000 C 
ATOM     22  C   UNL     1       5.169   5.020  17.367  0.00  0.00    +0.000 C 
BRANCH  22  23
ATOM     23  S   UNL     1       6.927   4.743  17.817  0.00  0.00    +0.000 S 
BRANCH  23  24
ATOM     24  C   UNL     1       7.512   6.370  18.009  0.00  0.00    +0.000 A 
ATOM     25  N   UNL     1       7.269   7.392  17.132  0.00  0.00    +0.000 NA
ATOM     26  C   UNL     1       7.937   8.397  17.653  0.00  0.00    +0.000 A 
ATOM     27  N   UNL     1       8.537   7.991  18.802  0.00  0.00    +0.000 N 
ATOM     28  N   UNL     1       8.277   6.701  19.054  0.00  0.00    +0.000 NA
ATOM     29  H   UNL     1       9.125   8.514  19.442  0.00  0.00    +0.000 HD
ENDBRANCH  23  24
ENDBRANCH  22  23
ENDBRANCH   1  22
TORSDOF 5
ENDMDL
MODEL 9
REMARK VINA RESULT:      -7.9      2.301      3.959
REMARK  Name = 
REMARK  6 active torsions:
REMARK  status: ('A' for Active; 'I' for Inactive)
REMARK    1  A    between atoms: C_1  and  C_2
REMARK    2  A    between atoms: C_2  and  S_3
REMARK    3  A    between atoms: C_2  and  C_9
REMARK    4  A    between atoms: S_3  and  C_4
REMARK    5  A    between atoms: C_13  and  N_14
REMARK    6  A    between atoms: C_15  and  C_17
REMARK                            x       y       z     vdW  Elec       q    Type
REMARK                         _______ _______ _______ _____ _____    ______ ____
ROOT
ATOM      1  C   UNL     1       4.191   4.109  17.404  0.00  0.00    +0.000 A 
ATOM      2  C   UNL     1       5.166   4.397  16.430  0.00  0.00    +0.000 A 
ATOM      3  C   UNL     1       5.394   5.707  16.018  0.00  0.00    +0.000 A 
ATOM      4  C   UNL     1       4.655   6.749  16.566  0.00  0.00    +0.000 A 
ATOM      5  C   UNL     1       3.679   6.512  17.537  0.00  0.00    +0.000 A 
ATOM      6  C   UNL     1       3.450   5.189  17.941  0.00  0.00    +0.000 A 
ENDROOT
BRANCH   5   7
ATOM      7  N   UNL     1       2.922   7.547  18.143  0.00  0.00    +0.000 N 
ATOM      8  C   UNL     1       2.294   7.467  19.377  0.00  0.00    +0.000 C 
ATOM      9  O   UNL     1       2.370   6.530  20.166  0.00  0.00    +0.000 OA
ATOM     10  H   UNL     1       2.774   8.407  17.627  0.00  0.00    +0.000 HD
BRANCH   8  11
ATOM     11  C   UNL     1       1.440   8.631  19.765  0.00  0.00    +0.000 A 
ATOM     12  C   UNL     1       0.847   8.581  21.023  0.00  0.00    +0.000 A 
ATOM     13  C   UNL     1       0.101   9.665  21.469  0.00  0.00    +0.000 A 
ATOM     14  C   UNL     1      -0.395   9.692  22.779  0.00  0.00    +0.000 A 
ATOM     15  C   UNL     1      -1.162  10.766  23.219  0.00  0.00    +0.000 A 
ATOM     16  C   UNL     1      -1.482  11.794  22.336  0.00  0.00    +0.000 A 
ATOM     17  C   UNL     1      -0.971  11.786  21.033  0.00  0.00    +0.000 A 
ATOM     18  C   UNL     1      -0.134  10.740  20.595  0.00  0.00    +0.000 A 
ATOM     19  C   UNL     1       0.500  10.686  19.338  0.00  0.00    +0.000 A 
ATOM     20  N   UNL     1       1.296   9.669  18.900  0.00  0.00    +0.000 NA
ENDBRANCH   8  11
ENDBRANCH   5   7
BRANCH   1  22
ATOM     21  C   UNL     1       2.496   2.205  17.783  0.00  0.00    +0.000 C 
ATOM     22  C   UNL     1       3.953   2.681  17.913  0.00  0.00    +0.000 C 
BRANCH  22  23
ATOM     23  S   UNL     1       4.490   2.544  19.663  0.00  0.00    +0.000 S 
BRANCH  23  24
ATOM     24  C   UNL     1       2.984   2.708  20.518  0.00  0.00    +0.000 A 
ATOM     25  N   UNL     1       1.836   3.222  19.979  0.00  0.00    +0.000 NA
ATOM     26  C   UNL     1       0.995   3.194  20.989  0.00  0.00    +0.000 A 
ATOM     27  N   UNL     1       1.615   2.668  22.076  0.00  0.00    +0.000 N 
ATOM     28  N   UNL     1       2.885   2.345  21.800  0.00  0.00    +0.000 NA
ATOM     29  H   UNL     1       1.253   2.509  23.011  0.00  0.00    +0.000 HD
ENDBRANCH  23  24
ENDBRANCH  22  23
ENDBRANCH   1  22
TORSDOF 5
ENDMDL
