MODEL 1
REMARK VINA RESULT:      -9.0      0.000      0.000
REMARK  Name = 
REMARK  10 active torsions:
REMARK  status: ('A' for Active; 'I' for Inactive)
REMARK    1  A    between atoms: C_1  and  N_2
REMARK    2  A    between atoms: N_2  and  C_3
REMARK    3  A    between atoms: C_7  and  C_9
REMARK    4  A    between atoms: C_13  and  C_14
REMARK    5  A    between atoms: N_16  and  C_17
REMARK    6  A    between atoms: C_21  and  C_22
REMARK    7  A    between atoms: C_22  and  C_23
REMARK    8  A    between atoms: C_22  and  C_24
REMARK    9  A    between atoms: C_24  and  C_25
REMARK   10  A    between atoms: N_29  and  C_30
REMARK                            x       y       z     vdW  Elec       q    Type
REMARK                         _______ _______ _______ _____ _____    ______ ____
ROOT
ATOM      1  C   UNL     1       1.718   7.772  19.943  0.00  0.00    +0.000 C 
ATOM      2  O   UNL     1       1.933   8.590  19.056  0.00  0.00    +0.000 OA
ATOM      3  N   UNL     1       0.924   7.939  21.072  0.00  0.00    +0.000 N 
ATOM      4  H   UNL     1       0.878   7.129  21.686  0.00  0.00    +0.000 HD
ENDROOT
BRANCH   1   9
ATOM      5  C   UNL     1       4.316   5.066  19.494  0.00  0.00    +0.000 A 
ATOM      6  C   UNL     1       3.541   3.980  19.897  0.00  0.00    +0.000 A 
ATOM      7  C   UNL     1       2.197   4.164  20.172  0.00  0.00    +0.000 A 
ATOM      8  N   UNL     1       1.589   5.363  20.157  0.00  0.00    +0.000 NA
ATOM      9  C   UNL     1       2.377   6.432  19.852  0.00  0.00    +0.000 A 
ATOM     10  C   UNL     1       3.725   6.331  19.507  0.00  0.00    +0.000 A 
BRANCH   5  15
ATOM     11  C   UNL     1       5.994   3.837  15.486  0.00  0.00    +0.000 C 
ATOM     12  C   UNL     1       7.250   4.663  15.775  0.00  0.00    +0.000 C 
ATOM     13  C   UNL     1       7.434   4.487  17.284  0.00  0.00    +0.000 C 
ATOM     14  N   UNL     1       6.076   4.455  17.807  0.00  0.00    +0.000 N 
ATOM     15  C   UNL     1       5.755   4.953  19.067  0.00  0.00    +0.000 C 
ATOM     16  O   UNL     1       6.617   5.363  19.840  0.00  0.00    +0.000 OA
ATOM     17  C   UNL     1       5.164   4.033  16.762  0.00  0.00    +0.000 C 
BRANCH  11  19
ATOM     18  C   UNL     1       6.029   3.803  13.059  0.00  0.00    +0.000 C 
ATOM     19  N   UNL     1       5.302   4.228  14.254  0.00  0.00    +0.000 NA
ATOM     20  H   UNL     1       4.369   3.810  14.238  0.00  0.00    +0.000 HD
ENDBRANCH  11  19
ENDBRANCH   5  15
ENDBRANCH   1   9
BRANCH   3  21
ATOM     21  C   UNL     1       0.252   9.115  21.471  0.00  0.00    +0.000 A 
ATOM     22  C   UNL     1      -0.085   9.367  22.802  0.00  0.00    +0.000 A 
ATOM     23  C   UNL     1      -0.786  10.517  23.158  0.00  0.00    +0.000 A 
ATOM     24  C   UNL     1      -1.156  11.435  22.183  0.00  0.00    +0.000 A 
ATOM     25  C   UNL     1      -0.822  11.228  20.836  0.00  0.00    +0.000 A 
ATOM     26  C   UNL     1      -0.109  10.059  20.493  0.00  0.00    +0.000 A 
BRANCH  25  27
ATOM     27  C   UNL     1      -1.260  12.237  19.772  0.00  0.00    +0.000 C 
ATOM     28  C   UNL     1      -0.165  13.303  19.591  0.00  0.00    +0.000 C 
BRANCH  27  29
ATOM     29  C   UNL     1      -1.603  11.513  18.449  0.00  0.00    +0.000 C 
BRANCH  29  30
ATOM     30  C   UNL     1      -3.049  11.569  18.077  0.00  0.00    +0.000 A 
ATOM     31  N   UNL     1      -4.064  11.878  18.860  0.00  0.00    +0.000 NA
ATOM     32  N   UNL     1      -5.216  11.844  18.109  0.00  0.00    +0.000 NA
ATOM     33  C   UNL     1      -4.885  11.491  16.890  0.00  0.00    +0.000 A 
ATOM     34  N   UNL     1      -3.542  11.293  16.825  0.00  0.00    +0.000 N 
ATOM     35  C   UNL     1      -2.801  10.871  15.664  0.00  0.00    +0.000 C 
ENDBRANCH  29  30
ENDBRANCH  27  29
ENDBRANCH  25  27
ENDBRANCH   3  21
TORSDOF 7
ENDMDL
MODEL 2
REMARK VINA RESULT:      -8.9      2.438     10.719
REMARK  Name = 
REMARK  10 active torsions:
REMARK  status: ('A' for Active; 'I' for Inactive)
REMARK    1  A    between atoms: C_1  and  N_2
REMARK    2  A    between atoms: N_2  and  C_3
REMARK    3  A    between atoms: C_7  and  C_9
REMARK    4  A    between atoms: C_13  and  C_14
REMARK    5  A    between atoms: N_16  and  C_17
REMARK    6  A    between atoms: C_21  and  C_22
REMARK    7  A    between atoms: C_22  and  C_23
REMARK    8  A    between atoms: C_22  and  C_24
REMARK    9  A    between atoms: C_24  and  C_25
REMARK   10  A    between atoms: N_29  and  C_30
REMARK                            x       y       z     vdW  Elec       q    Type
REMARK                         _______ _______ _______ _____ _____    ______ ____
ROOT
ATOM      1  C   UNL     1       1.820   7.810  19.693  0.00  0.00    +0.000 C 
ATOM      2  O   UNL     1       2.020   7.184  20.728  0.00  0.00    +0.000 OA
ATOM      3  N   UNL     1       2.038   7.378  18.390  0.00  0.00    +0.000 N 
ATOM      4  H   UNL     1       1.804   8.057  17.669  0.00  0.00    +0.000 HD
ENDROOT
BRANCH   1   9
ATOM      5  C   UNL     1       0.141  10.934  20.992  0.00  0.00    +0.000 A 
ATOM      6  C   UNL     1       0.552  11.811  19.989  0.00  0.00    +0.000 A 
ATOM      7  C   UNL     1       1.241  11.320  18.893  0.00  0.00    +0.000 A 
ATOM      8  N   UNL     1       1.624  10.038  18.764  0.00  0.00    +0.000 NA
ATOM      9  C   UNL     1       1.298   9.208  19.794  0.00  0.00    +0.000 A 
ATOM     10  C   UNL     1       0.556   9.604  20.908  0.00  0.00    +0.000 A 
BRANCH   5  15
ATOM     11  C   UNL     1      -3.621  13.431  21.033  0.00  0.00    +0.000 C 
ATOM     12  C   UNL     1      -4.056  12.728  22.321  0.00  0.00    +0.000 C 
ATOM     13  C   UNL     1      -2.731  12.501  23.051  0.00  0.00    +0.000 C 
ATOM     14  N   UNL     1      -1.783  12.211  21.985  0.00  0.00    +0.000 N 
ATOM     15  C   UNL     1      -0.706  11.347  22.165  0.00  0.00    +0.000 C 
ATOM     16  O   UNL     1      -0.448  10.854  23.261  0.00  0.00    +0.000 OA
ATOM     17  C   UNL     1      -2.260  12.784  20.742  0.00  0.00    +0.000 C 
BRANCH  11  19
ATOM     18  C   UNL     1      -5.778  14.131  20.167  0.00  0.00    +0.000 C 
ATOM     19  N   UNL     1      -4.589  13.311  19.939  0.00  0.00    +0.000 NA
ATOM     20  H   UNL     1      -4.153  13.601  19.062  0.00  0.00    +0.000 HD
ENDBRANCH  11  19
ENDBRANCH   5  15
ENDBRANCH   1   9
BRANCH   3  21
ATOM     21  C   UNL     1       2.604   6.149  17.985  0.00  0.00    +0.000 A 
ATOM     22  C   UNL     1       1.915   4.939  18.088  0.00  0.00    +0.000 A 
ATOM     23  C   UNL     1       2.517   3.739  17.721  0.00  0.00    +0.000 A 
ATOM     24  C   UNL     1       3.820   3.733  17.239  0.00  0.00    +0.000 A 
ATOM     25  C   UNL     1       4.542   4.928  17.105  0.00  0.00    +0.000 A 
ATOM     26  C   UNL     1       3.917   6.137  17.479  0.00  0.00    +0.000 A 
BRANCH  25  27
ATOM     27  C   UNL     1       5.986   4.900  16.597  0.00  0.00    +0.000 C 
ATOM     28  C   UNL     1       6.924   4.459  17.734  0.00  0.00    +0.000 C 
BRANCH  27  29
ATOM     29  C   UNL     1       6.103   3.993  15.350  0.00  0.00    +0.000 C 
BRANCH  29  30
ATOM     30  C   UNL     1       6.900   4.585  14.234  0.00  0.00    +0.000 A 
ATOM     31  N   UNL     1       7.832   5.514  14.323  0.00  0.00    +0.000 NA
ATOM     32  N   UNL     1       8.337   5.742  13.064  0.00  0.00    +0.000 NA
ATOM     33  C   UNL     1       7.688   4.968  12.229  0.00  0.00    +0.000 A 
ATOM     34  N   UNL     1       6.768   4.236  12.912  0.00  0.00    +0.000 N 
ATOM     35  C   UNL     1       5.842   3.291  12.343  0.00  0.00    +0.000 C 
ENDBRANCH  29  30
ENDBRANCH  27  29
ENDBRANCH  25  27
ENDBRANCH   3  21
TORSDOF 7
ENDMDL
MODEL 3
REMARK VINA RESULT:      -8.9      2.420     10.581
REMARK  Name = 
REMARK  10 active torsions:
REMARK  status: ('A' for Active; 'I' for Inactive)
REMARK    1  A    between atoms: C_1  and  N_2
REMARK    2  A    between atoms: N_2  and  C_3
REMARK    3  A    between atoms: C_7  and  C_9
REMARK    4  A    between atoms: C_13  and  C_14
REMARK    5  A    between atoms: N_16  and  C_17
REMARK    6  A    between atoms: C_21  and  C_22
REMARK    7  A    between atoms: C_22  and  C_23
REMARK    8  A    between atoms: C_22  and  C_24
REMARK    9  A    between atoms: C_24  and  C_25
REMARK   10  A    between atoms: N_29  and  C_30
REMARK                            x       y       z     vdW  Elec       q    Type
REMARK                         _______ _______ _______ _____ _____    ______ ____
ROOT
ATOM      1  C   UNL     1       1.754   8.211  19.006  0.00  0.00    +0.000 C 
ATOM      2  O   UNL     1       1.715   8.669  17.869  0.00  0.00    +0.000 OA
ATOM      3  N   UNL     1       2.224   6.963  19.397  0.00  0.00    +0.000 N 
ATOM      4  H   UNL     1       2.167   6.780  20.397  0.00  0.00    +0.000 HD
ENDROOT
BRANCH   1   9
ATOM      5  C   UNL     1       0.363  11.117  20.978  0.00  0.00    +0.000 A 
ATOM      6  C   UNL     1       0.112  10.443  22.172  0.00  0.00    +0.000 A 
ATOM      7  C   UNL     1       0.517   9.126  22.311  0.00  0.00    +0.000 A 
ATOM      8  N   UNL     1       1.075   8.408  21.322  0.00  0.00    +0.000 NA
ATOM      9  C   UNL     1       1.232   9.049  20.130  0.00  0.00    +0.000 A 
ATOM     10  C   UNL     1       0.906  10.389  19.918  0.00  0.00    +0.000 A 
BRANCH   5  15
ATOM     11  C   UNL     1      -3.635  13.140  20.422  0.00  0.00    +0.000 C 
ATOM     12  C   UNL     1      -3.044  14.433  20.989  0.00  0.00    +0.000 C 
ATOM     13  C   UNL     1      -1.604  14.406  20.470  0.00  0.00    +0.000 C 
ATOM     14  N   UNL     1      -1.238  12.998  20.511  0.00  0.00    +0.000 N 
ATOM     15  C   UNL     1       0.064  12.577  20.765  0.00  0.00    +0.000 C 
ATOM     16  O   UNL     1       0.992  13.375  20.880  0.00  0.00    +0.000 OA
ATOM     17  C   UNL     1      -2.436  12.183  20.449  0.00  0.00    +0.000 C 
BRANCH  11  19
ATOM     18  C   UNL     1      -5.208  13.578  22.218  0.00  0.00    +0.000 C 
ATOM     19  N   UNL     1      -4.807  12.656  21.157  0.00  0.00    +0.000 NA
ATOM     20  H   UNL     1      -5.590  12.535  20.512  0.00  0.00    +0.000 HD
ENDBRANCH  11  19
ENDBRANCH   5  15
ENDBRANCH   1   9
BRANCH   3  21
ATOM     21  C   UNL     1       2.691   5.929  18.557  0.00  0.00    +0.000 A 
ATOM     22  C   UNL     1       1.907   4.822  18.228  0.00  0.00    +0.000 A 
ATOM     23  C   UNL     1       2.413   3.798  17.431  0.00  0.00    +0.000 A 
ATOM     24  C   UNL     1       3.714   3.870  16.948  0.00  0.00    +0.000 A 
ATOM     25  C   UNL     1       4.530   4.973  17.242  0.00  0.00    +0.000 A 
ATOM     26  C   UNL     1       4.001   6.004  18.048  0.00  0.00    +0.000 A 
BRANCH  25  27
ATOM     27  C   UNL     1       5.968   5.025  16.723  0.00  0.00    +0.000 C 
ATOM     28  C   UNL     1       6.943   4.723  17.875  0.00  0.00    +0.000 C 
BRANCH  27  29
ATOM     29  C   UNL     1       6.147   4.056  15.529  0.00  0.00    +0.000 C 
BRANCH  29  30
ATOM     30  C   UNL     1       6.914   4.631  14.384  0.00  0.00    +0.000 A 
ATOM     31  N   UNL     1       7.876   5.532  14.438  0.00  0.00    +0.000 NA
ATOM     32  N   UNL     1       8.335   5.753  13.160  0.00  0.00    +0.000 NA
ATOM     33  C   UNL     1       7.629   5.001  12.349  0.00  0.00    +0.000 A 
ATOM     34  N   UNL     1       6.717   4.293  13.067  0.00  0.00    +0.000 N 
ATOM     35  C   UNL     1       5.742   3.378  12.533  0.00  0.00    +0.000 C 
ENDBRANCH  29  30
ENDBRANCH  27  29
ENDBRANCH  25  27
ENDBRANCH   3  21
TORSDOF 7
ENDMDL
MODEL 4
REMARK VINA RESULT:      -8.7      2.171     10.230
REMARK  Name = 
REMARK  10 active torsions:
REMARK  status: ('A' for Active; 'I' for Inactive)
REMARK    1  A    between atoms: C_1  and  N_2
REMARK    2  A    between atoms: N_2  and  C_3
REMARK    3  A    between atoms: C_7  and  C_9
REMARK    4  A    between atoms: C_13  and  C_14
REMARK    5  A    between atoms: N_16  and  C_17
REMARK    6  A    between atoms: C_21  and  C_22
REMARK    7  A    between atoms: C_22  and  C_23
REMARK    8  A    between atoms: C_22  and  C_24
REMARK    9  A    between atoms: C_24  and  C_25
REMARK   10  A    between atoms: N_29  and  C_30
REMARK                            x       y       z     vdW  Elec       q    Type
REMARK                         _______ _______ _______ _____ _____    ______ ____
ROOT
ATOM      1  C   UNL     1       1.630   8.549  19.440  0.00  0.00    +0.000 C 
ATOM      2  O   UNL     1       1.469   8.072  20.558  0.00  0.00    +0.000 OA
ATOM      3  N   UNL     1       2.265   7.959  18.353  0.00  0.00    +0.000 N 
ATOM      4  H   UNL     1       2.289   8.530  17.511  0.00  0.00    +0.000 HD
ENDROOT
BRANCH   1   9
ATOM      5  C   UNL     1      -0.628  11.572  19.266  0.00  0.00    +0.000 A 
ATOM      6  C   UNL     1       0.318  12.501  18.837  0.00  0.00    +0.000 A 
ATOM      7  C   UNL     1       1.595  12.075  18.512  0.00  0.00    +0.000 A 
ATOM      8  N   UNL     1       2.021  10.810  18.665  0.00  0.00    +0.000 NA
ATOM      9  C   UNL     1       1.116   9.928  19.173  0.00  0.00    +0.000 A 
ATOM     10  C   UNL     1      -0.207  10.257  19.473  0.00  0.00    +0.000 A 
BRANCH   5  15
ATOM     11  C   UNL     1      -4.166  11.355  16.468  0.00  0.00    +0.000 C 
ATOM     12  C   UNL     1      -5.089  11.160  17.674  0.00  0.00    +0.000 C 
ATOM     13  C   UNL     1      -4.433  12.028  18.750  0.00  0.00    +0.000 C 
ATOM     14  N   UNL     1      -3.005  11.877  18.507  0.00  0.00    +0.000 N 
ATOM     15  C   UNL     1      -2.069  11.913  19.537  0.00  0.00    +0.000 C 
ATOM     16  O   UNL     1      -2.392  12.164  20.696  0.00  0.00    +0.000 OA
ATOM     17  C   UNL     1      -2.786  11.501  17.124  0.00  0.00    +0.000 C 
BRANCH  11  19
ATOM     18  C   UNL     1      -3.183  10.358  14.485  0.00  0.00    +0.000 C 
ATOM     19  N   UNL     1      -4.251  10.275  15.480  0.00  0.00    +0.000 NA
ATOM     20  H   UNL     1      -4.190   9.372  15.954  0.00  0.00    +0.000 HD
ENDBRANCH  11  19
ENDBRANCH   5  15
ENDBRANCH   1   9
BRANCH   3  21
ATOM     21  C   UNL     1       2.922   6.710  18.329  0.00  0.00    +0.000 A 
ATOM     22  C   UNL     1       2.517   5.637  19.126  0.00  0.00    +0.000 A 
ATOM     23  C   UNL     1       3.213   4.431  19.110  0.00  0.00    +0.000 A 
ATOM     24  C   UNL     1       4.326   4.280  18.291  0.00  0.00    +0.000 A 
ATOM     25  C   UNL     1       4.756   5.328  17.463  0.00  0.00    +0.000 A 
ATOM     26  C   UNL     1       4.038   6.543  17.488  0.00  0.00    +0.000 A 
BRANCH  25  27
ATOM     27  C   UNL     1       5.999   5.154  16.587  0.00  0.00    +0.000 C 
ATOM     28  C   UNL     1       7.076   4.380  17.367  0.00  0.00    +0.000 C 
BRANCH  27  29
ATOM     29  C   UNL     1       5.626   4.464  15.252  0.00  0.00    +0.000 C 
BRANCH  29  30
ATOM     30  C   UNL     1       6.575   4.741  14.133  0.00  0.00    +0.000 A 
ATOM     31  N   UNL     1       7.579   5.598  14.130  0.00  0.00    +0.000 NA
ATOM     32  N   UNL     1       8.217   5.512  12.915  0.00  0.00    +0.000 NA
ATOM     33  C   UNL     1       7.578   4.624  12.192  0.00  0.00    +0.000 A 
ATOM     34  N   UNL     1       6.534   4.126  12.906  0.00  0.00    +0.000 N 
ATOM     35  C   UNL     1       5.580   3.150  12.447  0.00  0.00    +0.000 C 
ENDBRANCH  29  30
ENDBRANCH  27  29
ENDBRANCH  25  27
ENDBRANCH   3  21
TORSDOF 7
ENDMDL
MODEL 5
REMARK VINA RESULT:      -8.6      1.323      1.856
REMARK  Name = 
REMARK  10 active torsions:
REMARK  status: ('A' for Active; 'I' for Inactive)
REMARK    1  A    between atoms: C_1  and  N_2
REMARK    2  A    between atoms: N_2  and  C_3
REMARK    3  A    between atoms: C_7  and  C_9
REMARK    4  A    between atoms: C_13  and  C_14
REMARK    5  A    between atoms: N_16  and  C_17
REMARK    6  A    between atoms: C_21  and  C_22
REMARK    7  A    between atoms: C_22  and  C_23
REMARK    8  A    between atoms: C_22  and  C_24
REMARK    9  A    between atoms: C_24  and  C_25
REMARK   10  A    between atoms: N_29  and  C_30
REMARK                            x       y       z     vdW  Elec       q    Type
REMARK                         _______ _______ _______ _____ _____    ______ ____
ROOT
ATOM      1  C   UNL     1       1.695   7.473  20.042  0.00  0.00    +0.000 C 
ATOM      2  O   UNL     1       2.167   8.264  19.234  0.00  0.00    +0.000 OA
ATOM      3  N   UNL     1       0.761   7.739  21.036  0.00  0.00    +0.000 N 
ATOM      4  H   UNL     1       0.499   6.935  21.603  0.00  0.00    +0.000 HD
ENDROOT
BRANCH   1   9
ATOM      5  C   UNL     1       3.262   4.234  18.893  0.00  0.00    +0.000 A 
ATOM      6  C   UNL     1       3.141   3.522  20.085  0.00  0.00    +0.000 A 
ATOM      7  C   UNL     1       2.453   4.083  21.148  0.00  0.00    +0.000 A 
ATOM      8  N   UNL     1       1.954   5.330  21.140  0.00  0.00    +0.000 NA
ATOM      9  C   UNL     1       2.159   6.052  20.003  0.00  0.00    +0.000 A 
ATOM     10  C   UNL     1       2.789   5.547  18.864  0.00  0.00    +0.000 A 
BRANCH   5  15
ATOM     11  C   UNL     1       6.495   6.022  16.296  0.00  0.00    +0.000 C 
ATOM     12  C   UNL     1       6.907   4.613  15.864  0.00  0.00    +0.000 C 
ATOM     13  C   UNL     1       5.572   3.867  15.814  0.00  0.00    +0.000 C 
ATOM     14  N   UNL     1       4.810   4.427  16.922  0.00  0.00    +0.000 N 
ATOM     15  C   UNL     1       3.891   3.673  17.646  0.00  0.00    +0.000 C 
ATOM     16  O   UNL     1       3.608   2.519  17.330  0.00  0.00    +0.000 OA
ATOM     17  C   UNL     1       5.310   5.752  17.233  0.00  0.00    +0.000 C 
BRANCH  11  19
ATOM     18  C   UNL     1       7.693   6.536  18.344  0.00  0.00    +0.000 C 
ATOM     19  N   UNL     1       7.582   6.792  16.909  0.00  0.00    +0.000 NA
ATOM     20  H   UNL     1       8.468   6.550  16.462  0.00  0.00    +0.000 HD
ENDBRANCH  11  19
ENDBRANCH   5  15
ENDBRANCH   1   9
BRANCH   3  21
ATOM     21  C   UNL     1       0.210   8.995  21.371  0.00  0.00    +0.000 A 
ATOM     22  C   UNL     1      -0.161   9.324  22.676  0.00  0.00    +0.000 A 
ATOM     23  C   UNL     1      -0.741  10.556  22.967  0.00  0.00    +0.000 A 
ATOM     24  C   UNL     1      -0.955  11.481  21.952  0.00  0.00    +0.000 A 
ATOM     25  C   UNL     1      -0.582  11.196  20.629  0.00  0.00    +0.000 A 
ATOM     26  C   UNL     1       0.008   9.944  20.352  0.00  0.00    +0.000 A 
BRANCH  25  27
ATOM     27  C   UNL     1      -0.849  12.216  19.520  0.00  0.00    +0.000 C 
ATOM     28  C   UNL     1       0.406  13.079  19.301  0.00  0.00    +0.000 C 
BRANCH  27  29
ATOM     29  C   UNL     1      -1.306  11.500  18.226  0.00  0.00    +0.000 C 
BRANCH  29  30
ATOM     30  C   UNL     1      -2.780  11.539  17.993  0.00  0.00    +0.000 A 
ATOM     31  N   UNL     1      -3.719  11.865  18.861  0.00  0.00    +0.000 NA
ATOM     32  N   UNL     1      -4.937  11.804  18.225  0.00  0.00    +0.000 NA
ATOM     33  C   UNL     1      -4.721  11.419  16.990  0.00  0.00    +0.000 A 
ATOM     34  N   UNL     1      -3.389  11.225  16.802  0.00  0.00    +0.000 N 
ATOM     35  C   UNL     1      -2.760  10.774  15.588  0.00  0.00    +0.000 C 
ENDBRANCH  29  30
ENDBRANCH  27  29
ENDBRANCH  25  27
ENDBRANCH   3  21
TORSDOF 7
ENDMDL
MODEL 6
REMARK VINA RESULT:      -8.6      2.896      9.865
REMARK  Name = 
REMARK  10 active torsions:
REMARK  status: ('A' for Active; 'I' for Inactive)
REMARK    1  A    between atoms: C_1  and  N_2
REMARK    2  A    between atoms: N_2  and  C_3
REMARK    3  A    between atoms: C_7  and  C_9
REMARK    4  A    between atoms: C_13  and  C_14
REMARK    5  A    between atoms: N_16  and  C_17
REMARK    6  A    between atoms: C_21  and  C_22
REMARK    7  A    between atoms: C_22  and  C_23
REMARK    8  A    between atoms: C_22  and  C_24
REMARK    9  A    between atoms: C_24  and  C_25
REMARK   10  A    between atoms: N_29  and  C_30
REMARK                            x       y       z     vdW  Elec       q    Type
REMARK                         _______ _______ _______ _____ _____    ______ ____
ROOT
ATOM      1  C   UNL     1       1.832   7.002  20.330  0.00  0.00    +0.000 C 
ATOM      2  O   UNL     1       2.155   6.175  21.175  0.00  0.00    +0.000 OA
ATOM      3  N   UNL     1       1.936   6.881  18.949  0.00  0.00    +0.000 N 
ATOM      4  H   UNL     1       1.608   7.689  18.424  0.00  0.00    +0.000 HD
ENDROOT
BRANCH   1   9
ATOM      5  C   UNL     1       0.494  10.534  20.339  0.00  0.00    +0.000 A 
ATOM      6  C   UNL     1       0.078  10.584  21.668  0.00  0.00    +0.000 A 
ATOM      7  C   UNL     1       0.363   9.525  22.513  0.00  0.00    +0.000 A 
ATOM      8  N   UNL     1       0.954   8.387  22.111  0.00  0.00    +0.000 NA
ATOM      9  C   UNL     1       1.273   8.311  20.789  0.00  0.00    +0.000 A 
ATOM     10  C   UNL     1       1.075   9.351  19.880  0.00  0.00    +0.000 A 
BRANCH   5  15
ATOM     11  C   UNL     1       2.694  14.476  20.210  0.00  0.00    +0.000 C 
ATOM     12  C   UNL     1       2.436  14.553  18.703  0.00  0.00    +0.000 C 
ATOM     13  C   UNL     1       1.049  13.922  18.560  0.00  0.00    +0.000 C 
ATOM     14  N   UNL     1       1.038  12.860  19.557  0.00  0.00    +0.000 N 
ATOM     15  C   UNL     1       0.332  11.675  19.370  0.00  0.00    +0.000 C 
ATOM     16  O   UNL     1      -0.392  11.500  18.393  0.00  0.00    +0.000 OA
ATOM     17  C   UNL     1       1.997  13.165  20.601  0.00  0.00    +0.000 C 
BRANCH  11  19
ATOM     18  C   UNL     1       4.899  15.276  19.586  0.00  0.00    +0.000 C 
ATOM     19  N   UNL     1       4.114  14.531  20.569  0.00  0.00    +0.000 NA
ATOM     20  H   UNL     1       4.219  14.978  21.482  0.00  0.00    +0.000 HD
ENDBRANCH  11  19
ENDBRANCH   5  15
ENDBRANCH   1   9
BRANCH   3  21
ATOM     21  C   UNL     1       2.502   5.807  18.230  0.00  0.00    +0.000 A 
ATOM     22  C   UNL     1       1.794   4.634  17.957  0.00  0.00    +0.000 A 
ATOM     23  C   UNL     1       2.396   3.575  17.283  0.00  0.00    +0.000 A 
ATOM     24  C   UNL     1       3.717   3.676  16.866  0.00  0.00    +0.000 A 
ATOM     25  C   UNL     1       4.460   4.842  17.106  0.00  0.00    +0.000 A 
ATOM     26  C   UNL     1       3.835   5.908  17.788  0.00  0.00    +0.000 A 
BRANCH  25  27
ATOM     27  C   UNL     1       5.922   4.927  16.663  0.00  0.00    +0.000 C 
ATOM     28  C   UNL     1       6.841   4.631  17.862  0.00  0.00    +0.000 C 
BRANCH  27  29
ATOM     29  C   UNL     1       6.182   3.975  15.471  0.00  0.00    +0.000 C 
BRANCH  29  30
ATOM     30  C   UNL     1       6.949   4.594  14.349  0.00  0.00    +0.000 A 
ATOM     31  N   UNL     1       7.874   5.531  14.434  0.00  0.00    +0.000 NA
ATOM     32  N   UNL     1       8.350   5.785  13.169  0.00  0.00    +0.000 NA
ATOM     33  C   UNL     1       7.690   5.019  12.335  0.00  0.00    +0.000 A 
ATOM     34  N   UNL     1       6.792   4.266  13.025  0.00  0.00    +0.000 N 
ATOM     35  C   UNL     1       5.864   3.322  12.459  0.00  0.00    +0.000 C 
ENDBRANCH  29  30
ENDBRANCH  27  29
ENDBRANCH  25  27
ENDBRANCH   3  21
TORSDOF 7
ENDMDL
MODEL 7
REMARK VINA RESULT:      -8.6      2.285      3.176
REMARK  Name = 
REMARK  10 active torsions:
REMARK  status: ('A' for Active; 'I' for Inactive)
REMARK    1  A    between atoms: C_1  and  N_2
REMARK    2  A    between atoms: N_2  and  C_3
REMARK    3  A    between atoms: C_7  and  C_9
REMARK    4  A    between atoms: C_13  and  C_14
REMARK    5  A    between atoms: N_16  and  C_17
REMARK    6  A    between atoms: C_21  and  C_22
REMARK    7  A    between atoms: C_22  and  C_23
REMARK    8  A    between atoms: C_22  and  C_24
REMARK    9  A    between atoms: C_24  and  C_25
REMARK   10  A    between atoms: N_29  and  C_30
REMARK                            x       y       z     vdW  Elec       q    Type
REMARK                         _______ _______ _______ _____ _____    ______ ____
ROOT
ATOM      1  C   UNL     1       2.019   6.069  20.126  0.00  0.00    +0.000 C 
ATOM      2  O   UNL     1       1.053   5.737  20.802  0.00  0.00    +0.000 OA
ATOM      3  N   UNL     1       2.296   7.330  19.609  0.00  0.00    +0.000 N 
ATOM      4  H   UNL     1       3.158   7.392  19.072  0.00  0.00    +0.000 HD
ENDROOT
BRANCH   1   9
ATOM      5  C   UNL     1       5.168   4.396  18.877  0.00  0.00    +0.000 A 
ATOM      6  C   UNL     1       4.910   3.112  19.353  0.00  0.00    +0.000 A 
ATOM      7  C   UNL     1       3.687   2.832  19.939  0.00  0.00    +0.000 A 
ATOM      8  N   UNL     1       2.738   3.757  20.162  0.00  0.00    +0.000 NA
ATOM      9  C   UNL     1       3.036   5.029  19.777  0.00  0.00    +0.000 A 
ATOM     10  C   UNL     1       4.218   5.389  19.128  0.00  0.00    +0.000 A 
BRANCH   5  15
ATOM     11  C   UNL     1       6.140   3.807  14.507  0.00  0.00    +0.000 C 
ATOM     12  C   UNL     1       7.087   5.008  14.571  0.00  0.00    +0.000 C 
ATOM     13  C   UNL     1       7.676   4.903  15.980  0.00  0.00    +0.000 C 
ATOM     14  N   UNL     1       6.571   4.415  16.792  0.00  0.00    +0.000 N 
ATOM     15  C   UNL     1       6.417   4.774  18.128  0.00  0.00    +0.000 C 
ATOM     16  O   UNL     1       7.257   5.451  18.717  0.00  0.00    +0.000 OA
ATOM     17  C   UNL     1       5.624   3.711  15.949  0.00  0.00    +0.000 C 
BRANCH  11  19
ATOM     18  C   UNL     1       5.467   3.345  12.221  0.00  0.00    +0.000 C 
ATOM     19  N   UNL     1       5.084   3.942  13.499  0.00  0.00    +0.000 NA
ATOM     20  H   UNL     1       4.232   3.488  13.833  0.00  0.00    +0.000 HD
ENDBRANCH  11  19
ENDBRANCH   5  15
ENDBRANCH   1   9
BRANCH   3  21
ATOM     21  C   UNL     1       1.483   8.481  19.696  0.00  0.00    +0.000 A 
ATOM     22  C   UNL     1       1.362   9.392  18.645  0.00  0.00    +0.000 A 
ATOM     23  C   UNL     1       0.586  10.540  18.778  0.00  0.00    +0.000 A 
ATOM     24  C   UNL     1      -0.087  10.791  19.968  0.00  0.00    +0.000 A 
ATOM     25  C   UNL     1      -0.006   9.893  21.043  0.00  0.00    +0.000 A 
ATOM     26  C   UNL     1       0.783   8.732  20.891  0.00  0.00    +0.000 A 
BRANCH  25  27
ATOM     27  C   UNL     1      -0.733  10.197  22.355  0.00  0.00    +0.000 C 
ATOM     28  C   UNL     1       0.029   9.555  23.527  0.00  0.00    +0.000 C 
BRANCH  27  29
ATOM     29  C   UNL     1      -0.910  11.724  22.532  0.00  0.00    +0.000 C 
BRANCH  29  30
ATOM     30  C   UNL     1      -2.329  12.161  22.700  0.00  0.00    +0.000 A 
ATOM     31  N   UNL     1      -3.171  11.794  23.647  0.00  0.00    +0.000 NA
ATOM     32  N   UNL     1      -4.360  12.458  23.450  0.00  0.00    +0.000 NA
ATOM     33  C   UNL     1      -4.228  13.198  22.375  0.00  0.00    +0.000 A 
ATOM     34  N   UNL     1      -2.979  13.033  21.862  0.00  0.00    +0.000 N 
ATOM     35  C   UNL     1      -2.463  13.655  20.671  0.00  0.00    +0.000 C 
ENDBRANCH  29  30
ENDBRANCH  27  29
ENDBRANCH  25  27
ENDBRANCH   3  21
TORSDOF 7
ENDMDL
MODEL 8
REMARK VINA RESULT:      -8.6      2.315      9.617
REMARK  Name = 
REMARK  10 active torsions:
REMARK  status: ('A' for Active; 'I' for Inactive)
REMARK    1  A    between atoms: C_1  and  N_2
REMARK    2  A    between atoms: N_2  and  C_3
REMARK    3  A    between atoms: C_7  and  C_9
REMARK    4  A    between atoms: C_13  and  C_14
REMARK    5  A    between atoms: N_16  and  C_17
REMARK    6  A    between atoms: C_21  and  C_22
REMARK    7  A    between atoms: C_22  and  C_23
REMARK    8  A    between atoms: C_22  and  C_24
REMARK    9  A    between atoms: C_24  and  C_25
REMARK   10  A    between atoms: N_29  and  C_30
REMARK                            x       y       z     vdW  Elec       q    Type
REMARK                         _______ _______ _______ _____ _____    ______ ____
ROOT
ATOM      1  C   UNL     1       1.948   8.882  18.348  0.00  0.00    +0.000 C 
ATOM      2  O   UNL     1       2.441   8.550  17.276  0.00  0.00    +0.000 OA
ATOM      3  N   UNL     1       1.841   8.114  19.502  0.00  0.00    +0.000 N 
ATOM      4  H   UNL     1       1.397   8.584  20.288  0.00  0.00    +0.000 HD
ENDROOT
BRANCH   1   9
ATOM      5  C   UNL     1      -0.433  11.730  19.047  0.00  0.00    +0.000 A 
ATOM      6  C   UNL     1       0.457  12.784  18.853  0.00  0.00    +0.000 A 
ATOM      7  C   UNL     1       1.736  12.522  18.391  0.00  0.00    +0.000 A 
ATOM      8  N   UNL     1       2.218  11.284  18.190  0.00  0.00    +0.000 NA
ATOM      9  C   UNL     1       1.369  10.256  18.471  0.00  0.00    +0.000 A 
ATOM     10  C   UNL     1       0.048  10.429  18.886  0.00  0.00    +0.000 A 
BRANCH   5  15
ATOM     11  C   UNL     1      -4.138  11.351  16.493  0.00  0.00    +0.000 C 
ATOM     12  C   UNL     1      -4.946  10.997  17.744  0.00  0.00    +0.000 C 
ATOM     13  C   UNL     1      -4.291  11.856  18.828  0.00  0.00    +0.000 C 
ATOM     14  N   UNL     1      -2.878  11.855  18.477  0.00  0.00    +0.000 N 
ATOM     15  C   UNL     1      -1.874  11.916  19.439  0.00  0.00    +0.000 C 
ATOM     16  O   UNL     1      -2.130  12.065  20.633  0.00  0.00    +0.000 OA
ATOM     17  C   UNL     1      -2.731  11.586  17.059  0.00  0.00    +0.000 C 
BRANCH  11  19
ATOM     18  C   UNL     1      -2.890  10.083  14.841  0.00  0.00    +0.000 C 
ATOM     19  N   UNL     1      -4.199  10.330  15.442  0.00  0.00    +0.000 NA
ATOM     20  H   UNL     1      -4.551   9.455  15.835  0.00  0.00    +0.000 HD
ENDBRANCH  11  19
ENDBRANCH   5  15
ENDBRANCH   1   9
BRANCH   3  21
ATOM     21  C   UNL     1       2.214   6.762  19.660  0.00  0.00    +0.000 A 
ATOM     22  C   UNL     1       1.764   5.983  20.727  0.00  0.00    +0.000 A 
ATOM     23  C   UNL     1       2.185   4.664  20.878  0.00  0.00    +0.000 A 
ATOM     24  C   UNL     1       3.062   4.104  19.958  0.00  0.00    +0.000 A 
ATOM     25  C   UNL     1       3.526   4.848  18.863  0.00  0.00    +0.000 A 
ATOM     26  C   UNL     1       3.088   6.182  18.722  0.00  0.00    +0.000 A 
BRANCH  25  27
ATOM     27  C   UNL     1       4.513   4.223  17.873  0.00  0.00    +0.000 C 
ATOM     28  C   UNL     1       3.960   2.876  17.376  0.00  0.00    +0.000 C 
BRANCH  27  29
ATOM     29  C   UNL     1       4.808   5.204  16.713  0.00  0.00    +0.000 C 
BRANCH  29  30
ATOM     30  C   UNL     1       5.903   6.179  16.999  0.00  0.00    +0.000 A 
ATOM     31  N   UNL     1       5.860   7.491  16.864  0.00  0.00    +0.000 NA
ATOM     32  N   UNL     1       7.068   8.007  17.271  0.00  0.00    +0.000 NA
ATOM     33  C   UNL     1       7.832   7.001  17.622  0.00  0.00    +0.000 A 
ATOM     34  N   UNL     1       7.152   5.836  17.455  0.00  0.00    +0.000 N 
ATOM     35  C   UNL     1       7.661   4.513  17.706  0.00  0.00    +0.000 C 
ENDBRANCH  29  30
ENDBRANCH  27  29
ENDBRANCH  25  27
ENDBRANCH   3  21
TORSDOF 7
ENDMDL
MODEL 9
REMARK VINA RESULT:      -8.5      1.038      1.645
REMARK  Name = 
REMARK  10 active torsions:
REMARK  status: ('A' for Active; 'I' for Inactive)
REMARK    1  A    between atoms: C_1  and  N_2
REMARK    2  A    between atoms: N_2  and  C_3
REMARK    3  A    between atoms: C_7  and  C_9
REMARK    4  A    between atoms: C_13  and  C_14
REMARK    5  A    between atoms: N_16  and  C_17
REMARK    6  A    between atoms: C_21  and  C_22
REMARK    7  A    between atoms: C_22  and  C_23
REMARK    8  A    between atoms: C_22  and  C_24
REMARK    9  A    between atoms: C_24  and  C_25
REMARK   10  A    between atoms: N_29  and  C_30
REMARK                            x       y       z     vdW  Elec       q    Type
REMARK                         _______ _______ _______ _____ _____    ______ ____
ROOT
ATOM      1  C   UNL     1       1.761   7.691  19.938  0.00  0.00    +0.000 C 
ATOM      2  O   UNL     1       1.715   8.416  18.952  0.00  0.00    +0.000 OA
ATOM      3  N   UNL     1       1.259   7.957  21.207  0.00  0.00    +0.000 N 
ATOM      4  H   UNL     1       1.402   7.214  21.888  0.00  0.00    +0.000 HD
ENDROOT
BRANCH   1   9
ATOM      5  C   UNL     1       4.396   5.034  19.418  0.00  0.00    +0.000 A 
ATOM      6  C   UNL     1       3.640   3.928  19.802  0.00  0.00    +0.000 A 
ATOM      7  C   UNL     1       2.294   4.087  20.088  0.00  0.00    +0.000 A 
ATOM      8  N   UNL     1       1.669   5.276  20.102  0.00  0.00    +0.000 NA
ATOM      9  C   UNL     1       2.439   6.363  19.816  0.00  0.00    +0.000 A 
ATOM     10  C   UNL     1       3.786   6.290  19.460  0.00  0.00    +0.000 A 
BRANCH   5  15
ATOM     11  C   UNL     1       6.070   3.855  15.393  0.00  0.00    +0.000 C 
ATOM     12  C   UNL     1       7.311   4.705  15.677  0.00  0.00    +0.000 C 
ATOM     13  C   UNL     1       7.510   4.527  17.184  0.00  0.00    +0.000 C 
ATOM     14  N   UNL     1       6.156   4.465  17.716  0.00  0.00    +0.000 N 
ATOM     15  C   UNL     1       5.833   4.951  18.980  0.00  0.00    +0.000 C 
ATOM     16  O   UNL     1       6.693   5.376  19.749  0.00  0.00    +0.000 OA
ATOM     17  C   UNL     1       5.245   4.029  16.676  0.00  0.00    +0.000 C 
BRANCH  11  19
ATOM     18  C   UNL     1       6.019   3.715  12.970  0.00  0.00    +0.000 C 
ATOM     19  N   UNL     1       5.362   4.236  14.167  0.00  0.00    +0.000 NA
ATOM     20  H   UNL     1       4.405   3.879  14.200  0.00  0.00    +0.000 HD
ENDBRANCH  11  19
ENDBRANCH   5  15
ENDBRANCH   1   9
BRANCH   3  21
ATOM     21  C   UNL     1       0.652   9.153  21.646  0.00  0.00    +0.000 A 
ATOM     22  C   UNL     1      -0.279   9.181  22.687  0.00  0.00    +0.000 A 
ATOM     23  C   UNL     1      -0.892  10.371  23.068  0.00  0.00    +0.000 A 
ATOM     24  C   UNL     1      -0.579  11.556  22.413  0.00  0.00    +0.000 A 
ATOM     25  C   UNL     1       0.363  11.575  21.373  0.00  0.00    +0.000 A 
ATOM     26  C   UNL     1       0.978  10.361  21.001  0.00  0.00    +0.000 A 
BRANCH  25  27
ATOM     27  C   UNL     1       0.677  12.884  20.646  0.00  0.00    +0.000 C 
ATOM     28  C   UNL     1       1.652  12.609  19.487  0.00  0.00    +0.000 C 
BRANCH  27  29
ATOM     29  C   UNL     1      -0.628  13.565  20.169  0.00  0.00    +0.000 C 
BRANCH  29  30
ATOM     30  C   UNL     1      -1.472  12.715  19.277  0.00  0.00    +0.000 A 
ATOM     31  N   UNL     1      -1.130  12.188  18.117  0.00  0.00    +0.000 NA
ATOM     32  N   UNL     1      -2.190  11.448  17.648  0.00  0.00    +0.000 NA
ATOM     33  C   UNL     1      -3.167  11.558  18.517  0.00  0.00    +0.000 A 
ATOM     34  N   UNL     1      -2.770  12.354  19.545  0.00  0.00    +0.000 N 
ATOM     35  C   UNL     1      -3.570  12.735  20.680  0.00  0.00    +0.000 C 
ENDBRANCH  29  30
ENDBRANCH  27  29
ENDBRANCH  25  27
ENDBRANCH   3  21
TORSDOF 7
ENDMDL
