MODEL 1
REMARK VINA RESULT:      -8.3      0.000      0.000
REMARK  Name = 
REMARK  7 active torsions:
REMARK  status: ('A' for Active; 'I' for Inactive)
REMARK    1  A    between atoms: C_1  and  C_2
REMARK    2  A    between atoms: C_2  and  S_3
REMARK    3  A    between atoms: C_2  and  C_10
REMARK    4  A    between atoms: S_3  and  C_4
REMARK    5  A    between atoms: N_8  and  C_9
REMARK    6  A    between atoms: C_14  and  N_15
REMARK    7  A    between atoms: N_18  and  C_19
REMARK                            x       y       z     vdW  Elec       q    Type
REMARK                         _______ _______ _______ _____ _____    ______ ____
ROOT
ATOM      1  C   UNL     1       4.694   5.306  17.373  0.00  0.00    +0.000 A 
ATOM      2  C   UNL     1       5.486   4.195  17.041  0.00  0.00    +0.000 A 
ATOM      3  C   UNL     1       6.840   4.344  16.751  0.00  0.00    +0.000 A 
ATOM      4  C   UNL     1       7.423   5.608  16.757  0.00  0.00    +0.000 A 
ATOM      5  C   UNL     1       6.661   6.747  17.045  0.00  0.00    +0.000 A 
ATOM      6  C   UNL     1       5.310   6.581  17.382  0.00  0.00    +0.000 A 
ENDROOT
BRANCH   5   7
ATOM      7  N   UNL     1       7.219   8.049  17.018  0.00  0.00    +0.000 N 
ATOM      8  C   UNL     1       8.131   8.533  17.944  0.00  0.00    +0.000 C 
ATOM      9  O   UNL     1       8.676   7.848  18.807  0.00  0.00    +0.000 OA
ATOM     10  N   UNL     1       8.345   9.895  17.804  0.00  0.00    +0.000 N 
ATOM     11  H   UNL     1       7.173   8.552  16.146  0.00  0.00    +0.000 HD
ATOM     12  H   UNL     1       7.529  10.414  17.514  0.00  0.00    +0.000 HD
BRANCH  10  13
ATOM     13  C   UNL     1       9.263  10.577  18.641  0.00  0.00    +0.000 A 
ATOM     14  C   UNL     1       9.049  10.694  20.019  0.00  0.00    +0.000 A 
ATOM     15  C   UNL     1       9.948  11.403  20.819  0.00  0.00    +0.000 A 
ATOM     16  C   UNL     1      11.058  12.013  20.242  0.00  0.00    +0.000 A 
ATOM     17  C   UNL     1      11.281  11.896  18.870  0.00  0.00    +0.000 A 
ATOM     18  C   UNL     1      10.398  11.159  18.073  0.00  0.00    +0.000 A 
ENDBRANCH  10  13
ENDBRANCH   5   7
BRANCH   1  20
ATOM     19  C   UNL     1       2.790   5.821  19.032  0.00  0.00    +0.000 C 
ATOM     20  C   UNL     1       3.202   5.171  17.700  0.00  0.00    +0.000 C 
BRANCH  20  21
ATOM     21  S   UNL     1       2.754   3.385  17.722  0.00  0.00    +0.000 S 
BRANCH  21  22
ATOM     22  C   UNL     1       2.984   2.955  19.377  0.00  0.00    +0.000 A 
ATOM     23  N   UNL     1       4.101   2.595  19.966  0.00  0.00    +0.000 NA
ATOM     24  N   UNL     1       3.801   2.301  21.280  0.00  0.00    +0.000 NA
ATOM     25  C   UNL     1       2.516   2.506  21.452  0.00  0.00    +0.000 A 
ATOM     26  N   UNL     1       1.963   2.932  20.281  0.00  0.00    +0.000 N 
ATOM     27  C   UNL     1       0.582   3.267  20.064  0.00  0.00    +0.000 C 
ENDBRANCH  21  22
ENDBRANCH  20  21
ENDBRANCH   1  20
TORSDOF 5
ENDMDL
MODEL 2
REMARK VINA RESULT:      -8.1      0.912      1.410
REMARK  Name = 
REMARK  7 active torsions:
REMARK  status: ('A' for Active; 'I' for Inactive)
REMARK    1  A    between atoms: C_1  and  C_2
REMARK    2  A    between atoms: C_2  and  S_3
REMARK    3  A    between atoms: C_2  and  C_10
REMARK    4  A    between atoms: S_3  and  C_4
REMARK    5  A    between atoms: N_8  and  C_9
REMARK    6  A    between atoms: C_14  and  N_15
REMARK    7  A    between atoms: N_18  and  C_19
REMARK                            x       y       z     vdW  Elec       q    Type
REMARK                         _______ _______ _______ _____ _____    ______ ____
ROOT
ATOM      1  C   UNL     1       5.057   5.003  17.742  0.00  0.00    +0.000 A 
ATOM      2  C   UNL     1       5.650   4.094  16.850  0.00  0.00    +0.000 A 
ATOM      3  C   UNL     1       6.734   4.470  16.061  0.00  0.00    +0.000 A 
ATOM      4  C   UNL     1       7.229   5.769  16.123  0.00  0.00    +0.000 A 
ATOM      5  C   UNL     1       6.643   6.719  16.970  0.00  0.00    +0.000 A 
ATOM      6  C   UNL     1       5.583   6.317  17.795  0.00  0.00    +0.000 A 
ENDROOT
BRANCH   5   7
ATOM      7  N   UNL     1       7.100   8.059  17.024  0.00  0.00    +0.000 N 
ATOM      8  C   UNL     1       8.075   8.524  17.895  0.00  0.00    +0.000 C 
ATOM      9  O   UNL     1       8.762   7.804  18.616  0.00  0.00    +0.000 OA
ATOM     10  N   UNL     1       8.174   9.905  17.879  0.00  0.00    +0.000 N 
ATOM     11  H   UNL     1       6.920   8.640  16.221  0.00  0.00    +0.000 HD
ATOM     12  H   UNL     1       7.296  10.382  17.735  0.00  0.00    +0.000 HD
BRANCH  10  13
ATOM     13  C   UNL     1       9.131  10.575  18.682  0.00  0.00    +0.000 A 
ATOM     14  C   UNL     1      10.365  10.981  18.164  0.00  0.00    +0.000 A 
ATOM     15  C   UNL     1      11.309  11.606  18.984  0.00  0.00    +0.000 A 
ATOM     16  C   UNL     1      11.028  11.812  20.331  0.00  0.00    +0.000 A 
ATOM     17  C   UNL     1       9.798  11.413  20.855  0.00  0.00    +0.000 A 
ATOM     18  C   UNL     1       8.840  10.817  20.026  0.00  0.00    +0.000 A 
ENDBRANCH  10  13
ENDBRANCH   5   7
BRANCH   1  20
ATOM     19  C   UNL     1       3.547   5.635  19.732  0.00  0.00    +0.000 C 
ATOM     20  C   UNL     1       3.865   4.615  18.624  0.00  0.00    +0.000 C 
BRANCH  20  21
ATOM     21  S   UNL     1       4.191   2.967  19.379  0.00  0.00    +0.000 S 
BRANCH  21  22
ATOM     22  C   UNL     1       2.883   2.793  20.492  0.00  0.00    +0.000 A 
ATOM     23  N   UNL     1       2.947   2.718  21.801  0.00  0.00    +0.000 NA
ATOM     24  N   UNL     1       1.662   2.538  22.270  0.00  0.00    +0.000 NA
ATOM     25  C   UNL     1       0.857   2.525  21.232  0.00  0.00    +0.000 A 
ATOM     26  N   UNL     1       1.583   2.695  20.091  0.00  0.00    +0.000 N 
ATOM     27  C   UNL     1       1.064   2.744  18.751  0.00  0.00    +0.000 C 
ENDBRANCH  21  22
ENDBRANCH  20  21
ENDBRANCH   1  20
TORSDOF 5
ENDMDL
MODEL 3
REMARK VINA RESULT:      -8.1      1.012      1.137
REMARK  Name = 
REMARK  7 active torsions:
REMARK  status: ('A' for Active; 'I' for Inactive)
REMARK    1  A    between atoms: C_1  and  C_2
REMARK    2  A    between atoms: C_2  and  S_3
REMARK    3  A    between atoms: C_2  and  C_10
REMARK    4  A    between atoms: S_3  and  C_4
REMARK    5  A    between atoms: N_8  and  C_9
REMARK    6  A    between atoms: C_14  and  N_15
REMARK    7  A    between atoms: N_18  and  C_19
REMARK                            x       y       z     vdW  Elec       q    Type
REMARK                         _______ _______ _______ _____ _____    ______ ____
ROOT
ATOM      1  C   UNL     1       4.501   5.602  17.601  0.00  0.00    +0.000 A 
ATOM      2  C   UNL     1       5.157   4.473  17.084  0.00  0.00    +0.000 A 
ATOM      3  C   UNL     1       6.457   4.565  16.591  0.00  0.00    +0.000 A 
ATOM      4  C   UNL     1       7.115   5.790  16.576  0.00  0.00    +0.000 A 
ATOM      5  C   UNL     1       6.484   6.949  17.046  0.00  0.00    +0.000 A 
ATOM      6  C   UNL     1       5.195   6.837  17.585  0.00  0.00    +0.000 A 
ENDROOT
BRANCH   5   7
ATOM      7  N   UNL     1       7.116   8.216  17.005  0.00  0.00    +0.000 N 
ATOM      8  C   UNL     1       8.079   8.645  17.907  0.00  0.00    +0.000 C 
ATOM      9  O   UNL     1       8.606   7.928  18.754  0.00  0.00    +0.000 OA
ATOM     10  N   UNL     1       8.368   9.992  17.762  0.00  0.00    +0.000 N 
ATOM     11  H   UNL     1       7.076   8.724  16.135  0.00  0.00    +0.000 HD
ATOM     12  H   UNL     1       7.576  10.559  17.494  0.00  0.00    +0.000 HD
BRANCH  10  13
ATOM     13  C   UNL     1       9.346  10.618  18.575  0.00  0.00    +0.000 A 
ATOM     14  C   UNL     1       9.183  10.731  19.959  0.00  0.00    +0.000 A 
ATOM     15  C   UNL     1      10.142  11.385  20.737  0.00  0.00    +0.000 A 
ATOM     16  C   UNL     1      11.263  11.945  20.129  0.00  0.00    +0.000 A 
ATOM     17  C   UNL     1      11.435  11.832  18.749  0.00  0.00    +0.000 A 
ATOM     18  C   UNL     1      10.490  11.149  17.974  0.00  0.00    +0.000 A 
ENDBRANCH  10  13
ENDBRANCH   5   7
BRANCH   1  20
ATOM     19  C   UNL     1       2.317   6.868  18.116  0.00  0.00    +0.000 C 
ATOM     20  C   UNL     1       3.073   5.529  18.154  0.00  0.00    +0.000 C 
BRANCH  20  21
ATOM     21  S   UNL     1       3.132   4.904  19.885  0.00  0.00    +0.000 S 
BRANCH  21  22
ATOM     22  C   UNL     1       3.675   3.278  19.683  0.00  0.00    +0.000 A 
ATOM     23  N   UNL     1       4.821   2.761  20.062  0.00  0.00    +0.000 NA
ATOM     24  N   UNL     1       4.837   1.443  19.653  0.00  0.00    +0.000 NA
ATOM     25  C   UNL     1       3.695   1.198  19.053  0.00  0.00    +0.000 A 
ATOM     26  N   UNL     1       2.926   2.322  19.061  0.00  0.00    +0.000 N 
ATOM     27  C   UNL     1       1.606   2.456  18.507  0.00  0.00    +0.000 C 
ENDBRANCH  21  22
ENDBRANCH  20  21
ENDBRANCH   1  20
TORSDOF 5
ENDMDL
MODEL 4
REMARK VINA RESULT:      -8.1      1.100      1.787
REMARK  Name = 
REMARK  7 active torsions:
REMARK  status: ('A' for Active; 'I' for Inactive)
REMARK    1  A    between atoms: C_1  and  C_2
REMARK    2  A    between atoms: C_2  and  S_3
REMARK    3  A    between atoms: C_2  and  C_10
REMARK    4  A    between atoms: S_3  and  C_4
REMARK    5  A    between atoms: N_8  and  C_9
REMARK    6  A    between atoms: C_14  and  N_15
REMARK    7  A    between atoms: N_18  and  C_19
REMARK                            x       y       z     vdW  Elec       q    Type
REMARK                         _______ _______ _______ _____ _____    ______ ____
ROOT
ATOM      1  C   UNL     1       4.689   5.324  17.195  0.00  0.00    +0.000 A 
ATOM      2  C   UNL     1       5.141   4.801  15.973  0.00  0.00    +0.000 A 
ATOM      3  C   UNL     1       6.466   4.960  15.572  0.00  0.00    +0.000 A 
ATOM      4  C   UNL     1       7.357   5.671  16.370  0.00  0.00    +0.000 A 
ATOM      5  C   UNL     1       6.939   6.243  17.578  0.00  0.00    +0.000 A 
ATOM      6  C   UNL     1       5.617   6.035  17.995  0.00  0.00    +0.000 A 
ENDROOT
BRANCH   5   7
ATOM      7  N   UNL     1       7.815   7.005  18.390  0.00  0.00    +0.000 N 
ATOM      8  C   UNL     1       8.016   8.372  18.262  0.00  0.00    +0.000 C 
ATOM      9  O   UNL     1       7.352   9.107  17.534  0.00  0.00    +0.000 OA
ATOM     10  N   UNL     1       9.074   8.819  19.036  0.00  0.00    +0.000 N 
ATOM     11  H   UNL     1       8.094   6.604  19.271  0.00  0.00    +0.000 HD
ATOM     12  H   UNL     1       9.833   8.159  19.120  0.00  0.00    +0.000 HD
BRANCH  10  13
ATOM     13  C   UNL     1       9.425  10.192  19.063  0.00  0.00    +0.000 A 
ATOM     14  C   UNL     1       9.875  10.855  17.917  0.00  0.00    +0.000 A 
ATOM     15  C   UNL     1      10.253  12.200  17.975  0.00  0.00    +0.000 A 
ATOM     16  C   UNL     1      10.197  12.883  19.187  0.00  0.00    +0.000 A 
ATOM     17  C   UNL     1       9.745  12.229  20.334  0.00  0.00    +0.000 A 
ATOM     18  C   UNL     1       9.337  10.892  20.268  0.00  0.00    +0.000 A 
ENDBRANCH  10  13
ENDBRANCH   5   7
BRANCH   1  20
ATOM     19  C   UNL     1       2.946   5.789  19.035  0.00  0.00    +0.000 C 
ATOM     20  C   UNL     1       3.237   5.160  17.661  0.00  0.00    +0.000 C 
BRANCH  20  21
ATOM     21  S   UNL     1       2.821   3.367  17.704  0.00  0.00    +0.000 S 
BRANCH  21  22
ATOM     22  C   UNL     1       2.289   3.139  19.330  0.00  0.00    +0.000 A 
ATOM     23  N   UNL     1       1.105   3.406  19.832  0.00  0.00    +0.000 NA
ATOM     24  N   UNL     1       1.150   3.107  21.179  0.00  0.00    +0.000 NA
ATOM     25  C   UNL     1       2.353   2.653  21.448  0.00  0.00    +0.000 A 
ATOM     26  N   UNL     1       3.100   2.644  20.309  0.00  0.00    +0.000 N 
ATOM     27  C   UNL     1       4.466   2.211  20.190  0.00  0.00    +0.000 C 
ENDBRANCH  21  22
ENDBRANCH  20  21
ENDBRANCH   1  20
TORSDOF 5
ENDMDL
MODEL 5
REMARK VINA RESULT:      -8.0      1.176      1.605
REMARK  Name = 
REMARK  7 active torsions:
REMARK  status: ('A' for Active; 'I' for Inactive)
REMARK    1  A    between atoms: C_1  and  C_2
REMARK    2  A    between atoms: C_2  and  S_3
REMARK    3  A    between atoms: C_2  and  C_10
REMARK    4  A    between atoms: S_3  and  C_4
REMARK    5  A    between atoms: N_8  and  C_9
REMARK    6  A    between atoms: C_14  and  N_15
REMARK    7  A    between atoms: N_18  and  C_19
REMARK                            x       y       z     vdW  Elec       q    Type
REMARK                         _______ _______ _______ _____ _____    ______ ____
ROOT
ATOM      1  C   UNL     1       4.697   5.073  17.111  0.00  0.00    +0.000 A 
ATOM      2  C   UNL     1       5.204   4.405  15.984  0.00  0.00    +0.000 A 
ATOM      3  C   UNL     1       6.558   4.468  15.665  0.00  0.00    +0.000 A 
ATOM      4  C   UNL     1       7.428   5.222  16.446  0.00  0.00    +0.000 A 
ATOM      5  C   UNL     1       6.958   5.935  17.556  0.00  0.00    +0.000 A 
ATOM      6  C   UNL     1       5.603   5.827  17.897  0.00  0.00    +0.000 A 
ENDROOT
BRANCH   5   7
ATOM      7  N   UNL     1       7.813   6.743  18.345  0.00  0.00    +0.000 N 
ATOM      8  C   UNL     1       7.911   8.123  18.238  0.00  0.00    +0.000 C 
ATOM      9  O   UNL     1       7.165   8.822  17.556  0.00  0.00    +0.000 OA
ATOM     10  N   UNL     1       8.969   8.631  18.975  0.00  0.00    +0.000 N 
ATOM     11  H   UNL     1       8.160   6.347  19.204  0.00  0.00    +0.000 HD
ATOM     12  H   UNL     1       9.776   8.025  19.012  0.00  0.00    +0.000 HD
BRANCH  10  13
ATOM     13  C   UNL     1       9.223  10.024  19.017  0.00  0.00    +0.000 A 
ATOM     14  C   UNL     1       9.332  10.711  20.231  0.00  0.00    +0.000 A 
ATOM     15  C   UNL     1       9.545  12.092  20.249  0.00  0.00    +0.000 A 
ATOM     16  C   UNL     1       9.634  12.796  19.051  0.00  0.00    +0.000 A 
ATOM     17  C   UNL     1       9.532  12.116  17.836  0.00  0.00    +0.000 A 
ATOM     18  C   UNL     1       9.351  10.728  17.818  0.00  0.00    +0.000 A 
ENDBRANCH  10  13
ENDBRANCH   5   7
BRANCH   1  20
ATOM     19  C   UNL     1       2.882   5.683  18.835  0.00  0.00    +0.000 C 
ATOM     20  C   UNL     1       3.212   5.019  17.488  0.00  0.00    +0.000 C 
BRANCH  20  21
ATOM     21  S   UNL     1       2.666   3.260  17.518  0.00  0.00    +0.000 S 
BRANCH  21  22
ATOM     22  C   UNL     1       2.182   3.040  19.160  0.00  0.00    +0.000 A 
ATOM     23  N   UNL     1       0.983   3.198  19.671  0.00  0.00    +0.000 NA
ATOM     24  N   UNL     1       1.076   2.959  21.027  0.00  0.00    +0.000 NA
ATOM     25  C   UNL     1       2.324   2.648  21.293  0.00  0.00    +0.000 A 
ATOM     26  N   UNL     1       3.053   2.674  20.143  0.00  0.00    +0.000 N 
ATOM     27  C   UNL     1       4.457   2.385  20.017  0.00  0.00    +0.000 C 
ENDBRANCH  21  22
ENDBRANCH  20  21
ENDBRANCH   1  20
TORSDOF 5
ENDMDL
MODEL 6
REMARK VINA RESULT:      -7.9      1.705      2.224
REMARK  Name = 
REMARK  7 active torsions:
REMARK  status: ('A' for Active; 'I' for Inactive)
REMARK    1  A    between atoms: C_1  and  C_2
REMARK    2  A    between atoms: C_2  and  S_3
REMARK    3  A    between atoms: C_2  and  C_10
REMARK    4  A    between atoms: S_3  and  C_4
REMARK    5  A    between atoms: N_8  and  C_9
REMARK    6  A    between atoms: C_14  and  N_15
REMARK    7  A    between atoms: N_18  and  C_19
REMARK                            x       y       z     vdW  Elec       q    Type
REMARK                         _______ _______ _______ _____ _____    ______ ____
ROOT
ATOM      1  C   UNL     1       5.210   4.075  17.067  0.00  0.00    +0.000 A 
ATOM      2  C   UNL     1       5.388   4.168  15.678  0.00  0.00    +0.000 A 
ATOM      3  C   UNL     1       6.364   5.002  15.136  0.00  0.00    +0.000 A 
ATOM      4  C   UNL     1       7.159   5.782  15.970  0.00  0.00    +0.000 A 
ATOM      5  C   UNL     1       6.988   5.750  17.359  0.00  0.00    +0.000 A 
ATOM      6  C   UNL     1       6.037   4.871  17.897  0.00  0.00    +0.000 A 
ENDROOT
BRANCH   5   7
ATOM      7  N   UNL     1       7.755   6.564  18.229  0.00  0.00    +0.000 N 
ATOM      8  C   UNL     1       7.892   7.938  18.103  0.00  0.00    +0.000 C 
ATOM      9  O   UNL     1       7.249   8.632  17.319  0.00  0.00    +0.000 OA
ATOM     10  N   UNL     1       8.862   8.447  18.953  0.00  0.00    +0.000 N 
ATOM     11  H   UNL     1       7.986   6.183  19.133  0.00  0.00    +0.000 HD
ATOM     12  H   UNL     1       9.646   7.829  19.102  0.00  0.00    +0.000 HD
BRANCH  10  13
ATOM     13  C   UNL     1       9.136   9.837  18.994  0.00  0.00    +0.000 A 
ATOM     14  C   UNL     1       9.353  10.575  17.826  0.00  0.00    +0.000 A 
ATOM     15  C   UNL     1       9.660  11.936  17.892  0.00  0.00    +0.000 A 
ATOM     16  C   UNL     1       9.766  12.563  19.130  0.00  0.00    +0.000 A 
ATOM     17  C   UNL     1       9.545  11.835  20.300  0.00  0.00    +0.000 A 
ATOM     18  C   UNL     1       9.207  10.479  20.232  0.00  0.00    +0.000 A 
ENDBRANCH  10  13
ENDBRANCH   5   7
BRANCH   1  20
ATOM     19  C   UNL     1       2.708   3.483  17.248  0.00  0.00    +0.000 C 
ATOM     20  C   UNL     1       4.146   3.162  17.690  0.00  0.00    +0.000 C 
BRANCH  20  21
ATOM     21  S   UNL     1       4.265   3.271  19.525  0.00  0.00    +0.000 S 
BRANCH  21  22
ATOM     22  C   UNL     1       3.138   4.521  19.906  0.00  0.00    +0.000 A 
ATOM     23  N   UNL     1       3.231   5.800  19.624  0.00  0.00    +0.000 NA
ATOM     24  N   UNL     1       2.124   6.425  20.161  0.00  0.00    +0.000 NA
ATOM     25  C   UNL     1       1.387   5.504  20.738  0.00  0.00    +0.000 A 
ATOM     26  N   UNL     1       1.981   4.287  20.590  0.00  0.00    +0.000 N 
ATOM     27  C   UNL     1       1.481   3.029  21.077  0.00  0.00    +0.000 C 
ENDBRANCH  21  22
ENDBRANCH  20  21
ENDBRANCH   1  20
TORSDOF 5
ENDMDL
MODEL 7
REMARK VINA RESULT:      -7.8      3.465      4.770
REMARK  Name = 
REMARK  7 active torsions:
REMARK  status: ('A' for Active; 'I' for Inactive)
REMARK    1  A    between atoms: C_1  and  C_2
REMARK    2  A    between atoms: C_2  and  S_3
REMARK    3  A    between atoms: C_2  and  C_10
REMARK    4  A    between atoms: S_3  and  C_4
REMARK    5  A    between atoms: N_8  and  C_9
REMARK    6  A    between atoms: C_14  and  N_15
REMARK    7  A    between atoms: N_18  and  C_19
REMARK                            x       y       z     vdW  Elec       q    Type
REMARK                         _______ _______ _______ _____ _____    ______ ____
ROOT
ATOM      1  C   UNL     1       6.249   5.936  17.336  0.00  0.00    +0.000 A 
ATOM      2  C   UNL     1       6.913   5.195  18.328  0.00  0.00    +0.000 A 
ATOM      3  C   UNL     1       7.920   5.772  19.098  0.00  0.00    +0.000 A 
ATOM      4  C   UNL     1       8.305   7.090  18.874  0.00  0.00    +0.000 A 
ATOM      5  C   UNL     1       7.696   7.853  17.869  0.00  0.00    +0.000 A 
ATOM      6  C   UNL     1       6.651   7.278  17.132  0.00  0.00    +0.000 A 
ENDROOT
BRANCH   5   7
ATOM      7  N   UNL     1       8.096   9.184  17.592  0.00  0.00    +0.000 N 
ATOM      8  C   UNL     1       8.807   9.991  18.468  0.00  0.00    +0.000 C 
ATOM      9  O   UNL     1       9.304   9.602  19.522  0.00  0.00    +0.000 OA
ATOM     10  N   UNL     1       8.878  11.303  18.030  0.00  0.00    +0.000 N 
ATOM     11  H   UNL     1       8.112   9.468  16.625  0.00  0.00    +0.000 HD
ATOM     12  H   UNL     1       8.055  11.620  17.538  0.00  0.00    +0.000 HD
BRANCH  10  13
ATOM     13  C   UNL     1       9.585  12.281  18.773  0.00  0.00    +0.000 A 
ATOM     14  C   UNL     1      10.969  12.195  18.964  0.00  0.00    +0.000 A 
ATOM     15  C   UNL     1      11.640  13.150  19.733  0.00  0.00    +0.000 A 
ATOM     16  C   UNL     1      10.927  14.186  20.328  0.00  0.00    +0.000 A 
ATOM     17  C   UNL     1       9.548  14.282  20.137  0.00  0.00    +0.000 A 
ATOM     18  C   UNL     1       8.880  13.343  19.341  0.00  0.00    +0.000 A 
ENDBRANCH  10  13
ENDBRANCH   5   7
BRANCH   1  20
ATOM     19  C   UNL     1       3.876   4.935  17.267  0.00  0.00    +0.000 C 
ATOM     20  C   UNL     1       5.136   5.326  16.476  0.00  0.00    +0.000 C 
BRANCH  20  21
ATOM     21  S   UNL     1       5.798   3.848  15.600  0.00  0.00    +0.000 S 
BRANCH  21  22
ATOM     22  C   UNL     1       6.788   4.545  14.371  0.00  0.00    +0.000 A 
ATOM     23  N   UNL     1       7.744   5.433  14.518  0.00  0.00    +0.000 NA
ATOM     24  N   UNL     1       8.229   5.733  13.260  0.00  0.00    +0.000 NA
ATOM     25  C   UNL     1       7.562   5.006  12.393  0.00  0.00    +0.000 A 
ATOM     26  N   UNL     1       6.653   4.233  13.050  0.00  0.00    +0.000 N 
ATOM     27  C   UNL     1       5.739   3.298  12.452  0.00  0.00    +0.000 C 
ENDBRANCH  21  22
ENDBRANCH  20  21
ENDBRANCH   1  20
TORSDOF 5
ENDMDL
MODEL 8
REMARK VINA RESULT:      -7.8      2.609      3.439
REMARK  Name = 
REMARK  7 active torsions:
REMARK  status: ('A' for Active; 'I' for Inactive)
REMARK    1  A    between atoms: C_1  and  C_2
REMARK    2  A    between atoms: C_2  and  S_3
REMARK    3  A    between atoms: C_2  and  C_10
REMARK    4  A    between atoms: S_3  and  C_4
REMARK    5  A    between atoms: N_8  and  C_9
REMARK    6  A    between atoms: C_14  and  N_15
REMARK    7  A    between atoms: N_18  and  C_19
REMARK                            x       y       z     vdW  Elec       q    Type
REMARK                         _______ _______ _______ _____ _____    ______ ____
ROOT
ATOM      1  C   UNL     1       4.506   5.864  17.888  0.00  0.00    +0.000 A 
ATOM      2  C   UNL     1       5.124   4.649  17.551  0.00  0.00    +0.000 A 
ATOM      3  C   UNL     1       6.447   4.617  17.115  0.00  0.00    +0.000 A 
ATOM      4  C   UNL     1       7.168   5.798  16.979  0.00  0.00    +0.000 A 
ATOM      5  C   UNL     1       6.578   7.035  17.267  0.00  0.00    +0.000 A 
ATOM      6  C   UNL     1       5.262   7.053  17.751  0.00  0.00    +0.000 A 
ENDROOT
BRANCH   5   7
ATOM      7  N   UNL     1       7.276   8.257  17.098  0.00  0.00    +0.000 N 
ATOM      8  C   UNL     1       8.209   8.760  17.993  0.00  0.00    +0.000 C 
ATOM      9  O   UNL     1       8.651   8.140  18.958  0.00  0.00    +0.000 OA
ATOM     10  N   UNL     1       8.576  10.061  17.690  0.00  0.00    +0.000 N 
ATOM     11  H   UNL     1       7.311   8.644  16.169  0.00  0.00    +0.000 HD
ATOM     12  H   UNL     1       7.830  10.621  17.302  0.00  0.00    +0.000 HD
BRANCH  10  13
ATOM     13  C   UNL     1       9.539  10.746  18.471  0.00  0.00    +0.000 A 
ATOM     14  C   UNL     1      10.742  11.199  17.918  0.00  0.00    +0.000 A 
ATOM     15  C   UNL     1      11.695  11.838  18.716  0.00  0.00    +0.000 A 
ATOM     16  C   UNL     1      11.455  12.014  20.076  0.00  0.00    +0.000 A 
ATOM     17  C   UNL     1      10.255  11.570  20.634  0.00  0.00    +0.000 A 
ATOM     18  C   UNL     1       9.288  10.958  19.829  0.00  0.00    +0.000 A 
ENDBRANCH  10  13
ENDBRANCH   5   7
BRANCH   1  20
ATOM     19  C   UNL     1       2.152   4.819  17.805  0.00  0.00    +0.000 C 
ATOM     20  C   UNL     1       3.052   5.929  18.373  0.00  0.00    +0.000 C 
BRANCH  20  21
ATOM     21  S   UNL     1       2.350   7.575  17.939  0.00  0.00    +0.000 S 
BRANCH  21  22
ATOM     22  C   UNL     1       1.768   8.153  19.458  0.00  0.00    +0.000 A 
ATOM     23  N   UNL     1       1.866   7.569  20.630  0.00  0.00    +0.000 NA
ATOM     24  N   UNL     1       1.220   8.372  21.549  0.00  0.00    +0.000 NA
ATOM     25  C   UNL     1       0.763   9.423  20.908  0.00  0.00    +0.000 A 
ATOM     26  N   UNL     1       1.097   9.333  19.590  0.00  0.00    +0.000 N 
ATOM     27  C   UNL     1       0.783  10.291  18.564  0.00  0.00    +0.000 C 
ENDBRANCH  21  22
ENDBRANCH  20  21
ENDBRANCH   1  20
TORSDOF 5
ENDMDL
MODEL 9
REMARK VINA RESULT:      -7.8      1.988      2.803
REMARK  Name = 
REMARK  7 active torsions:
REMARK  status: ('A' for Active; 'I' for Inactive)
REMARK    1  A    between atoms: C_1  and  C_2
REMARK    2  A    between atoms: C_2  and  S_3
REMARK    3  A    between atoms: C_2  and  C_10
REMARK    4  A    between atoms: S_3  and  C_4
REMARK    5  A    between atoms: N_8  and  C_9
REMARK    6  A    between atoms: C_14  and  N_15
REMARK    7  A    between atoms: N_18  and  C_19
REMARK                            x       y       z     vdW  Elec       q    Type
REMARK                         _______ _______ _______ _____ _____    ______ ____
ROOT
ATOM      1  C   UNL     1       5.024   5.047  18.005  0.00  0.00    +0.000 A 
ATOM      2  C   UNL     1       5.532   4.075  17.128  0.00  0.00    +0.000 A 
ATOM      3  C   UNL     1       6.587   4.368  16.267  0.00  0.00    +0.000 A 
ATOM      4  C   UNL     1       7.136   5.647  16.244  0.00  0.00    +0.000 A 
ATOM      5  C   UNL     1       6.635   6.657  17.074  0.00  0.00    +0.000 A 
ATOM      6  C   UNL     1       5.605   6.338  17.970  0.00  0.00    +0.000 A 
ENDROOT
BRANCH   5   7
ATOM      7  N   UNL     1       7.148   7.977  17.042  0.00  0.00    +0.000 N 
ATOM      8  C   UNL     1       8.102   8.472  17.919  0.00  0.00    +0.000 C 
ATOM      9  O   UNL     1       8.724   7.787  18.728  0.00  0.00    +0.000 OA
ATOM     10  N   UNL     1       8.263   9.843  17.797  0.00  0.00    +0.000 N 
ATOM     11  H   UNL     1       7.029   8.498  16.188  0.00  0.00    +0.000 HD
ATOM     12  H   UNL     1       7.414  10.341  17.573  0.00  0.00    +0.000 HD
BRANCH  10  13
ATOM     13  C   UNL     1       9.212  10.537  18.589  0.00  0.00    +0.000 A 
ATOM     14  C   UNL     1       9.063  10.652  19.976  0.00  0.00    +0.000 A 
ATOM     15  C   UNL     1       9.991  11.373  20.732  0.00  0.00    +0.000 A 
ATOM     16  C   UNL     1      11.064  11.997  20.102  0.00  0.00    +0.000 A 
ATOM     17  C   UNL     1      11.222  11.882  18.720  0.00  0.00    +0.000 A 
ATOM     18  C   UNL     1      10.310  11.133  17.967  0.00  0.00    +0.000 A 
ENDBRANCH  10  13
ENDBRANCH   5   7
BRANCH   1  20
ATOM     19  C   UNL     1       3.649   3.252  19.241  0.00  0.00    +0.000 C 
ATOM     20  C   UNL     1       3.866   4.750  18.964  0.00  0.00    +0.000 C 
BRANCH  20  21
ATOM     21  S   UNL     1       2.320   5.479  18.279  0.00  0.00    +0.000 S 
BRANCH  21  22
ATOM     22  C   UNL     1       1.952   6.727  19.414  0.00  0.00    +0.000 A 
ATOM     23  N   UNL     1       1.623   6.591  20.678  0.00  0.00    +0.000 NA
ATOM     24  N   UNL     1       1.374   7.853  21.180  0.00  0.00    +0.000 NA
ATOM     25  C   UNL     1       1.575   8.714  20.209  0.00  0.00    +0.000 A 
ATOM     26  N   UNL     1       1.953   8.049  19.082  0.00  0.00    +0.000 N 
ATOM     27  C   UNL     1       2.269   8.641  17.810  0.00  0.00    +0.000 C 
ENDBRANCH  21  22
ENDBRANCH  20  21
ENDBRANCH   1  20
TORSDOF 5
ENDMDL
