MODEL 1
REMARK VINA RESULT:      -8.7      0.000      0.000
REMARK  Name = 
REMARK  10 active torsions:
REMARK  status: ('A' for Active; 'I' for Inactive)
REMARK    1  A    between atoms: C_1  and  C_2
REMARK    2  A    between atoms: C_2  and  C_3
REMARK    3  A    between atoms: C_2  and  N_32
REMARK    4  A    between atoms: C_5  and  C_6
REMARK    5  A    between atoms: N_8  and  C_9
REMARK    6  A    between atoms: C_13  and  C_14
REMARK    7  A    between atoms: C_14  and  C_15
REMARK    8  A    between atoms: C_15  and  C_16
REMARK    9  A    between atoms: N_20  and  C_21
REMARK   10  A    between atoms: C_27  and  C_28
REMARK                            x       y       z     vdW  Elec       q    Type
REMARK                         _______ _______ _______ _____ _____    ______ ____
ROOT
ATOM      1  C   UNL     1       2.339   8.252  17.990  0.00  0.00    +0.000 C 
ATOM      2  O   UNL     1       2.636   8.751  16.905  0.00  0.00    +0.000 OA
ATOM      3  N   UNL     1       1.391   8.715  18.879  0.00  0.00    +0.000 N 
ATOM      4  H   UNL     1       1.383   8.262  19.795  0.00  0.00    +0.000 HD
ENDROOT
BRANCH   1   7
ATOM      5  C   UNL     1       4.994   5.740  18.431  0.00  0.00    +0.000 A 
ATOM      6  C   UNL     1       4.348   6.846  17.955  0.00  0.00    +0.000 A 
ATOM      7  C   UNL     1       3.087   7.053  18.448  0.00  0.00    +0.000 A 
ATOM      8  N   UNL     1       2.460   6.250  19.342  0.00  0.00    +0.000 NA
ATOM      9  C   UNL     1       3.156   5.186  19.755  0.00  0.00    +0.000 A 
ATOM     10  N   UNL     1       4.409   4.909  19.332  0.00  0.00    +0.000 NA
BRANCH   9  11
ATOM     11  C   UNL     1       2.511   4.240  20.735  0.00  0.00    +0.000 C 
ATOM     12  C   UNL     1       1.028   3.955  20.646  0.00  0.00    +0.000 C 
ATOM     13  C   UNL     1       2.013   2.887  20.273  0.00  0.00    +0.000 C 
ENDBRANCH   9  11
BRANCH   5  15
ATOM     14  C   UNL     1       7.126   6.786  17.616  0.00  0.00    +0.000 C 
ATOM     15  C   UNL     1       6.435   5.467  17.990  0.00  0.00    +0.000 C 
BRANCH  15  16
ATOM     16  N   UNL     1       6.507   4.338  17.032  0.00  0.00    +0.000 NA
ATOM     17  C   UNL     1       7.349   4.592  15.859  0.00  0.00    +0.000 C 
ATOM     18  C   UNL     1       6.410   5.150  14.806  0.00  0.00    +0.000 C 
ATOM     19  C   UNL     1       5.106   4.418  15.068  0.00  0.00    +0.000 C 
ATOM     20  C   UNL     1       5.220   3.881  16.492  0.00  0.00    +0.000 C 
ENDBRANCH  15  16
ENDBRANCH   5  15
ENDBRANCH   1   7
BRANCH   3  21
ATOM     21  C   UNL     1       0.581   9.843  18.680  0.00  0.00    +0.000 A 
ATOM     22  C   UNL     1       0.879  11.083  19.248  0.00  0.00    +0.000 A 
ATOM     23  C   UNL     1       0.037  12.168  19.052  0.00  0.00    +0.000 A 
ATOM     24  C   UNL     1      -1.127  12.009  18.311  0.00  0.00    +0.000 A 
ATOM     25  C   UNL     1      -1.488  10.766  17.748  0.00  0.00    +0.000 A 
ATOM     26  C   UNL     1      -0.573   9.705  17.909  0.00  0.00    +0.000 A 
BRANCH  25  27
ATOM     27  C   UNL     1      -2.903  10.556  17.033  0.00  0.00    +0.000 C 
ATOM     28  C   UNL     1      -3.345  11.537  15.904  0.00  0.00    +0.000 C 
ATOM     29  O   UNL     1      -3.750  10.413  15.067  0.00  0.00    +0.000 OA
ATOM     30  C   UNL     1      -2.855   9.561  15.826  0.00  0.00    +0.000 C 
BRANCH  27  31
ATOM     31  C   UNL     1      -4.018  10.256  18.055  0.00  0.00    +0.000 C 
BRANCH  31  32
ATOM     32  C   UNL     1      -5.032  11.353  18.188  0.00  0.00    +0.000 A 
ATOM     33  N   UNL     1      -6.128  11.491  17.466  0.00  0.00    +0.000 NA
ATOM     34  N   UNL     1      -6.793  12.619  17.892  0.00  0.00    +0.000 NA
ATOM     35  C   UNL     1      -6.092  13.145  18.868  0.00  0.00    +0.000 A 
ATOM     36  N   UNL     1      -4.990  12.380  19.099  0.00  0.00    +0.000 N 
ATOM     37  C   UNL     1      -4.004  12.638  20.111  0.00  0.00    +0.000 C 
ENDBRANCH  31  32
ENDBRANCH  27  31
ENDBRANCH  25  27
ENDBRANCH   3  21
TORSDOF 8
ENDMDL
MODEL 2
REMARK VINA RESULT:      -8.7      2.730      5.092
REMARK  Name = 
REMARK  10 active torsions:
REMARK  status: ('A' for Active; 'I' for Inactive)
REMARK    1  A    between atoms: C_1  and  C_2
REMARK    2  A    between atoms: C_2  and  C_3
REMARK    3  A    between atoms: C_2  and  N_32
REMARK    4  A    between atoms: C_5  and  C_6
REMARK    5  A    between atoms: N_8  and  C_9
REMARK    6  A    between atoms: C_13  and  C_14
REMARK    7  A    between atoms: C_14  and  C_15
REMARK    8  A    between atoms: C_15  and  C_16
REMARK    9  A    between atoms: N_20  and  C_21
REMARK   10  A    between atoms: C_27  and  C_28
REMARK                            x       y       z     vdW  Elec       q    Type
REMARK                         _______ _______ _______ _____ _____    ______ ____
ROOT
ATOM      1  C   UNL     1       2.142   9.006  17.834  0.00  0.00    +0.000 C 
ATOM      2  O   UNL     1       2.598  10.013  17.293  0.00  0.00    +0.000 OA
ATOM      3  N   UNL     1       0.926   8.894  18.477  0.00  0.00    +0.000 N 
ATOM      4  H   UNL     1       0.777   8.025  18.996  0.00  0.00    +0.000 HD
ENDROOT
BRANCH   1   7
ATOM      5  C   UNL     1       3.202   5.505  18.250  0.00  0.00    +0.000 A 
ATOM      6  C   UNL     1       2.393   6.607  18.272  0.00  0.00    +0.000 A 
ATOM      7  C   UNL     1       2.973   7.775  17.858  0.00  0.00    +0.000 A 
ATOM      8  N   UNL     1       4.260   7.903  17.449  0.00  0.00    +0.000 NA
ATOM      9  C   UNL     1       4.987   6.782  17.462  0.00  0.00    +0.000 A 
ATOM     10  N   UNL     1       4.495   5.583  17.843  0.00  0.00    +0.000 NA
BRANCH   9  11
ATOM     11  C   UNL     1       6.431   6.855  17.037  0.00  0.00    +0.000 C 
ATOM     12  C   UNL     1       7.310   7.980  17.539  0.00  0.00    +0.000 C 
ATOM     13  C   UNL     1       7.534   6.583  18.038  0.00  0.00    +0.000 C 
ENDBRANCH   9  11
BRANCH   5  15
ATOM     14  C   UNL     1       2.318   3.329  17.359  0.00  0.00    +0.000 C 
ATOM     15  C   UNL     1       2.619   4.140  18.628  0.00  0.00    +0.000 C 
BRANCH  15  16
ATOM     16  N   UNL     1       1.553   4.267  19.651  0.00  0.00    +0.000 NA
ATOM     17  C   UNL     1       2.017   4.771  20.948  0.00  0.00    +0.000 C 
ATOM     18  C   UNL     1       2.356   3.533  21.758  0.00  0.00    +0.000 C 
ATOM     19  C   UNL     1       1.335   2.512  21.293  0.00  0.00    +0.000 C 
ATOM     20  C   UNL     1       0.816   3.035  19.956  0.00  0.00    +0.000 C 
ENDBRANCH  15  16
ENDBRANCH   5  15
ENDBRANCH   1   7
BRANCH   3  21
ATOM     21  C   UNL     1      -0.016   9.925  18.608  0.00  0.00    +0.000 A 
ATOM     22  C   UNL     1      -1.053  10.105  17.691  0.00  0.00    +0.000 A 
ATOM     23  C   UNL     1      -1.948  11.155  17.838  0.00  0.00    +0.000 A 
ATOM     24  C   UNL     1      -1.790  12.050  18.888  0.00  0.00    +0.000 A 
ATOM     25  C   UNL     1      -0.735  11.930  19.818  0.00  0.00    +0.000 A 
ATOM     26  C   UNL     1       0.111  10.811  19.678  0.00  0.00    +0.000 A 
BRANCH  25  27
ATOM     27  C   UNL     1      -0.469  13.052  20.926  0.00  0.00    +0.000 C 
ATOM     28  C   UNL     1       0.768  13.991  20.784  0.00  0.00    +0.000 C 
ATOM     29  O   UNL     1      -0.064  15.154  21.077  0.00  0.00    +0.000 OA
ATOM     30  C   UNL     1      -1.224  14.395  20.654  0.00  0.00    +0.000 C 
BRANCH  27  31
ATOM     31  C   UNL     1      -0.658  12.499  22.353  0.00  0.00    +0.000 C 
BRANCH  31  32
ATOM     32  C   UNL     1      -2.029  12.723  22.917  0.00  0.00    +0.000 A 
ATOM     33  N   UNL     1      -3.105  12.005  22.655  0.00  0.00    +0.000 NA
ATOM     34  N   UNL     1      -4.162  12.529  23.366  0.00  0.00    +0.000 NA
ATOM     35  C   UNL     1      -3.710  13.553  24.050  0.00  0.00    +0.000 A 
ATOM     36  N   UNL     1      -2.378  13.704  23.813  0.00  0.00    +0.000 N 
ATOM     37  C   UNL     1      -1.543  14.710  24.409  0.00  0.00    +0.000 C 
ENDBRANCH  31  32
ENDBRANCH  27  31
ENDBRANCH  25  27
ENDBRANCH   3  21
TORSDOF 8
ENDMDL
MODEL 3
REMARK VINA RESULT:      -8.7      3.090      4.956
REMARK  Name = 
REMARK  10 active torsions:
REMARK  status: ('A' for Active; 'I' for Inactive)
REMARK    1  A    between atoms: C_1  and  C_2
REMARK    2  A    between atoms: C_2  and  C_3
REMARK    3  A    between atoms: C_2  and  N_32
REMARK    4  A    between atoms: C_5  and  C_6
REMARK    5  A    between atoms: N_8  and  C_9
REMARK    6  A    between atoms: C_13  and  C_14
REMARK    7  A    between atoms: C_14  and  C_15
REMARK    8  A    between atoms: C_15  and  C_16
REMARK    9  A    between atoms: N_20  and  C_21
REMARK   10  A    between atoms: C_27  and  C_28
REMARK                            x       y       z     vdW  Elec       q    Type
REMARK                         _______ _______ _______ _____ _____    ______ ____
ROOT
ATOM      1  C   UNL     1       2.176   8.462  18.187  0.00  0.00    +0.000 C 
ATOM      2  O   UNL     1       2.367   8.968  17.081  0.00  0.00    +0.000 OA
ATOM      3  N   UNL     1       1.365   8.953  19.190  0.00  0.00    +0.000 N 
ATOM      4  H   UNL     1       1.443   8.481  20.094  0.00  0.00    +0.000 HD
ENDROOT
BRANCH   1   7
ATOM      5  C   UNL     1       4.780   5.865  18.351  0.00  0.00    +0.000 A 
ATOM      6  C   UNL     1       4.144   7.015  17.975  0.00  0.00    +0.000 A 
ATOM      7  C   UNL     1       2.911   7.219  18.534  0.00  0.00    +0.000 A 
ATOM      8  N   UNL     1       2.300   6.374  19.401  0.00  0.00    +0.000 NA
ATOM      9  C   UNL     1       2.984   5.269  19.714  0.00  0.00    +0.000 A 
ATOM     10  N   UNL     1       4.211   4.992  19.221  0.00  0.00    +0.000 NA
BRANCH   9  11
ATOM     11  C   UNL     1       2.357   4.277  20.659  0.00  0.00    +0.000 C 
ATOM     12  C   UNL     1       0.900   3.900  20.500  0.00  0.00    +0.000 C 
ATOM     13  C   UNL     1       1.966   2.899  20.167  0.00  0.00    +0.000 C 
ENDBRANCH   9  11
BRANCH   5  15
ATOM     14  C   UNL     1       6.809   6.879  17.274  0.00  0.00    +0.000 C 
ATOM     15  C   UNL     1       6.194   5.588  17.831  0.00  0.00    +0.000 C 
BRANCH  15  16
ATOM     16  N   UNL     1       6.236   4.368  16.991  0.00  0.00    +0.000 NA
ATOM     17  C   UNL     1       7.358   4.321  16.048  0.00  0.00    +0.000 C 
ATOM     18  C   UNL     1       6.826   4.932  14.765  0.00  0.00    +0.000 C 
ATOM     19  C   UNL     1       5.371   4.503  14.742  0.00  0.00    +0.000 C 
ATOM     20  C   UNL     1       5.038   4.114  16.180  0.00  0.00    +0.000 C 
ENDBRANCH  15  16
ENDBRANCH   5  15
ENDBRANCH   1   7
BRANCH   3  21
ATOM     21  C   UNL     1       0.596  10.123  19.106  0.00  0.00    +0.000 A 
ATOM     22  C   UNL     1      -0.554  10.202  18.317  0.00  0.00    +0.000 A 
ATOM     23  C   UNL     1      -1.272  11.386  18.237  0.00  0.00    +0.000 A 
ATOM     24  C   UNL     1      -0.825  12.509  18.922  0.00  0.00    +0.000 A 
ATOM     25  C   UNL     1       0.352  12.487  19.702  0.00  0.00    +0.000 A 
ATOM     26  C   UNL     1       1.015  11.247  19.816  0.00  0.00    +0.000 A 
BRANCH  25  27
ATOM     27  C   UNL     1       0.943  13.820  20.356  0.00  0.00    +0.000 C 
ATOM     28  C   UNL     1       0.560  14.191  21.822  0.00  0.00    +0.000 C 
ATOM     29  O   UNL     1       1.957  14.476  22.129  0.00  0.00    +0.000 OA
ATOM     30  C   UNL     1       2.345  13.626  21.021  0.00  0.00    +0.000 C 
BRANCH  27  31
ATOM     31  C   UNL     1       0.864  15.015  19.382  0.00  0.00    +0.000 C 
BRANCH  31  32
ATOM     32  C   UNL     1       2.180  15.382  18.763  0.00  0.00    +0.000 A 
ATOM     33  N   UNL     1       2.783  14.741  17.780  0.00  0.00    +0.000 NA
ATOM     34  N   UNL     1       3.965  15.388  17.497  0.00  0.00    +0.000 NA
ATOM     35  C   UNL     1       4.058  16.414  18.309  0.00  0.00    +0.000 A 
ATOM     36  N   UNL     1       2.958  16.459  19.110  0.00  0.00    +0.000 N 
ATOM     37  C   UNL     1       2.705  17.461  20.108  0.00  0.00    +0.000 C 
ENDBRANCH  31  32
ENDBRANCH  27  31
ENDBRANCH  25  27
ENDBRANCH   3  21
TORSDOF 8
ENDMDL
MODEL 4
REMARK VINA RESULT:      -8.6      1.884      2.775
REMARK  Name = 
REMARK  10 active torsions:
REMARK  status: ('A' for Active; 'I' for Inactive)
REMARK    1  A    between atoms: C_1  and  C_2
REMARK    2  A    between atoms: C_2  and  C_3
REMARK    3  A    between atoms: C_2  and  N_32
REMARK    4  A    between atoms: C_5  and  C_6
REMARK    5  A    between atoms: N_8  and  C_9
REMARK    6  A    between atoms: C_13  and  C_14
REMARK    7  A    between atoms: C_14  and  C_15
REMARK    8  A    between atoms: C_15  and  C_16
REMARK    9  A    between atoms: N_20  and  C_21
REMARK   10  A    between atoms: C_27  and  C_28
REMARK                            x       y       z     vdW  Elec       q    Type
REMARK                         _______ _______ _______ _____ _____    ______ ____
ROOT
ATOM      1  C   UNL     1       2.276   7.489  19.480  0.00  0.00    +0.000 C 
ATOM      2  O   UNL     1       2.361   8.298  18.556  0.00  0.00    +0.000 OA
ATOM      3  N   UNL     1       1.619   7.673  20.679  0.00  0.00    +0.000 N 
ATOM      4  H   UNL     1       1.779   6.952  21.387  0.00  0.00    +0.000 HD
ENDROOT
BRANCH   1   7
ATOM      5  C   UNL     1       4.653   4.884  18.423  0.00  0.00    +0.000 A 
ATOM      6  C   UNL     1       4.035   6.102  18.483  0.00  0.00    +0.000 A 
ATOM      7  C   UNL     1       2.977   6.186  19.348  0.00  0.00    +0.000 A 
ATOM      8  N   UNL     1       2.516   5.168  20.116  0.00  0.00    +0.000 NA
ATOM      9  C   UNL     1       3.170   4.008  19.996  0.00  0.00    +0.000 A 
ATOM     10  N   UNL     1       4.231   3.837  19.177  0.00  0.00    +0.000 NA
BRANCH   9  11
ATOM     11  C   UNL     1       2.700   2.829  20.806  0.00  0.00    +0.000 C 
ATOM     12  C   UNL     1       1.467   2.952  21.674  0.00  0.00    +0.000 C 
ATOM     13  C   UNL     1       1.421   2.110  20.434  0.00  0.00    +0.000 C 
ENDBRANCH   9  11
BRANCH   5  15
ATOM     14  C   UNL     1       7.159   5.026  18.343  0.00  0.00    +0.000 C 
ATOM     15  C   UNL     1       5.891   4.716  17.536  0.00  0.00    +0.000 C 
BRANCH  15  16
ATOM     16  N   UNL     1       5.713   5.378  16.221  0.00  0.00    +0.000 NA
ATOM     17  C   UNL     1       4.984   4.575  15.234  0.00  0.00    +0.000 C 
ATOM     18  C   UNL     1       6.052   3.815  14.470  0.00  0.00    +0.000 C 
ATOM     19  C   UNL     1       7.221   4.783  14.433  0.00  0.00    +0.000 C 
ATOM     20  C   UNL     1       6.950   5.791  15.547  0.00  0.00    +0.000 C 
ENDBRANCH  15  16
ENDBRANCH   5  15
ENDBRANCH   1   7
BRANCH   3  21
ATOM     21  C   UNL     1       0.912   8.828  21.043  0.00  0.00    +0.000 A 
ATOM     22  C   UNL     1       0.456   9.041  22.346  0.00  0.00    +0.000 A 
ATOM     23  C   UNL     1      -0.267  10.183  22.660  0.00  0.00    +0.000 A 
ATOM     24  C   UNL     1      -0.564  11.104  21.663  0.00  0.00    +0.000 A 
ATOM     25  C   UNL     1      -0.156  10.913  20.326  0.00  0.00    +0.000 A 
ATOM     26  C   UNL     1       0.636   9.777  20.059  0.00  0.00    +0.000 A 
BRANCH  25  27
ATOM     27  C   UNL     1      -0.637  11.895  19.160  0.00  0.00    +0.000 C 
ATOM     28  C   UNL     1      -1.312  13.252  19.530  0.00  0.00    +0.000 C 
ATOM     29  O   UNL     1      -0.471  13.950  18.563  0.00  0.00    +0.000 OA
ATOM     30  C   UNL     1       0.483  12.861  18.650  0.00  0.00    +0.000 C 
BRANCH  27  31
ATOM     31  C   UNL     1      -1.372  11.132  18.039  0.00  0.00    +0.000 C 
BRANCH  31  32
ATOM     32  C   UNL     1      -2.842  11.423  17.968  0.00  0.00    +0.000 A 
ATOM     33  N   UNL     1      -3.607  11.815  18.969  0.00  0.00    +0.000 NA
ATOM     34  N   UNL     1      -4.892  11.975  18.500  0.00  0.00    +0.000 NA
ATOM     35  C   UNL     1      -4.885  11.682  17.221  0.00  0.00    +0.000 A 
ATOM     36  N   UNL     1      -3.622  11.344  16.840  0.00  0.00    +0.000 N 
ATOM     37  C   UNL     1      -3.231  10.985  15.505  0.00  0.00    +0.000 C 
ENDBRANCH  31  32
ENDBRANCH  27  31
ENDBRANCH  25  27
ENDBRANCH   3  21
TORSDOF 8
ENDMDL
MODEL 5
REMARK VINA RESULT:      -8.6      2.602      4.851
REMARK  Name = 
REMARK  10 active torsions:
REMARK  status: ('A' for Active; 'I' for Inactive)
REMARK    1  A    between atoms: C_1  and  C_2
REMARK    2  A    between atoms: C_2  and  C_3
REMARK    3  A    between atoms: C_2  and  N_32
REMARK    4  A    between atoms: C_5  and  C_6
REMARK    5  A    between atoms: N_8  and  C_9
REMARK    6  A    between atoms: C_13  and  C_14
REMARK    7  A    between atoms: C_14  and  C_15
REMARK    8  A    between atoms: C_15  and  C_16
REMARK    9  A    between atoms: N_20  and  C_21
REMARK   10  A    between atoms: C_27  and  C_28
REMARK                            x       y       z     vdW  Elec       q    Type
REMARK                         _______ _______ _______ _____ _____    ______ ____
ROOT
ATOM      1  C   UNL     1       1.780   9.263  18.018  0.00  0.00    +0.000 C 
ATOM      2  O   UNL     1       2.222  10.311  17.546  0.00  0.00    +0.000 OA
ATOM      3  N   UNL     1       0.537   9.074  18.587  0.00  0.00    +0.000 N 
ATOM      4  H   UNL     1       0.398   8.178  19.060  0.00  0.00    +0.000 HD
ENDROOT
BRANCH   1   7
ATOM      5  C   UNL     1       3.295   6.046  18.971  0.00  0.00    +0.000 A 
ATOM      6  C   UNL     1       2.470   7.135  19.021  0.00  0.00    +0.000 A 
ATOM      7  C   UNL     1       2.661   8.067  18.037  0.00  0.00    +0.000 A 
ATOM      8  N   UNL     1       3.593   7.983  17.056  0.00  0.00    +0.000 NA
ATOM      9  C   UNL     1       4.364   6.892  17.079  0.00  0.00    +0.000 A 
ATOM     10  N   UNL     1       4.239   5.915  18.004  0.00  0.00    +0.000 NA
BRANCH   9  11
ATOM     11  C   UNL     1       5.434   6.743  16.028  0.00  0.00    +0.000 C 
ATOM     12  C   UNL     1       6.503   5.684  16.184  0.00  0.00    +0.000 C 
ATOM     13  C   UNL     1       5.451   5.528  15.126  0.00  0.00    +0.000 C 
ENDBRANCH   9  11
BRANCH   5  15
ATOM     14  C   UNL     1       4.197   3.853  19.797  0.00  0.00    +0.000 C 
ATOM     15  C   UNL     1       3.107   4.917  19.989  0.00  0.00    +0.000 C 
BRANCH  15  16
ATOM     16  N   UNL     1       1.694   4.473  20.056  0.00  0.00    +0.000 NA
ATOM     17  C   UNL     1       1.395   3.574  21.175  0.00  0.00    +0.000 C 
ATOM     18  C   UNL     1       1.589   2.173  20.624  0.00  0.00    +0.000 C 
ATOM     19  C   UNL     1       1.142   2.294  19.178  0.00  0.00    +0.000 C 
ATOM     20  C   UNL     1       1.187   3.786  18.861  0.00  0.00    +0.000 C 
ENDBRANCH  15  16
ENDBRANCH   5  15
ENDBRANCH   1   7
BRANCH   3  21
ATOM     21  C   UNL     1      -0.453  10.059  18.708  0.00  0.00    +0.000 A 
ATOM     22  C   UNL     1      -1.274  10.424  17.639  0.00  0.00    +0.000 A 
ATOM     23  C   UNL     1      -2.224  11.424  17.790  0.00  0.00    +0.000 A 
ATOM     24  C   UNL     1      -2.335  12.088  19.005  0.00  0.00    +0.000 A 
ATOM     25  C   UNL     1      -1.503  11.779  20.102  0.00  0.00    +0.000 A 
ATOM     26  C   UNL     1      -0.599  10.710  19.933  0.00  0.00    +0.000 A 
BRANCH  25  27
ATOM     27  C   UNL     1      -1.531  12.652  21.441  0.00  0.00    +0.000 C 
ATOM     28  C   UNL     1      -1.359  11.947  22.821  0.00  0.00    +0.000 C 
ATOM     29  O   UNL     1      -0.391  12.958  23.233  0.00  0.00    +0.000 OA
ATOM     30  C   UNL     1      -0.138  13.245  21.835  0.00  0.00    +0.000 C 
BRANCH  27  31
ATOM     31  C   UNL     1      -2.675  13.687  21.422  0.00  0.00    +0.000 C 
BRANCH  31  32
ATOM     32  C   UNL     1      -3.864  13.296  22.247  0.00  0.00    +0.000 A 
ATOM     33  N   UNL     1      -4.780  12.403  21.919  0.00  0.00    +0.000 NA
ATOM     34  N   UNL     1      -5.703  12.330  22.938  0.00  0.00    +0.000 NA
ATOM     35  C   UNL     1      -5.330  13.175  23.870  0.00  0.00    +0.000 A 
ATOM     36  N   UNL     1      -4.177  13.791  23.489  0.00  0.00    +0.000 N 
ATOM     37  C   UNL     1      -3.465  14.764  24.271  0.00  0.00    +0.000 C 
ENDBRANCH  31  32
ENDBRANCH  27  31
ENDBRANCH  25  27
ENDBRANCH   3  21
TORSDOF 8
ENDMDL
MODEL 6
REMARK VINA RESULT:      -8.6      3.015      4.127
REMARK  Name = 
REMARK  10 active torsions:
REMARK  status: ('A' for Active; 'I' for Inactive)
REMARK    1  A    between atoms: C_1  and  C_2
REMARK    2  A    between atoms: C_2  and  C_3
REMARK    3  A    between atoms: C_2  and  N_32
REMARK    4  A    between atoms: C_5  and  C_6
REMARK    5  A    between atoms: N_8  and  C_9
REMARK    6  A    between atoms: C_13  and  C_14
REMARK    7  A    between atoms: C_14  and  C_15
REMARK    8  A    between atoms: C_15  and  C_16
REMARK    9  A    between atoms: N_20  and  C_21
REMARK   10  A    between atoms: C_27  and  C_28
REMARK                            x       y       z     vdW  Elec       q    Type
REMARK                         _______ _______ _______ _____ _____    ______ ____
ROOT
ATOM      1  C   UNL     1       1.583   8.237  19.636  0.00  0.00    +0.000 C 
ATOM      2  O   UNL     1       1.213   8.432  20.794  0.00  0.00    +0.000 OA
ATOM      3  N   UNL     1       1.281   9.009  18.532  0.00  0.00    +0.000 N 
ATOM      4  H   UNL     1       1.551   8.614  17.629  0.00  0.00    +0.000 HD
ENDROOT
BRANCH   1   7
ATOM      5  C   UNL     1       4.095   5.983  18.165  0.00  0.00    +0.000 A 
ATOM      6  C   UNL     1       3.356   7.116  18.368  0.00  0.00    +0.000 A 
ATOM      7  C   UNL     1       2.404   7.033  19.347  0.00  0.00    +0.000 A 
ATOM      8  N   UNL     1       2.151   5.931  20.096  0.00  0.00    +0.000 NA
ATOM      9  C   UNL     1       2.911   4.864  19.834  0.00  0.00    +0.000 A 
ATOM     10  N   UNL     1       3.882   4.858  18.894  0.00  0.00    +0.000 NA
BRANCH   9  11
ATOM     11  C   UNL     1       2.671   3.599  20.616  0.00  0.00    +0.000 C 
ATOM     12  C   UNL     1       1.318   3.342  21.241  0.00  0.00    +0.000 C 
ATOM     13  C   UNL     1       1.759   2.523  20.065  0.00  0.00    +0.000 C 
ENDBRANCH   9  11
BRANCH   5  15
ATOM     14  C   UNL     1       4.855   6.914  15.960  0.00  0.00    +0.000 C 
ATOM     15  C   UNL     1       5.232   6.004  17.139  0.00  0.00    +0.000 C 
BRANCH  15  16
ATOM     16  N   UNL     1       5.725   4.638  16.844  0.00  0.00    +0.000 NA
ATOM     17  C   UNL     1       7.160   4.564  16.550  0.00  0.00    +0.000 C 
ATOM     18  C   UNL     1       7.266   4.700  15.043  0.00  0.00    +0.000 C 
ATOM     19  C   UNL     1       6.016   4.005  14.533  0.00  0.00    +0.000 C 
ATOM     20  C   UNL     1       5.065   3.952  15.726  0.00  0.00    +0.000 C 
ENDBRANCH  15  16
ENDBRANCH   5  15
ENDBRANCH   1   7
BRANCH   3  21
ATOM     21  C   UNL     1       0.502  10.175  18.552  0.00  0.00    +0.000 A 
ATOM     22  C   UNL     1      -0.804  10.205  18.058  0.00  0.00    +0.000 A 
ATOM     23  C   UNL     1      -1.532  11.386  18.068  0.00  0.00    +0.000 A 
ATOM     24  C   UNL     1      -0.946  12.551  18.543  0.00  0.00    +0.000 A 
ATOM     25  C   UNL     1       0.383  12.577  19.018  0.00  0.00    +0.000 A 
ATOM     26  C   UNL     1       1.068  11.345  19.059  0.00  0.00    +0.000 A 
BRANCH  25  27
ATOM     27  C   UNL     1       1.100  13.950  19.414  0.00  0.00    +0.000 C 
ATOM     28  C   UNL     1       2.141  14.581  18.438  0.00  0.00    +0.000 C 
ATOM     29  O   UNL     1       1.513  15.889  18.592  0.00  0.00    +0.000 OA
ATOM     30  C   UNL     1       0.291  15.224  18.999  0.00  0.00    +0.000 C 
BRANCH  27  31
ATOM     31  C   UNL     1       1.563  13.948  20.885  0.00  0.00    +0.000 C 
BRANCH  31  32
ATOM     32  C   UNL     1       0.448  13.779  21.874  0.00  0.00    +0.000 A 
ATOM     33  N   UNL     1      -0.115  12.638  22.225  0.00  0.00    +0.000 NA
ATOM     34  N   UNL     1      -1.096  12.903  23.154  0.00  0.00    +0.000 NA
ATOM     35  C   UNL     1      -1.111  14.199  23.354  0.00  0.00    +0.000 A 
ATOM     36  N   UNL     1      -0.153  14.788  22.586  0.00  0.00    +0.000 N 
ATOM     37  C   UNL     1       0.136  16.195  22.563  0.00  0.00    +0.000 C 
ENDBRANCH  31  32
ENDBRANCH  27  31
ENDBRANCH  25  27
ENDBRANCH   3  21
TORSDOF 8
ENDMDL
MODEL 7
REMARK VINA RESULT:      -8.6      2.613      3.637
REMARK  Name = 
REMARK  10 active torsions:
REMARK  status: ('A' for Active; 'I' for Inactive)
REMARK    1  A    between atoms: C_1  and  C_2
REMARK    2  A    between atoms: C_2  and  C_3
REMARK    3  A    between atoms: C_2  and  N_32
REMARK    4  A    between atoms: C_5  and  C_6
REMARK    5  A    between atoms: N_8  and  C_9
REMARK    6  A    between atoms: C_13  and  C_14
REMARK    7  A    between atoms: C_14  and  C_15
REMARK    8  A    between atoms: C_15  and  C_16
REMARK    9  A    between atoms: N_20  and  C_21
REMARK   10  A    between atoms: C_27  and  C_28
REMARK                            x       y       z     vdW  Elec       q    Type
REMARK                         _______ _______ _______ _____ _____    ______ ____
ROOT
ATOM      1  C   UNL     1       1.543   9.223  18.526  0.00  0.00    +0.000 C 
ATOM      2  O   UNL     1       2.092  10.223  18.063  0.00  0.00    +0.000 OA
ATOM      3  N   UNL     1       0.258   9.142  19.022  0.00  0.00    +0.000 N 
ATOM      4  H   UNL     1       0.022   8.269  19.501  0.00  0.00    +0.000 HD
ENDROOT
BRANCH   1   7
ATOM      5  C   UNL     1       4.039   6.597  17.871  0.00  0.00    +0.000 A 
ATOM      6  C   UNL     1       3.340   7.762  17.721  0.00  0.00    +0.000 A 
ATOM      7  C   UNL     1       2.326   7.964  18.618  0.00  0.00    +0.000 A 
ATOM      8  N   UNL     1       1.979   7.103  19.607  0.00  0.00    +0.000 NA
ATOM      9  C   UNL     1       2.706   5.984  19.684  0.00  0.00    +0.000 A 
ATOM     10  N   UNL     1       3.732   5.707  18.850  0.00  0.00    +0.000 NA
BRANCH   9  11
ATOM     11  C   UNL     1       2.363   4.974  20.748  0.00  0.00    +0.000 C 
ATOM     12  C   UNL     1       1.114   4.131  20.615  0.00  0.00    +0.000 C 
ATOM     13  C   UNL     1       2.462   3.493  20.453  0.00  0.00    +0.000 C 
ENDBRANCH   9  11
BRANCH   5  15
ATOM     14  C   UNL     1       5.008   6.965  15.584  0.00  0.00    +0.000 C 
ATOM     15  C   UNL     1       5.237   6.319  16.958  0.00  0.00    +0.000 C 
BRANCH  15  16
ATOM     16  N   UNL     1       5.641   4.894  17.007  0.00  0.00    +0.000 NA
ATOM     17  C   UNL     1       7.078   4.665  16.828  0.00  0.00    +0.000 C 
ATOM     18  C   UNL     1       7.265   4.449  15.338  0.00  0.00    +0.000 C 
ATOM     19  C   UNL     1       5.992   3.736  14.919  0.00  0.00    +0.000 C 
ATOM     20  C   UNL     1       4.985   4.014  16.031  0.00  0.00    +0.000 C 
ENDBRANCH  15  16
ENDBRANCH   5  15
ENDBRANCH   1   7
BRANCH   3  21
ATOM     21  C   UNL     1      -0.658  10.202  19.067  0.00  0.00    +0.000 A 
ATOM     22  C   UNL     1      -1.409  10.584  17.953  0.00  0.00    +0.000 A 
ATOM     23  C   UNL     1      -2.284  11.658  18.028  0.00  0.00    +0.000 A 
ATOM     24  C   UNL     1      -2.389  12.376  19.212  0.00  0.00    +0.000 A 
ATOM     25  C   UNL     1      -1.624  12.051  20.352  0.00  0.00    +0.000 A 
ATOM     26  C   UNL     1      -0.799  10.911  20.260  0.00  0.00    +0.000 A 
BRANCH  25  27
ATOM     27  C   UNL     1      -1.635  12.978  21.655  0.00  0.00    +0.000 C 
ATOM     28  C   UNL     1      -1.372  12.338  23.053  0.00  0.00    +0.000 C 
ATOM     29  O   UNL     1      -0.434  13.408  23.381  0.00  0.00    +0.000 OA
ATOM     30  C   UNL     1      -0.254  13.646  21.962  0.00  0.00    +0.000 C 
BRANCH  27  31
ATOM     31  C   UNL     1      -2.824  13.960  21.645  0.00  0.00    +0.000 C 
BRANCH  31  32
ATOM     32  C   UNL     1      -4.028  13.465  22.390  0.00  0.00    +0.000 A 
ATOM     33  N   UNL     1      -4.842  12.502  22.002  0.00  0.00    +0.000 NA
ATOM     34  N   UNL     1      -5.821  12.346  22.958  0.00  0.00    +0.000 NA
ATOM     35  C   UNL     1      -5.582  13.213  23.913  0.00  0.00    +0.000 A 
ATOM     36  N   UNL     1      -4.462  13.926  23.609  0.00  0.00    +0.000 N 
ATOM     37  C   UNL     1      -3.886  14.949  24.437  0.00  0.00    +0.000 C 
ENDBRANCH  31  32
ENDBRANCH  27  31
ENDBRANCH  25  27
ENDBRANCH   3  21
TORSDOF 8
ENDMDL
MODEL 8
REMARK VINA RESULT:      -8.5      2.493      3.670
REMARK  Name = 
REMARK  10 active torsions:
REMARK  status: ('A' for Active; 'I' for Inactive)
REMARK    1  A    between atoms: C_1  and  C_2
REMARK    2  A    between atoms: C_2  and  C_3
REMARK    3  A    between atoms: C_2  and  N_32
REMARK    4  A    between atoms: C_5  and  C_6
REMARK    5  A    between atoms: N_8  and  C_9
REMARK    6  A    between atoms: C_13  and  C_14
REMARK    7  A    between atoms: C_14  and  C_15
REMARK    8  A    between atoms: C_15  and  C_16
REMARK    9  A    between atoms: N_20  and  C_21
REMARK   10  A    between atoms: C_27  and  C_28
REMARK                            x       y       z     vdW  Elec       q    Type
REMARK                         _______ _______ _______ _____ _____    ______ ____
ROOT
ATOM      1  C   UNL     1       2.202   7.635  19.496  0.00  0.00    +0.000 C 
ATOM      2  O   UNL     1       2.286   8.444  18.572  0.00  0.00    +0.000 OA
ATOM      3  N   UNL     1       1.514   7.804  20.680  0.00  0.00    +0.000 N 
ATOM      4  H   UNL     1       1.676   7.089  21.393  0.00  0.00    +0.000 HD
ENDROOT
BRANCH   1   7
ATOM      5  C   UNL     1       4.691   5.101  18.529  0.00  0.00    +0.000 A 
ATOM      6  C   UNL     1       4.041   6.303  18.573  0.00  0.00    +0.000 A 
ATOM      7  C   UNL     1       2.939   6.351  19.383  0.00  0.00    +0.000 A 
ATOM      8  N   UNL     1       2.464   5.311  20.113  0.00  0.00    +0.000 NA
ATOM      9  C   UNL     1       3.151   4.169  20.011  0.00  0.00    +0.000 A 
ATOM     10  N   UNL     1       4.256   4.034  19.246  0.00  0.00    +0.000 NA
BRANCH   9  11
ATOM     11  C   UNL     1       2.668   2.967  20.781  0.00  0.00    +0.000 C 
ATOM     12  C   UNL     1       1.338   3.016  21.501  0.00  0.00    +0.000 C 
ATOM     13  C   UNL     1       1.489   2.163  20.276  0.00  0.00    +0.000 C 
ENDBRANCH   9  11
BRANCH   5  15
ATOM     14  C   UNL     1       7.178   5.452  18.532  0.00  0.00    +0.000 C 
ATOM     15  C   UNL     1       5.976   4.974  17.704  0.00  0.00    +0.000 C 
BRANCH  15  16
ATOM     16  N   UNL     1       5.802   5.519  16.336  0.00  0.00    +0.000 NA
ATOM     17  C   UNL     1       5.001   4.673  15.445  0.00  0.00    +0.000 C 
ATOM     18  C   UNL     1       6.003   3.781  14.736  0.00  0.00    +0.000 C 
ATOM     19  C   UNL     1       7.224   4.669  14.582  0.00  0.00    +0.000 C 
ATOM     20  C   UNL     1       7.042   5.792  15.599  0.00  0.00    +0.000 C 
ENDBRANCH  15  16
ENDBRANCH   5  15
ENDBRANCH   1   7
BRANCH   3  21
ATOM     21  C   UNL     1       0.768   8.941  21.025  0.00  0.00    +0.000 A 
ATOM     22  C   UNL     1       0.583   9.334  22.352  0.00  0.00    +0.000 A 
ATOM     23  C   UNL     1      -0.186  10.449  22.654  0.00  0.00    +0.000 A 
ATOM     24  C   UNL     1      -0.801  11.158  21.631  0.00  0.00    +0.000 A 
ATOM     25  C   UNL     1      -0.672  10.777  20.278  0.00  0.00    +0.000 A 
ATOM     26  C   UNL     1       0.174   9.682  20.004  0.00  0.00    +0.000 A 
BRANCH  25  27
ATOM     27  C   UNL     1      -1.508  11.503  19.125  0.00  0.00    +0.000 C 
ATOM     28  C   UNL     1      -2.562  10.688  18.313  0.00  0.00    +0.000 C 
ATOM     29  O   UNL     1      -3.537  11.761  18.475  0.00  0.00    +0.000 OA
ATOM     30  C   UNL     1      -2.803  12.214  19.640  0.00  0.00    +0.000 C 
BRANCH  27  31
ATOM     31  C   UNL     1      -0.608  12.391  18.241  0.00  0.00    +0.000 C 
BRANCH  31  32
ATOM     32  C   UNL     1       0.284  13.314  19.016  0.00  0.00    +0.000 A 
ATOM     33  N   UNL     1      -0.109  14.263  19.845  0.00  0.00    +0.000 NA
ATOM     34  N   UNL     1       1.007  14.886  20.356  0.00  0.00    +0.000 NA
ATOM     35  C   UNL     1       2.060  14.303  19.833  0.00  0.00    +0.000 A 
ATOM     36  N   UNL     1       1.658  13.304  19.000  0.00  0.00    +0.000 N 
ATOM     37  C   UNL     1       2.538  12.434  18.270  0.00  0.00    +0.000 C 
ENDBRANCH  31  32
ENDBRANCH  27  31
ENDBRANCH  25  27
ENDBRANCH   3  21
TORSDOF 8
ENDMDL
MODEL 9
REMARK VINA RESULT:      -8.5      3.816      5.069
REMARK  Name = 
REMARK  10 active torsions:
REMARK  status: ('A' for Active; 'I' for Inactive)
REMARK    1  A    between atoms: C_1  and  C_2
REMARK    2  A    between atoms: C_2  and  C_3
REMARK    3  A    between atoms: C_2  and  N_32
REMARK    4  A    between atoms: C_5  and  C_6
REMARK    5  A    between atoms: N_8  and  C_9
REMARK    6  A    between atoms: C_13  and  C_14
REMARK    7  A    between atoms: C_14  and  C_15
REMARK    8  A    between atoms: C_15  and  C_16
REMARK    9  A    between atoms: N_20  and  C_21
REMARK   10  A    between atoms: C_27  and  C_28
REMARK                            x       y       z     vdW  Elec       q    Type
REMARK                         _______ _______ _______ _____ _____    ______ ____
ROOT
ATOM      1  C   UNL     1       1.614   8.195  19.794  0.00  0.00    +0.000 C 
ATOM      2  O   UNL     1       1.289   8.945  18.873  0.00  0.00    +0.000 OA
ATOM      3  N   UNL     1       1.343   8.371  21.136  0.00  0.00    +0.000 N 
ATOM      4  H   UNL     1       1.818   7.726  21.772  0.00  0.00    +0.000 HD
ENDROOT
BRANCH   1   7
ATOM      5  C   UNL     1       4.095   5.949  18.261  0.00  0.00    +0.000 A 
ATOM      6  C   UNL     1       3.369   7.084  18.491  0.00  0.00    +0.000 A 
ATOM      7  C   UNL     1       2.422   6.990  19.475  0.00  0.00    +0.000 A 
ATOM      8  N   UNL     1       2.164   5.875  20.204  0.00  0.00    +0.000 NA
ATOM      9  C   UNL     1       2.912   4.807  19.914  0.00  0.00    +0.000 A 
ATOM     10  N   UNL     1       3.877   4.811  18.968  0.00  0.00    +0.000 NA
BRANCH   9  11
ATOM     11  C   UNL     1       2.666   3.528  20.672  0.00  0.00    +0.000 C 
ATOM     12  C   UNL     1       1.306   3.259  21.277  0.00  0.00    +0.000 C 
ATOM     13  C   UNL     1       1.762   2.460  20.093  0.00  0.00    +0.000 C 
ENDBRANCH   9  11
BRANCH   5  15
ATOM     14  C   UNL     1       4.851   6.922  16.073  0.00  0.00    +0.000 C 
ATOM     15  C   UNL     1       5.225   5.981  17.227  0.00  0.00    +0.000 C 
BRANCH  15  16
ATOM     16  N   UNL     1       5.701   4.616  16.897  0.00  0.00    +0.000 NA
ATOM     17  C   UNL     1       7.138   4.526  16.622  0.00  0.00    +0.000 C 
ATOM     18  C   UNL     1       7.269   4.707  15.121  0.00  0.00    +0.000 C 
ATOM     19  C   UNL     1       6.016   4.050  14.572  0.00  0.00    +0.000 C 
ATOM     20  C   UNL     1       5.046   3.977  15.748  0.00  0.00    +0.000 C 
ENDBRANCH  15  16
ENDBRANCH   5  15
ENDBRANCH   1   7
BRANCH   3  21
ATOM     21  C   UNL     1       0.623   9.444  21.680  0.00  0.00    +0.000 A 
ATOM     22  C   UNL     1      -0.288   9.275  22.724  0.00  0.00    +0.000 A 
ATOM     23  C   UNL     1      -1.004  10.358  23.216  0.00  0.00    +0.000 A 
ATOM     24  C   UNL     1      -0.834  11.611  22.643  0.00  0.00    +0.000 A 
ATOM     25  C   UNL     1       0.049  11.823  21.562  0.00  0.00    +0.000 A 
ATOM     26  C   UNL     1       0.810  10.715  21.136  0.00  0.00    +0.000 A 
BRANCH  25  27
ATOM     27  C   UNL     1       0.120  13.231  20.809  0.00  0.00    +0.000 C 
ATOM     28  C   UNL     1      -1.163  13.804  20.130  0.00  0.00    +0.000 C 
ATOM     29  O   UNL     1      -0.914  15.111  20.728  0.00  0.00    +0.000 OA
ATOM     30  C   UNL     1      -0.115  14.460  21.749  0.00  0.00    +0.000 C 
BRANCH  27  31
ATOM     31  C   UNL     1       1.380  13.343  19.926  0.00  0.00    +0.000 C 
BRANCH  31  32
ATOM     32  C   UNL     1       2.521  14.061  20.583  0.00  0.00    +0.000 A 
ATOM     33  N   UNL     1       3.296  13.582  21.538  0.00  0.00    +0.000 NA
ATOM     34  N   UNL     1       4.223  14.544  21.872  0.00  0.00    +0.000 NA
ATOM     35  C   UNL     1       3.999  15.589  21.112  0.00  0.00    +0.000 A 
ATOM     36  N   UNL     1       2.953  15.329  20.279  0.00  0.00    +0.000 N 
ATOM     37  C   UNL     1       2.441  16.236  19.290  0.00  0.00    +0.000 C 
ENDBRANCH  31  32
ENDBRANCH  27  31
ENDBRANCH  25  27
ENDBRANCH   3  21
TORSDOF 8
ENDMDL
