MODEL 1
REMARK VINA RESULT:     -10.0      0.000      0.000
REMARK  Name = 
REMARK  10 active torsions:
REMARK  status: ('A' for Active; 'I' for Inactive)
REMARK    1  A    between atoms: C_1  and  C_2
REMARK    2  A    between atoms: N_4  and  C_5
REMARK    3  A    between atoms: N_8  and  C_9
REMARK    4  A    between atoms: C_13  and  C_14
REMARK    5  A    between atoms: N_20  and  C_21
REMARK    6  A    between atoms: C_25  and  C_26
REMARK    7  A    between atoms: C_26  and  C_27
REMARK    8  A    between atoms: C_26  and  C_29
REMARK    9  A    between atoms: C_29  and  C_32
REMARK   10  A    between atoms: N_36  and  C_37
REMARK                            x       y       z     vdW  Elec       q    Type
REMARK                         _______ _______ _______ _____ _____    ______ ____
ROOT
ATOM      1  C   UNL     1       0.777  12.036  19.823  0.00  0.00    +0.000 A 
ATOM      2  C   UNL     1       1.334  11.203  18.855  0.00  0.00    +0.000 A 
ATOM      3  C   UNL     1       1.489   9.862  19.132  0.00  0.00    +0.000 A 
ATOM      4  C   UNL     1       1.117   9.283  20.335  0.00  0.00    +0.000 A 
ATOM      5  C   UNL     1       0.592  10.070  21.349  0.00  0.00    +0.000 A 
ATOM      6  C   UNL     1       0.433  11.447  21.071  0.00  0.00    +0.000 A 
ATOM      7  C   UNL     1       1.382   7.813  20.281  0.00  0.00    +0.000 C 
ATOM      8  N   UNL     1       1.967   7.628  18.960  0.00  0.00    +0.000 N 
ATOM      9  C   UNL     1       2.052   8.831  18.262  0.00  0.00    +0.000 C 
ATOM     10  O   UNL     1       2.488   9.096  17.156  0.00  0.00    +0.000 OA
ENDROOT
BRANCH   1  18
ATOM     11  C   UNL     1      -1.312  14.842  20.266  0.00  0.00    +0.000 C 
ATOM     12  C   UNL     1       0.058  14.274  20.646  0.00  0.00    +0.000 C 
ATOM     13  C   UNL     1       1.103  15.401  20.894  0.00  0.00    +0.000 C 
ATOM     14  N   UNL     1       1.472  16.139  19.664  0.00  0.00    +0.000 NA
ATOM     15  C   UNL     1       2.454  17.180  19.953  0.00  0.00    +0.000 C 
ATOM     16  C   UNL     1       2.006  15.181  18.670  0.00  0.00    +0.000 C 
ATOM     17  C   UNL     1       1.018  14.039  18.350  0.00  0.00    +0.000 C 
ATOM     18  N   UNL     1       0.533  13.371  19.575  0.00  0.00    +0.000 N 
ENDBRANCH   1  18
BRANCH   8  19
ATOM     19  C   UNL     1       2.466   6.377  18.530  0.00  0.00    +0.000 A 
ATOM     20  C   UNL     1       1.861   5.185  18.934  0.00  0.00    +0.000 A 
ATOM     21  C   UNL     1       2.299   3.956  18.449  0.00  0.00    +0.000 A 
ATOM     22  C   UNL     1       3.384   3.899  17.582  0.00  0.00    +0.000 A 
ATOM     23  C   UNL     1       4.055   5.065  17.198  0.00  0.00    +0.000 A 
ATOM     24  C   UNL     1       3.569   6.303  17.660  0.00  0.00    +0.000 A 
BRANCH  23  25
ATOM     25  C   UNL     1       5.309   5.019  16.319  0.00  0.00    +0.000 C 
ATOM     26  C   UNL     1       5.223   3.809  15.378  0.00  0.00    +0.000 C 
ATOM     27  F   UNL     1       5.380   6.107  15.478  0.00  0.00    +0.000 F 
BRANCH  25  28
ATOM     28  C   UNL     1       6.618   4.949  17.163  0.00  0.00    +0.000 C 
ATOM     29  F   UNL     1       6.379   4.227  18.305  0.00  0.00    +0.000 F 
ATOM     30  F   UNL     1       7.552   4.204  16.493  0.00  0.00    +0.000 F 
BRANCH  28  31
ATOM     31  C   UNL     1       7.209   6.282  17.503  0.00  0.00    +0.000 A 
ATOM     32  N   UNL     1       7.205   7.376  16.761  0.00  0.00    +0.000 NA
ATOM     33  N   UNL     1       7.882   8.363  17.434  0.00  0.00    +0.000 NA
ATOM     34  C   UNL     1       8.299   7.855  18.568  0.00  0.00    +0.000 A 
ATOM     35  N   UNL     1       7.906   6.555  18.655  0.00  0.00    +0.000 N 
ATOM     36  C   UNL     1       8.201   5.666  19.748  0.00  0.00    +0.000 C 
ENDBRANCH  28  31
ENDBRANCH  25  28
ENDBRANCH  23  25
ENDBRANCH   8  19
BRANCH   5  37
ATOM     37  C   UNL     1       0.193   9.512  22.687  0.00  0.00    +0.000 C 
ATOM     38  F   UNL     1      -0.649   8.442  22.603  0.00  0.00    +0.000 F 
ATOM     39  F   UNL     1       1.263   9.078  23.408  0.00  0.00    +0.000 F 
ATOM     40  F   UNL     1      -0.444  10.424  23.469  0.00  0.00    +0.000 F 
ENDBRANCH   5  37
TORSDOF 6
ENDMDL
MODEL 2
REMARK VINA RESULT:      -9.7      1.499      2.476
REMARK  Name = 
REMARK  10 active torsions:
REMARK  status: ('A' for Active; 'I' for Inactive)
REMARK    1  A    between atoms: C_1  and  C_2
REMARK    2  A    between atoms: N_4  and  C_5
REMARK    3  A    between atoms: N_8  and  C_9
REMARK    4  A    between atoms: C_13  and  C_14
REMARK    5  A    between atoms: N_20  and  C_21
REMARK    6  A    between atoms: C_25  and  C_26
REMARK    7  A    between atoms: C_26  and  C_27
REMARK    8  A    between atoms: C_26  and  C_29
REMARK    9  A    between atoms: C_29  and  C_32
REMARK   10  A    between atoms: N_36  and  C_37
REMARK                            x       y       z     vdW  Elec       q    Type
REMARK                         _______ _______ _______ _____ _____    ______ ____
ROOT
ATOM      1  C   UNL     1       0.405  11.942  19.927  0.00  0.00    +0.000 A 
ATOM      2  C   UNL     1       1.049  11.140  18.987  0.00  0.00    +0.000 A 
ATOM      3  C   UNL     1       1.312   9.823  19.298  0.00  0.00    +0.000 A 
ATOM      4  C   UNL     1       0.968   9.240  20.507  0.00  0.00    +0.000 A 
ATOM      5  C   UNL     1       0.360  10.000  21.493  0.00  0.00    +0.000 A 
ATOM      6  C   UNL     1       0.090  11.353  21.182  0.00  0.00    +0.000 A 
ATOM      7  C   UNL     1       1.359   7.797  20.491  0.00  0.00    +0.000 C 
ATOM      8  N   UNL     1       1.982   7.635  19.184  0.00  0.00    +0.000 N 
ATOM      9  C   UNL     1       1.977   8.826  18.461  0.00  0.00    +0.000 C 
ATOM     10  O   UNL     1       2.410   9.104  17.357  0.00  0.00    +0.000 OA
ENDROOT
BRANCH   1  18
ATOM     11  C   UNL     1      -1.877  14.596  20.346  0.00  0.00    +0.000 C 
ATOM     12  C   UNL     1      -0.459  14.146  20.701  0.00  0.00    +0.000 C 
ATOM     13  C   UNL     1       0.505  15.357  20.881  0.00  0.00    +0.000 C 
ATOM     14  N   UNL     1       0.782  16.078  19.618  0.00  0.00    +0.000 NA
ATOM     15  C   UNL     1       1.689  17.200  19.844  0.00  0.00    +0.000 C 
ATOM     16  C   UNL     1       1.358  15.130  18.638  0.00  0.00    +0.000 C 
ATOM     17  C   UNL     1       0.452  13.907  18.385  0.00  0.00    +0.000 C 
ATOM     18  N   UNL     1       0.054  13.247  19.645  0.00  0.00    +0.000 N 
ENDBRANCH   1  18
BRANCH   8  19
ATOM     19  C   UNL     1       2.593   6.422  18.790  0.00  0.00    +0.000 A 
ATOM     20  C   UNL     1       2.018   5.191  19.111  0.00  0.00    +0.000 A 
ATOM     21  C   UNL     1       2.574   3.998  18.658  0.00  0.00    +0.000 A 
ATOM     22  C   UNL     1       3.745   4.018  17.909  0.00  0.00    +0.000 A 
ATOM     23  C   UNL     1       4.385   5.227  17.615  0.00  0.00    +0.000 A 
ATOM     24  C   UNL     1       3.783   6.427  18.041  0.00  0.00    +0.000 A 
BRANCH  23  25
ATOM     25  C   UNL     1       5.724   5.267  16.872  0.00  0.00    +0.000 C 
ATOM     26  C   UNL     1       6.042   6.717  16.478  0.00  0.00    +0.000 C 
ATOM     27  F   UNL     1       6.769   4.894  17.688  0.00  0.00    +0.000 F 
BRANCH  25  28
ATOM     28  C   UNL     1       5.724   4.357  15.607  0.00  0.00    +0.000 C 
ATOM     29  F   UNL     1       5.921   3.054  15.991  0.00  0.00    +0.000 F 
ATOM     30  F   UNL     1       4.473   4.351  15.051  0.00  0.00    +0.000 F 
BRANCH  28  31
ATOM     31  C   UNL     1       6.722   4.747  14.561  0.00  0.00    +0.000 A 
ATOM     32  N   UNL     1       7.765   5.546  14.704  0.00  0.00    +0.000 NA
ATOM     33  N   UNL     1       8.397   5.662  13.491  0.00  0.00    +0.000 NA
ATOM     34  C   UNL     1       7.726   4.943  12.625  0.00  0.00    +0.000 A 
ATOM     35  N   UNL     1       6.668   4.355  13.246  0.00  0.00    +0.000 N 
ATOM     36  C   UNL     1       5.691   3.510  12.609  0.00  0.00    +0.000 C 
ENDBRANCH  28  31
ENDBRANCH  25  28
ENDBRANCH  23  25
ENDBRANCH   8  19
BRANCH   5  37
ATOM     37  C   UNL     1      -0.015   9.439  22.837  0.00  0.00    +0.000 C 
ATOM     38  F   UNL     1       1.059   9.109  23.610  0.00  0.00    +0.000 F 
ATOM     39  F   UNL     1      -0.744  10.316  23.580  0.00  0.00    +0.000 F 
ATOM     40  F   UNL     1      -0.766   8.309  22.745  0.00  0.00    +0.000 F 
ENDBRANCH   5  37
TORSDOF 6
ENDMDL
MODEL 3
REMARK VINA RESULT:      -9.5      0.859      1.391
REMARK  Name = 
REMARK  10 active torsions:
REMARK  status: ('A' for Active; 'I' for Inactive)
REMARK    1  A    between atoms: C_1  and  C_2
REMARK    2  A    between atoms: N_4  and  C_5
REMARK    3  A    between atoms: N_8  and  C_9
REMARK    4  A    between atoms: C_13  and  C_14
REMARK    5  A    between atoms: N_20  and  C_21
REMARK    6  A    between atoms: C_25  and  C_26
REMARK    7  A    between atoms: C_26  and  C_27
REMARK    8  A    between atoms: C_26  and  C_29
REMARK    9  A    between atoms: C_29  and  C_32
REMARK   10  A    between atoms: N_36  and  C_37
REMARK                            x       y       z     vdW  Elec       q    Type
REMARK                         _______ _______ _______ _____ _____    ______ ____
ROOT
ATOM      1  C   UNL     1       0.346  11.926  19.896  0.00  0.00    +0.000 A 
ATOM      2  C   UNL     1       1.010  11.178  18.926  0.00  0.00    +0.000 A 
ATOM      3  C   UNL     1       1.352   9.872  19.204  0.00  0.00    +0.000 A 
ATOM      4  C   UNL     1       1.070   9.249  20.410  0.00  0.00    +0.000 A 
ATOM      5  C   UNL     1       0.445   9.957  21.424  0.00  0.00    +0.000 A 
ATOM      6  C   UNL     1       0.094  11.298  21.146  0.00  0.00    +0.000 A 
ATOM      7  C   UNL     1       1.538   7.830  20.356  0.00  0.00    +0.000 C 
ATOM      8  N   UNL     1       2.137   7.727  19.033  0.00  0.00    +0.000 N 
ATOM      9  C   UNL     1       2.050   8.929  18.332  0.00  0.00    +0.000 C 
ATOM     10  O   UNL     1       2.440   9.250  17.224  0.00  0.00    +0.000 OA
ENDROOT
BRANCH   1  18
ATOM     11  C   UNL     1      -2.024  14.469  20.483  0.00  0.00    +0.000 C 
ATOM     12  C   UNL     1      -0.566  14.084  20.742  0.00  0.00    +0.000 C 
ATOM     13  C   UNL     1       0.350  15.337  20.869  0.00  0.00    +0.000 C 
ATOM     14  N   UNL     1       0.511  16.077  19.596  0.00  0.00    +0.000 NA
ATOM     15  C   UNL     1       1.378  17.238  19.772  0.00  0.00    +0.000 C 
ATOM     16  C   UNL     1       1.065  15.161  18.573  0.00  0.00    +0.000 C 
ATOM     17  C   UNL     1       0.201  13.899  18.370  0.00  0.00    +0.000 C 
ATOM     18  N   UNL     1      -0.082  13.214  19.647  0.00  0.00    +0.000 N 
ENDBRANCH   1  18
BRANCH   8  19
ATOM     19  C   UNL     1       2.804   6.556  18.601  0.00  0.00    +0.000 A 
ATOM     20  C   UNL     1       2.596   5.333  19.243  0.00  0.00    +0.000 A 
ATOM     21  C   UNL     1       3.189   4.165  18.772  0.00  0.00    +0.000 A 
ATOM     22  C   UNL     1       4.038   4.212  17.672  0.00  0.00    +0.000 A 
ATOM     23  C   UNL     1       4.319   5.426  17.037  0.00  0.00    +0.000 A 
ATOM     24  C   UNL     1       3.674   6.590  17.496  0.00  0.00    +0.000 A 
BRANCH  23  25
ATOM     25  C   UNL     1       5.323   5.516  15.883  0.00  0.00    +0.000 C 
ATOM     26  C   UNL     1       4.791   4.717  14.685  0.00  0.00    +0.000 C 
ATOM     27  F   UNL     1       5.442   6.805  15.413  0.00  0.00    +0.000 F 
BRANCH  25  28
ATOM     28  C   UNL     1       6.735   4.996  16.289  0.00  0.00    +0.000 C 
ATOM     29  F   UNL     1       6.797   3.643  16.071  0.00  0.00    +0.000 F 
ATOM     30  F   UNL     1       7.673   5.510  15.433  0.00  0.00    +0.000 F 
BRANCH  28  31
ATOM     31  C   UNL     1       7.133   5.314  17.697  0.00  0.00    +0.000 A 
ATOM     32  N   UNL     1       7.103   4.506  18.743  0.00  0.00    +0.000 NA
ATOM     33  N   UNL     1       7.519   5.206  19.849  0.00  0.00    +0.000 NA
ATOM     34  C   UNL     1       7.786   6.430  19.465  0.00  0.00    +0.000 A 
ATOM     35  N   UNL     1       7.555   6.548  18.129  0.00  0.00    +0.000 N 
ATOM     36  C   UNL     1       7.714   7.754  17.358  0.00  0.00    +0.000 C 
ENDBRANCH  28  31
ENDBRANCH  25  28
ENDBRANCH  23  25
ENDBRANCH   8  19
BRANCH   5  37
ATOM     37  C   UNL     1       0.134   9.351  22.765  0.00  0.00    +0.000 C 
ATOM     38  F   UNL     1      -0.552  10.187  23.596  0.00  0.00    +0.000 F 
ATOM     39  F   UNL     1      -0.633   8.231  22.662  0.00  0.00    +0.000 F 
ATOM     40  F   UNL     1       1.249   8.982  23.448  0.00  0.00    +0.000 F 
ENDBRANCH   5  37
TORSDOF 6
ENDMDL
MODEL 4
REMARK VINA RESULT:      -9.3      1.521      2.072
REMARK  Name = 
REMARK  10 active torsions:
REMARK  status: ('A' for Active; 'I' for Inactive)
REMARK    1  A    between atoms: C_1  and  C_2
REMARK    2  A    between atoms: N_4  and  C_5
REMARK    3  A    between atoms: N_8  and  C_9
REMARK    4  A    between atoms: C_13  and  C_14
REMARK    5  A    between atoms: N_20  and  C_21
REMARK    6  A    between atoms: C_25  and  C_26
REMARK    7  A    between atoms: C_26  and  C_27
REMARK    8  A    between atoms: C_26  and  C_29
REMARK    9  A    between atoms: C_29  and  C_32
REMARK   10  A    between atoms: N_36  and  C_37
REMARK                            x       y       z     vdW  Elec       q    Type
REMARK                         _______ _______ _______ _____ _____    ______ ____
ROOT
ATOM      1  C   UNL     1       0.999  11.688  19.846  0.00  0.00    +0.000 A 
ATOM      2  C   UNL     1       1.581  10.609  19.182  0.00  0.00    +0.000 A 
ATOM      3  C   UNL     1       1.514   9.356  19.753  0.00  0.00    +0.000 A 
ATOM      4  C   UNL     1       0.893   9.101  20.966  0.00  0.00    +0.000 A 
ATOM      5  C   UNL     1       0.331  10.143  21.687  0.00  0.00    +0.000 A 
ATOM      6  C   UNL     1       0.398  11.431  21.108  0.00  0.00    +0.000 A 
ATOM      7  C   UNL     1       0.967   7.638  21.263  0.00  0.00    +0.000 C 
ATOM      8  N   UNL     1       1.713   7.106  20.132  0.00  0.00    +0.000 N 
ATOM      9  C   UNL     1       2.060   8.107  19.226  0.00  0.00    +0.000 C 
ATOM     10  O   UNL     1       2.688   8.073  18.183  0.00  0.00    +0.000 OA
ENDROOT
BRANCH   1  18
ATOM     11  C   UNL     1      -0.742  14.711  19.332  0.00  0.00    +0.000 C 
ATOM     12  C   UNL     1       0.469  14.113  20.052  0.00  0.00    +0.000 C 
ATOM     13  C   UNL     1       1.606  15.160  20.239  0.00  0.00    +0.000 C 
ATOM     14  N   UNL     1       2.248  15.563  18.966  0.00  0.00    +0.000 NA
ATOM     15  C   UNL     1       3.305  16.542  19.200  0.00  0.00    +0.000 C 
ATOM     16  C   UNL     1       2.790  14.358  18.299  0.00  0.00    +0.000 C 
ATOM     17  C   UNL     1       1.718  13.275  18.056  0.00  0.00    +0.000 C 
ATOM     18  N   UNL     1       0.974  12.951  19.289  0.00  0.00    +0.000 N 
ENDBRANCH   1  18
BRANCH   8  19
ATOM     19  C   UNL     1       2.102   5.747  20.062  0.00  0.00    +0.000 A 
ATOM     20  C   UNL     1       1.976   4.907  21.170  0.00  0.00    +0.000 A 
ATOM     21  C   UNL     1       2.282   3.552  21.083  0.00  0.00    +0.000 A 
ATOM     22  C   UNL     1       2.764   3.024  19.891  0.00  0.00    +0.000 A 
ATOM     23  C   UNL     1       2.960   3.844  18.774  0.00  0.00    +0.000 A 
ATOM     24  C   UNL     1       2.600   5.202  18.865  0.00  0.00    +0.000 A 
BRANCH  23  25
ATOM     25  C   UNL     1       3.577   3.304  17.479  0.00  0.00    +0.000 C 
ATOM     26  C   UNL     1       4.095   1.879  17.720  0.00  0.00    +0.000 C 
ATOM     27  F   UNL     1       2.634   3.166  16.486  0.00  0.00    +0.000 F 
BRANCH  25  28
ATOM     28  C   UNL     1       4.731   4.211  16.954  0.00  0.00    +0.000 C 
ATOM     29  F   UNL     1       5.395   3.556  15.947  0.00  0.00    +0.000 F 
ATOM     30  F   UNL     1       4.200   5.312  16.336  0.00  0.00    +0.000 F 
BRANCH  28  31
ATOM     31  C   UNL     1       5.696   4.661  18.007  0.00  0.00    +0.000 A 
ATOM     32  N   UNL     1       5.728   4.294  19.277  0.00  0.00    +0.000 NA
ATOM     33  N   UNL     1       6.750   4.966  19.901  0.00  0.00    +0.000 NA
ATOM     34  C   UNL     1       7.319   5.739  19.007  0.00  0.00    +0.000 A 
ATOM     35  N   UNL     1       6.692   5.586  17.809  0.00  0.00    +0.000 N 
ATOM     36  C   UNL     1       7.023   6.291  16.598  0.00  0.00    +0.000 C 
ENDBRANCH  28  31
ENDBRANCH  25  28
ENDBRANCH  23  25
ENDBRANCH   8  19
BRANCH   5  37
ATOM     37  C   UNL     1      -0.335   9.941  23.021  0.00  0.00    +0.000 C 
ATOM     38  F   UNL     1      -1.288   8.966  23.013  0.00  0.00    +0.000 F 
ATOM     39  F   UNL     1       0.549   9.580  23.991  0.00  0.00    +0.000 F 
ATOM     40  F   UNL     1      -0.955  11.062  23.475  0.00  0.00    +0.000 F 
ENDBRANCH   5  37
TORSDOF 6
ENDMDL
MODEL 5
REMARK VINA RESULT:      -9.2      2.700      9.202
REMARK  Name = 
REMARK  10 active torsions:
REMARK  status: ('A' for Active; 'I' for Inactive)
REMARK    1  A    between atoms: C_1  and  C_2
REMARK    2  A    between atoms: N_4  and  C_5
REMARK    3  A    between atoms: N_8  and  C_9
REMARK    4  A    between atoms: C_13  and  C_14
REMARK    5  A    between atoms: N_20  and  C_21
REMARK    6  A    between atoms: C_25  and  C_26
REMARK    7  A    between atoms: C_26  and  C_27
REMARK    8  A    between atoms: C_26  and  C_29
REMARK    9  A    between atoms: C_29  and  C_32
REMARK   10  A    between atoms: N_36  and  C_37
REMARK                            x       y       z     vdW  Elec       q    Type
REMARK                         _______ _______ _______ _____ _____    ______ ____
ROOT
ATOM      1  C   UNL     1       4.286   5.928  17.800  0.00  0.00    +0.000 A 
ATOM      2  C   UNL     1       3.761   7.214  17.895  0.00  0.00    +0.000 A 
ATOM      3  C   UNL     1       2.811   7.481  18.858  0.00  0.00    +0.000 A 
ATOM      4  C   UNL     1       2.342   6.531  19.752  0.00  0.00    +0.000 A 
ATOM      5  C   UNL     1       2.802   5.226  19.679  0.00  0.00    +0.000 A 
ATOM      6  C   UNL     1       3.774   4.946  18.691  0.00  0.00    +0.000 A 
ATOM      7  C   UNL     1       1.358   7.168  20.680  0.00  0.00    +0.000 C 
ATOM      8  N   UNL     1       1.292   8.543  20.205  0.00  0.00    +0.000 N 
ATOM      9  C   UNL     1       2.137   8.752  19.116  0.00  0.00    +0.000 C 
ATOM     10  O   UNL     1       2.352   9.740  18.437  0.00  0.00    +0.000 OA
ENDROOT
BRANCH   1  18
ATOM     11  C   UNL     1       7.482   4.556  17.219  0.00  0.00    +0.000 C 
ATOM     12  C   UNL     1       5.993   4.321  16.958  0.00  0.00    +0.000 C 
ATOM     13  C   UNL     1       5.755   3.532  15.636  0.00  0.00    +0.000 C 
ATOM     14  N   UNL     1       6.102   4.306  14.421  0.00  0.00    +0.000 NA
ATOM     15  C   UNL     1       5.859   3.520  13.214  0.00  0.00    +0.000 C 
ATOM     16  C   UNL     1       5.307   5.554  14.401  0.00  0.00    +0.000 C 
ATOM     17  C   UNL     1       5.503   6.408  15.672  0.00  0.00    +0.000 C 
ATOM     18  N   UNL     1       5.289   5.621  16.903  0.00  0.00    +0.000 N 
ENDBRANCH   1  18
BRANCH   8  19
ATOM     19  C   UNL     1       0.387   9.483  20.752  0.00  0.00    +0.000 A 
ATOM     20  C   UNL     1      -0.021   9.395  22.084  0.00  0.00    +0.000 A 
ATOM     21  C   UNL     1      -0.848  10.363  22.647  0.00  0.00    +0.000 A 
ATOM     22  C   UNL     1      -1.317  11.414  21.868  0.00  0.00    +0.000 A 
ATOM     23  C   UNL     1      -0.979  11.507  20.514  0.00  0.00    +0.000 A 
ATOM     24  C   UNL     1      -0.103  10.546  19.973  0.00  0.00    +0.000 A 
BRANCH  23  25
ATOM     25  C   UNL     1      -1.558  12.603  19.614  0.00  0.00    +0.000 C 
ATOM     26  C   UNL     1      -1.490  12.145  18.150  0.00  0.00    +0.000 C 
ATOM     27  F   UNL     1      -2.900  12.800  19.853  0.00  0.00    +0.000 F 
BRANCH  25  28
ATOM     28  C   UNL     1      -0.812  13.961  19.785  0.00  0.00    +0.000 C 
ATOM     29  F   UNL     1      -0.729  14.586  18.566  0.00  0.00    +0.000 F 
ATOM     30  F   UNL     1      -1.580  14.810  20.538  0.00  0.00    +0.000 F 
BRANCH  28  31
ATOM     31  C   UNL     1       0.545  13.850  20.407  0.00  0.00    +0.000 A 
ATOM     32  N   UNL     1       0.870  14.059  21.671  0.00  0.00    +0.000 NA
ATOM     33  N   UNL     1       2.224  13.881  21.811  0.00  0.00    +0.000 NA
ATOM     34  C   UNL     1       2.707  13.578  20.631  0.00  0.00    +0.000 A 
ATOM     35  N   UNL     1       1.696  13.550  19.720  0.00  0.00    +0.000 N 
ATOM     36  C   UNL     1       1.847  13.278  18.314  0.00  0.00    +0.000 C 
ENDBRANCH  28  31
ENDBRANCH  25  28
ENDBRANCH  23  25
ENDBRANCH   8  19
BRANCH   5  37
ATOM     37  C   UNL     1       2.315   4.140  20.599  0.00  0.00    +0.000 C 
ATOM     38  F   UNL     1       2.989   2.963  20.457  0.00  0.00    +0.000 F 
ATOM     39  F   UNL     1       2.444   4.478  21.911  0.00  0.00    +0.000 F 
ATOM     40  F   UNL     1       1.003   3.841  20.413  0.00  0.00    +0.000 F 
ENDBRANCH   5  37
TORSDOF 6
ENDMDL
MODEL 6
REMARK VINA RESULT:      -9.1      3.933      5.567
REMARK  Name = 
REMARK  10 active torsions:
REMARK  status: ('A' for Active; 'I' for Inactive)
REMARK    1  A    between atoms: C_1  and  C_2
REMARK    2  A    between atoms: N_4  and  C_5
REMARK    3  A    between atoms: N_8  and  C_9
REMARK    4  A    between atoms: C_13  and  C_14
REMARK    5  A    between atoms: N_20  and  C_21
REMARK    6  A    between atoms: C_25  and  C_26
REMARK    7  A    between atoms: C_26  and  C_27
REMARK    8  A    between atoms: C_26  and  C_29
REMARK    9  A    between atoms: C_29  and  C_32
REMARK   10  A    between atoms: N_36  and  C_37
REMARK                            x       y       z     vdW  Elec       q    Type
REMARK                         _______ _______ _______ _____ _____    ______ ____
ROOT
ATOM      1  C   UNL     1      -2.339  12.892  21.809  0.00  0.00    +0.000 A 
ATOM      2  C   UNL     1      -1.114  12.231  21.860  0.00  0.00    +0.000 A 
ATOM      3  C   UNL     1      -0.740  11.429  20.803  0.00  0.00    +0.000 A 
ATOM      4  C   UNL     1      -1.523  11.239  19.675  0.00  0.00    +0.000 A 
ATOM      5  C   UNL     1      -2.768  11.842  19.587  0.00  0.00    +0.000 A 
ATOM      6  C   UNL     1      -3.157  12.664  20.669  0.00  0.00    +0.000 A 
ATOM      7  C   UNL     1      -0.800  10.351  18.714  0.00  0.00    +0.000 C 
ATOM      8  N   UNL     1       0.435  10.033  19.418  0.00  0.00    +0.000 N 
ATOM      9  C   UNL     1       0.490  10.652  20.666  0.00  0.00    +0.000 C 
ATOM     10  O   UNL     1       1.330  10.623  21.547  0.00  0.00    +0.000 OA
ENDROOT
BRANCH   1  18
ATOM     11  C   UNL     1      -1.672  15.789  23.706  0.00  0.00    +0.000 C 
ATOM     12  C   UNL     1      -2.610  15.226  22.635  0.00  0.00    +0.000 C 
ATOM     13  C   UNL     1      -4.019  15.888  22.695  0.00  0.00    +0.000 C 
ATOM     14  N   UNL     1      -4.784  15.528  23.910  0.00  0.00    +0.000 NA
ATOM     15  C   UNL     1      -6.095  16.174  23.913  0.00  0.00    +0.000 C 
ATOM     16  C   UNL     1      -4.928  14.056  23.972  0.00  0.00    +0.000 C 
ATOM     17  C   UNL     1      -3.570  13.322  23.940  0.00  0.00    +0.000 C 
ATOM     18  N   UNL     1      -2.733  13.762  22.805  0.00  0.00    +0.000 N 
ENDBRANCH   1  18
BRANCH   8  19
ATOM     19  C   UNL     1       1.382   9.120  18.897  0.00  0.00    +0.000 A 
ATOM     20  C   UNL     1       2.132   9.434  17.762  0.00  0.00    +0.000 A 
ATOM     21  C   UNL     1       3.120   8.573  17.293  0.00  0.00    +0.000 A 
ATOM     22  C   UNL     1       3.342   7.358  17.932  0.00  0.00    +0.000 A 
ATOM     23  C   UNL     1       2.573   6.980  19.038  0.00  0.00    +0.000 A 
ATOM     24  C   UNL     1       1.611   7.884  19.527  0.00  0.00    +0.000 A 
BRANCH  23  25
ATOM     25  C   UNL     1       2.736   5.608  19.700  0.00  0.00    +0.000 C 
ATOM     26  C   UNL     1       4.222   5.221  19.703  0.00  0.00    +0.000 C 
ATOM     27  F   UNL     1       2.384   5.641  21.030  0.00  0.00    +0.000 F 
BRANCH  25  28
ATOM     28  C   UNL     1       1.898   4.505  18.985  0.00  0.00    +0.000 C 
ATOM     29  F   UNL     1       0.753   4.273  19.705  0.00  0.00    +0.000 F 
ATOM     30  F   UNL     1       1.441   4.986  17.787  0.00  0.00    +0.000 F 
BRANCH  28  31
ATOM     31  C   UNL     1       2.633   3.222  18.749  0.00  0.00    +0.000 A 
ATOM     32  N   UNL     1       3.071   2.748  17.595  0.00  0.00    +0.000 NA
ATOM     33  N   UNL     1       3.661   1.528  17.819  0.00  0.00    +0.000 NA
ATOM     34  C   UNL     1       3.565   1.272  19.101  0.00  0.00    +0.000 A 
ATOM     35  N   UNL     1       2.925   2.299  19.723  0.00  0.00    +0.000 N 
ATOM     36  C   UNL     1       2.615   2.361  21.128  0.00  0.00    +0.000 C 
ENDBRANCH  28  31
ENDBRANCH  25  28
ENDBRANCH  23  25
ENDBRANCH   8  19
BRANCH   5  37
ATOM     37  C   UNL     1      -3.678  11.657  18.404  0.00  0.00    +0.000 C 
ATOM     38  F   UNL     1      -4.813  12.410  18.467  0.00  0.00    +0.000 F 
ATOM     39  F   UNL     1      -3.079  11.998  17.231  0.00  0.00    +0.000 F 
ATOM     40  F   UNL     1      -4.094  10.372  18.256  0.00  0.00    +0.000 F 
ENDBRANCH   5  37
TORSDOF 6
ENDMDL
MODEL 7
REMARK VINA RESULT:      -9.0      0.698      1.455
REMARK  Name = 
REMARK  10 active torsions:
REMARK  status: ('A' for Active; 'I' for Inactive)
REMARK    1  A    between atoms: C_1  and  C_2
REMARK    2  A    between atoms: N_4  and  C_5
REMARK    3  A    between atoms: N_8  and  C_9
REMARK    4  A    between atoms: C_13  and  C_14
REMARK    5  A    between atoms: N_20  and  C_21
REMARK    6  A    between atoms: C_25  and  C_26
REMARK    7  A    between atoms: C_26  and  C_27
REMARK    8  A    between atoms: C_26  and  C_29
REMARK    9  A    between atoms: C_29  and  C_32
REMARK   10  A    between atoms: N_36  and  C_37
REMARK                            x       y       z     vdW  Elec       q    Type
REMARK                         _______ _______ _______ _____ _____    ______ ____
ROOT
ATOM      1  C   UNL     1       1.124  12.129  20.190  0.00  0.00    +0.000 A 
ATOM      2  C   UNL     1       1.736  11.337  19.220  0.00  0.00    +0.000 A 
ATOM      3  C   UNL     1       1.699   9.965  19.353  0.00  0.00    +0.000 A 
ATOM      4  C   UNL     1       1.079   9.317  20.409  0.00  0.00    +0.000 A 
ATOM      5  C   UNL     1       0.487  10.055  21.422  0.00  0.00    +0.000 A 
ATOM      6  C   UNL     1       0.524  11.463  21.293  0.00  0.00    +0.000 A 
ATOM      7  C   UNL     1       1.190   7.839  20.217  0.00  0.00    +0.000 C 
ATOM      8  N   UNL     1       1.955   7.719  18.984  0.00  0.00    +0.000 N 
ATOM      9  C   UNL     1       2.280   8.968  18.457  0.00  0.00    +0.000 C 
ATOM     10  O   UNL     1       2.914   9.288  17.467  0.00  0.00    +0.000 OA
ENDROOT
BRANCH   1  18
ATOM     11  C   UNL     1       2.036  15.031  18.407  0.00  0.00    +0.000 C 
ATOM     12  C   UNL     1       0.836  14.150  18.763  0.00  0.00    +0.000 C 
ATOM     13  C   UNL     1      -0.489  14.966  18.802  0.00  0.00    +0.000 C 
ATOM     14  N   UNL     1      -0.550  15.933  19.922  0.00  0.00    +0.000 NA
ATOM     15  C   UNL     1      -1.812  16.668  19.911  0.00  0.00    +0.000 C 
ATOM     16  C   UNL     1      -0.382  15.202  21.198  0.00  0.00    +0.000 C 
ATOM     17  C   UNL     1       0.924  14.382  21.250  0.00  0.00    +0.000 C 
ATOM     18  N   UNL     1       1.069  13.503  20.072  0.00  0.00    +0.000 N 
ENDBRANCH   1  18
BRANCH   8  19
ATOM     19  C   UNL     1       2.380   6.466  18.483  0.00  0.00    +0.000 A 
ATOM     20  C   UNL     1       1.661   5.302  18.761  0.00  0.00    +0.000 A 
ATOM     21  C   UNL     1       2.029   4.080  18.205  0.00  0.00    +0.000 A 
ATOM     22  C   UNL     1       3.155   3.998  17.393  0.00  0.00    +0.000 A 
ATOM     23  C   UNL     1       3.936   5.130  17.137  0.00  0.00    +0.000 A 
ATOM     24  C   UNL     1       3.522   6.366  17.669  0.00  0.00    +0.000 A 
BRANCH  23  25
ATOM     25  C   UNL     1       5.231   5.046  16.323  0.00  0.00    +0.000 C 
ATOM     26  C   UNL     1       5.166   3.827  15.392  0.00  0.00    +0.000 C 
ATOM     27  F   UNL     1       5.369   6.122  15.475  0.00  0.00    +0.000 F 
BRANCH  25  28
ATOM     28  C   UNL     1       6.494   4.958  17.233  0.00  0.00    +0.000 C 
ATOM     29  F   UNL     1       6.166   4.311  18.398  0.00  0.00    +0.000 F 
ATOM     30  F   UNL     1       7.419   4.135  16.648  0.00  0.00    +0.000 F 
BRANCH  28  31
ATOM     31  C   UNL     1       7.135   6.277  17.534  0.00  0.00    +0.000 A 
ATOM     32  N   UNL     1       7.157   7.354  16.767  0.00  0.00    +0.000 NA
ATOM     33  N   UNL     1       7.878   8.332  17.406  0.00  0.00    +0.000 NA
ATOM     34  C   UNL     1       8.294   7.836  18.545  0.00  0.00    +0.000 A 
ATOM     35  N   UNL     1       7.859   6.553  18.668  0.00  0.00    +0.000 N 
ATOM     36  C   UNL     1       8.141   5.679  19.777  0.00  0.00    +0.000 C 
ENDBRANCH  28  31
ENDBRANCH  25  28
ENDBRANCH  23  25
ENDBRANCH   8  19
BRANCH   5  37
ATOM     37  C   UNL     1      -0.179   9.417  22.610  0.00  0.00    +0.000 C 
ATOM     38  F   UNL     1      -1.134  10.201  23.186  0.00  0.00    +0.000 F 
ATOM     39  F   UNL     1      -0.809   8.254  22.287  0.00  0.00    +0.000 F 
ATOM     40  F   UNL     1       0.697   9.109  23.602  0.00  0.00    +0.000 F 
ENDBRANCH   5  37
TORSDOF 6
ENDMDL
MODEL 8
REMARK VINA RESULT:      -9.0      0.888      1.471
REMARK  Name = 
REMARK  10 active torsions:
REMARK  status: ('A' for Active; 'I' for Inactive)
REMARK    1  A    between atoms: C_1  and  C_2
REMARK    2  A    between atoms: N_4  and  C_5
REMARK    3  A    between atoms: N_8  and  C_9
REMARK    4  A    between atoms: C_13  and  C_14
REMARK    5  A    between atoms: N_20  and  C_21
REMARK    6  A    between atoms: C_25  and  C_26
REMARK    7  A    between atoms: C_26  and  C_27
REMARK    8  A    between atoms: C_26  and  C_29
REMARK    9  A    between atoms: C_29  and  C_32
REMARK   10  A    between atoms: N_36  and  C_37
REMARK                            x       y       z     vdW  Elec       q    Type
REMARK                         _______ _______ _______ _____ _____    ______ ____
ROOT
ATOM      1  C   UNL     1       1.039  11.867  19.569  0.00  0.00    +0.000 A 
ATOM      2  C   UNL     1       1.609  11.000  18.640  0.00  0.00    +0.000 A 
ATOM      3  C   UNL     1       1.734   9.664  18.958  0.00  0.00    +0.000 A 
ATOM      4  C   UNL     1       1.319   9.124  20.165  0.00  0.00    +0.000 A 
ATOM      5  C   UNL     1       0.780   9.947  21.141  0.00  0.00    +0.000 A 
ATOM      6  C   UNL     1       0.652  11.319  20.822  0.00  0.00    +0.000 A 
ATOM      7  C   UNL     1       1.561   7.650  20.158  0.00  0.00    +0.000 C 
ATOM      8  N   UNL     1       2.179   7.419  18.860  0.00  0.00    +0.000 N 
ATOM      9  C   UNL     1       2.304   8.601  18.132  0.00  0.00    +0.000 C 
ATOM     10  O   UNL     1       2.775   8.828  17.032  0.00  0.00    +0.000 OA
ENDROOT
BRANCH   1  18
ATOM     11  C   UNL     1      -1.062  14.690  19.786  0.00  0.00    +0.000 C 
ATOM     12  C   UNL     1       0.267  14.123  20.290  0.00  0.00    +0.000 C 
ATOM     13  C   UNL     1       1.295  15.250  20.605  0.00  0.00    +0.000 C 
ATOM     14  N   UNL     1       1.770  15.964  19.397  0.00  0.00    +0.000 NA
ATOM     15  C   UNL     1       2.730  17.006  19.750  0.00  0.00    +0.000 C 
ATOM     16  C   UNL     1       2.379  14.986  18.468  0.00  0.00    +0.000 C 
ATOM     17  C   UNL     1       1.415  13.843  18.087  0.00  0.00    +0.000 C 
ATOM     18  N   UNL     1       0.826  13.199  19.279  0.00  0.00    +0.000 N 
ENDBRANCH   1  18
BRANCH   8  19
ATOM     19  C   UNL     1       2.669   6.148  18.478  0.00  0.00    +0.000 A 
ATOM     20  C   UNL     1       2.201   4.984  19.092  0.00  0.00    +0.000 A 
ATOM     21  C   UNL     1       2.622   3.729  18.664  0.00  0.00    +0.000 A 
ATOM     22  C   UNL     1       3.555   3.620  17.639  0.00  0.00    +0.000 A 
ATOM     23  C   UNL     1       4.092   4.763  17.037  0.00  0.00    +0.000 A 
ATOM     24  C   UNL     1       3.620   6.024  17.449  0.00  0.00    +0.000 A 
BRANCH  23  25
ATOM     25  C   UNL     1       5.188   4.670  15.971  0.00  0.00    +0.000 C 
ATOM     26  C   UNL     1       5.789   3.257  15.984  0.00  0.00    +0.000 C 
ATOM     27  F   UNL     1       4.676   4.817  14.701  0.00  0.00    +0.000 F 
BRANCH  25  28
ATOM     28  C   UNL     1       6.310   5.731  16.186  0.00  0.00    +0.000 C 
ATOM     29  F   UNL     1       7.253   5.596  15.198  0.00  0.00    +0.000 F 
ATOM     30  F   UNL     1       5.797   6.984  15.982  0.00  0.00    +0.000 F 
BRANCH  28  31
ATOM     31  C   UNL     1       6.959   5.683  17.535  0.00  0.00    +0.000 A 
ATOM     32  N   UNL     1       6.998   4.662  18.373  0.00  0.00    +0.000 NA
ATOM     33  N   UNL     1       7.663   5.052  19.508  0.00  0.00    +0.000 NA
ATOM     34  C   UNL     1       8.012   6.306  19.352  0.00  0.00    +0.000 A 
ATOM     35  N   UNL     1       7.590   6.746  18.135  0.00  0.00    +0.000 N 
ATOM     36  C   UNL     1       7.769   8.079  17.623  0.00  0.00    +0.000 C 
ENDBRANCH  28  31
ENDBRANCH  25  28
ENDBRANCH  23  25
ENDBRANCH   8  19
BRANCH   5  37
ATOM     37  C   UNL     1       0.334   9.433  22.483  0.00  0.00    +0.000 C 
ATOM     38  F   UNL     1       1.351   8.936  23.242  0.00  0.00    +0.000 F 
ATOM     39  F   UNL     1      -0.248  10.402  23.242  0.00  0.00    +0.000 F 
ATOM     40  F   UNL     1      -0.580   8.431  22.385  0.00  0.00    +0.000 F 
ENDBRANCH   5  37
TORSDOF 6
ENDMDL
MODEL 9
REMARK VINA RESULT:      -8.9      3.843      5.395
REMARK  Name = 
REMARK  10 active torsions:
REMARK  status: ('A' for Active; 'I' for Inactive)
REMARK    1  A    between atoms: C_1  and  C_2
REMARK    2  A    between atoms: N_4  and  C_5
REMARK    3  A    between atoms: N_8  and  C_9
REMARK    4  A    between atoms: C_13  and  C_14
REMARK    5  A    between atoms: N_20  and  C_21
REMARK    6  A    between atoms: C_25  and  C_26
REMARK    7  A    between atoms: C_26  and  C_27
REMARK    8  A    between atoms: C_26  and  C_29
REMARK    9  A    between atoms: C_29  and  C_32
REMARK   10  A    between atoms: N_36  and  C_37
REMARK                            x       y       z     vdW  Elec       q    Type
REMARK                         _______ _______ _______ _____ _____    ______ ____
ROOT
ATOM      1  C   UNL     1      -2.356  13.142  21.347  0.00  0.00    +0.000 A 
ATOM      2  C   UNL     1      -1.130  12.492  21.468  0.00  0.00    +0.000 A 
ATOM      3  C   UNL     1      -0.759  11.575  20.508  0.00  0.00    +0.000 A 
ATOM      4  C   UNL     1      -1.546  11.258  19.411  0.00  0.00    +0.000 A 
ATOM      5  C   UNL     1      -2.791  11.846  19.260  0.00  0.00    +0.000 A 
ATOM      6  C   UNL     1      -3.178  12.785  20.243  0.00  0.00    +0.000 A 
ATOM      7  C   UNL     1      -0.825  10.267  18.555  0.00  0.00    +0.000 C 
ATOM      8  N   UNL     1       0.413  10.032  19.286  0.00  0.00    +0.000 N 
ATOM      9  C   UNL     1       0.471  10.788  20.455  0.00  0.00    +0.000 C 
ATOM     10  O   UNL     1       1.315  10.861  21.330  0.00  0.00    +0.000 OA
ENDROOT
BRANCH   1  18
ATOM     11  C   UNL     1      -4.919  14.577  23.298  0.00  0.00    +0.000 C 
ATOM     12  C   UNL     1      -3.607  13.796  23.399  0.00  0.00    +0.000 C 
ATOM     13  C   UNL     1      -2.850  14.108  24.724  0.00  0.00    +0.000 C 
ATOM     14  N   UNL     1      -2.322  15.490  24.787  0.00  0.00    +0.000 NA
ATOM     15  C   UNL     1      -1.622  15.726  26.046  0.00  0.00    +0.000 C 
ATOM     16  C   UNL     1      -1.417  15.713  23.637  0.00  0.00    +0.000 C 
ATOM     17  C   UNL     1      -2.100  15.446  22.278  0.00  0.00    +0.000 C 
ATOM     18  N   UNL     1      -2.748  14.119  22.240  0.00  0.00    +0.000 N 
ENDBRANCH   1  18
BRANCH   8  19
ATOM     19  C   UNL     1       1.358   9.067  18.868  0.00  0.00    +0.000 A 
ATOM     20  C   UNL     1       2.210   9.315  17.790  0.00  0.00    +0.000 A 
ATOM     21  C   UNL     1       3.195   8.401  17.427  0.00  0.00    +0.000 A 
ATOM     22  C   UNL     1       3.314   7.199  18.114  0.00  0.00    +0.000 A 
ATOM     23  C   UNL     1       2.443   6.886  19.163  0.00  0.00    +0.000 A 
ATOM     24  C   UNL     1       1.484   7.842  19.548  0.00  0.00    +0.000 A 
BRANCH  23  25
ATOM     25  C   UNL     1       2.494   5.529  19.873  0.00  0.00    +0.000 C 
ATOM     26  C   UNL     1       3.958   5.087  20.016  0.00  0.00    +0.000 C 
ATOM     27  F   UNL     1       2.032   5.615  21.167  0.00  0.00    +0.000 F 
BRANCH  25  28
ATOM     28  C   UNL     1       1.677   4.437  19.118  0.00  0.00    +0.000 C 
ATOM     29  F   UNL     1       0.534   4.161  19.826  0.00  0.00    +0.000 F 
ATOM     30  F   UNL     1       1.215   4.951  17.936  0.00  0.00    +0.000 F 
BRANCH  28  31
ATOM     31  C   UNL     1       2.434   3.176  18.840  0.00  0.00    +0.000 A 
ATOM     32  N   UNL     1       2.448   2.070  19.564  0.00  0.00    +0.000 NA
ATOM     33  N   UNL     1       3.297   1.169  18.971  0.00  0.00    +0.000 NA
ATOM     34  C   UNL     1       3.797   1.741  17.902  0.00  0.00    +0.000 A 
ATOM     35  N   UNL     1       3.291   2.998  17.781  0.00  0.00    +0.000 N 
ATOM     36  C   UNL     1       3.629   3.936  16.742  0.00  0.00    +0.000 C 
ENDBRANCH  28  31
ENDBRANCH  25  28
ENDBRANCH  23  25
ENDBRANCH   8  19
BRANCH   5  37
ATOM     37  C   UNL     1      -3.706  11.527  18.109  0.00  0.00    +0.000 C 
ATOM     38  F   UNL     1      -3.163  11.802  16.889  0.00  0.00    +0.000 F 
ATOM     39  F   UNL     1      -4.048  10.211  18.069  0.00  0.00    +0.000 F 
ATOM     40  F   UNL     1      -4.875  12.219  18.159  0.00  0.00    +0.000 F 
ENDBRANCH   5  37
TORSDOF 6
ENDMDL
