MODEL 1
REMARK VINA RESULT:     -10.4      0.000      0.000
REMARK  Name = 
REMARK  9 active torsions:
REMARK  status: ('A' for Active; 'I' for Inactive)
REMARK    1  A    between atoms: C_1  and  N_2
REMARK    2  A    between atoms: C_6  and  C_7
REMARK    3  A    between atoms: C_7  and  C_10
REMARK    4  A    between atoms: C_10  and  C_11
REMARK    5  A    between atoms: C_10  and  C_13
REMARK    6  A    between atoms: C_17  and  N_18
REMARK    7  A    between atoms: C_23  and  C_24
REMARK    8  A    between atoms: C_29  and  O_30
REMARK    9  A    between atoms: C_33  and  C_34
REMARK                            x       y       z     vdW  Elec       q    Type
REMARK                         _______ _______ _______ _____ _____    ______ ____
ROOT
ATOM      1  N   UNL     1       2.009   7.770  19.376  0.00  0.00    +0.000 N 
ATOM      2  C   UNL     1       1.393   8.091  20.640  0.00  0.00    +0.000 C 
ATOM      3  C   UNL     1       0.860   9.459  20.466  0.00  0.00    +0.000 A 
ATOM      4  C   UNL     1       1.143   9.928  19.187  0.00  0.00    +0.000 A 
ATOM      5  C   UNL     1       0.711  11.190  18.778  0.00  0.00    +0.000 A 
ATOM      6  C   UNL     1      -0.006  11.983  19.700  0.00  0.00    +0.000 A 
ATOM      7  C   UNL     1      -0.273  11.468  20.999  0.00  0.00    +0.000 A 
ATOM      8  C   UNL     1       0.152  10.199  21.403  0.00  0.00    +0.000 A 
ATOM      9  C   UNL     1       1.893   8.844  18.473  0.00  0.00    +0.000 C 
ATOM     10  O   UNL     1       2.299   8.960  17.328  0.00  0.00    +0.000 OA
ENDROOT
BRANCH   6  11
ATOM     11  C   UNL     1      -0.602  13.337  19.441  0.00  0.00    +0.000 C 
ATOM     12  O   UNL     1      -1.805  13.471  19.686  0.00  0.00    +0.000 OA
ATOM     13  N   UNL     1       0.148  14.424  19.033  0.00  0.00    +0.000 N 
ATOM     14  C   UNL     1      -0.459  15.752  19.044  0.00  0.00    +0.000 C 
ATOM     15  C   UNL     1       0.659  16.731  18.711  0.00  0.00    +0.000 C 
ATOM     16  C   UNL     1       1.934  15.954  19.015  0.00  0.00    +0.000 C 
ATOM     17  C   UNL     1       1.554  14.510  18.697  0.00  0.00    +0.000 C 
BRANCH  16  18
ATOM     18  O   UNL     1       3.028  16.418  18.245  0.00  0.00    +0.000 OA
ATOM     19  H   UNL     1       3.852  16.220  18.723  0.00  0.00    +0.000 HD
ENDBRANCH  16  18
ENDBRANCH   6  11
BRANCH   1  24
ATOM     20  C   UNL     1       4.313   5.143  17.963  0.00  0.00    +0.000 A 
ATOM     21  C   UNL     1       3.919   4.027  18.704  0.00  0.00    +0.000 A 
ATOM     22  C   UNL     1       2.928   4.144  19.695  0.00  0.00    +0.000 A 
ATOM     23  C   UNL     1       2.281   5.366  19.947  0.00  0.00    +0.000 A 
ATOM     24  C   UNL     1       2.651   6.505  19.239  0.00  0.00    +0.000 A 
ATOM     25  C   UNL     1       3.699   6.367  18.290  0.00  0.00    +0.000 A 
BRANCH  20  26
ATOM     26  C   UNL     1       5.191   5.081  16.691  0.00  0.00    +0.000 C 
ATOM     27  C   UNL     1       4.622   3.931  15.843  0.00  0.00    +0.000 C 
ATOM     28  F   UNL     1       5.001   6.220  15.920  0.00  0.00    +0.000 F 
BRANCH  26  29
ATOM     29  C   UNL     1       6.731   4.966  16.913  0.00  0.00    +0.000 C 
ATOM     30  F   UNL     1       7.336   4.587  15.749  0.00  0.00    +0.000 F 
ATOM     31  F   UNL     1       6.986   3.952  17.794  0.00  0.00    +0.000 F 
BRANCH  29  37
ATOM     32  C   UNL     1       8.052   5.686  19.777  0.00  0.00    +0.000 C 
ATOM     33  N   UNL     1       7.858   6.542  18.638  0.00  0.00    +0.000 N 
ATOM     34  C   UNL     1       8.196   7.865  18.617  0.00  0.00    +0.000 A 
ATOM     35  N   UNL     1       7.976   8.358  17.424  0.00  0.00    +0.000 NA
ATOM     36  N   UNL     1       7.462   7.350  16.652  0.00  0.00    +0.000 NA
ATOM     37  C   UNL     1       7.352   6.256  17.390  0.00  0.00    +0.000 A 
ENDBRANCH  29  37
ENDBRANCH  26  29
ENDBRANCH  20  26
ENDBRANCH   1  24
BRANCH   8  38
ATOM     38  C   UNL     1      -0.176   9.664  22.774  0.00  0.00    +0.000 C 
ATOM     39  F   UNL     1      -0.897  10.532  23.539  0.00  0.00    +0.000 F 
ATOM     40  F   UNL     1      -0.911   8.523  22.728  0.00  0.00    +0.000 F 
ATOM     41  F   UNL     1       0.938   9.381  23.499  0.00  0.00    +0.000 F 
ENDBRANCH   8  38
TORSDOF 7
ENDMDL
MODEL 2
REMARK VINA RESULT:     -10.4      0.685      1.272
REMARK  Name = 
REMARK  9 active torsions:
REMARK  status: ('A' for Active; 'I' for Inactive)
REMARK    1  A    between atoms: C_1  and  N_2
REMARK    2  A    between atoms: C_6  and  C_7
REMARK    3  A    between atoms: C_7  and  C_10
REMARK    4  A    between atoms: C_10  and  C_11
REMARK    5  A    between atoms: C_10  and  C_13
REMARK    6  A    between atoms: C_17  and  N_18
REMARK    7  A    between atoms: C_23  and  C_24
REMARK    8  A    between atoms: C_29  and  O_30
REMARK    9  A    between atoms: C_33  and  C_34
REMARK                            x       y       z     vdW  Elec       q    Type
REMARK                         _______ _______ _______ _____ _____    ______ ____
ROOT
ATOM      1  N   UNL     1       2.109   7.804  19.057  0.00  0.00    +0.000 N 
ATOM      2  C   UNL     1       1.491   8.031  20.340  0.00  0.00    +0.000 C 
ATOM      3  C   UNL     1       0.946   9.403  20.262  0.00  0.00    +0.000 A 
ATOM      4  C   UNL     1       1.223   9.962  19.018  0.00  0.00    +0.000 A 
ATOM      5  C   UNL     1       0.779  11.245  18.698  0.00  0.00    +0.000 A 
ATOM      6  C   UNL     1       0.056  11.965  19.673  0.00  0.00    +0.000 A 
ATOM      7  C   UNL     1      -0.206  11.360  20.933  0.00  0.00    +0.000 A 
ATOM      8  C   UNL     1       0.231  10.069  21.248  0.00  0.00    +0.000 A 
ATOM      9  C   UNL     1       1.983   8.937  18.231  0.00  0.00    +0.000 C 
ATOM     10  O   UNL     1       2.387   9.136  17.097  0.00  0.00    +0.000 OA
ENDROOT
BRANCH   6  11
ATOM     11  C   UNL     1      -0.553  13.329  19.510  0.00  0.00    +0.000 C 
ATOM     12  O   UNL     1      -1.750  13.441  19.793  0.00  0.00    +0.000 OA
ATOM     13  N   UNL     1       0.181  14.442  19.146  0.00  0.00    +0.000 N 
ATOM     14  C   UNL     1      -0.431  15.764  19.250  0.00  0.00    +0.000 C 
ATOM     15  C   UNL     1       0.673  16.767  18.946  0.00  0.00    +0.000 C 
ATOM     16  C   UNL     1       1.959  15.982  19.172  0.00  0.00    +0.000 C 
ATOM     17  C   UNL     1       1.577  14.557  18.780  0.00  0.00    +0.000 C 
BRANCH  16  18
ATOM     18  O   UNL     1       3.031  16.496  18.401  0.00  0.00    +0.000 OA
ATOM     19  H   UNL     1       3.476  15.756  17.954  0.00  0.00    +0.000 HD
ENDBRANCH  16  18
ENDBRANCH   6  11
BRANCH   1  24
ATOM     20  C   UNL     1       4.396   5.289  17.430  0.00  0.00    +0.000 A 
ATOM     21  C   UNL     1       4.044   4.130  18.126  0.00  0.00    +0.000 A 
ATOM     22  C   UNL     1       3.087   4.181  19.155  0.00  0.00    +0.000 A 
ATOM     23  C   UNL     1       2.433   5.378  19.493  0.00  0.00    +0.000 A 
ATOM     24  C   UNL     1       2.763   6.557  18.832  0.00  0.00    +0.000 A 
ATOM     25  C   UNL     1       3.778   6.485  17.841  0.00  0.00    +0.000 A 
BRANCH  20  26
ATOM     26  C   UNL     1       5.229   5.306  16.127  0.00  0.00    +0.000 C 
ATOM     27  C   UNL     1       4.524   4.335  15.164  0.00  0.00    +0.000 C 
ATOM     28  F   UNL     1       5.137   6.547  15.513  0.00  0.00    +0.000 F 
BRANCH  26  29
ATOM     29  C   UNL     1       6.755   5.012  16.272  0.00  0.00    +0.000 C 
ATOM     30  F   UNL     1       7.447   5.691  15.309  0.00  0.00    +0.000 F 
ATOM     31  F   UNL     1       6.987   3.691  16.014  0.00  0.00    +0.000 F 
BRANCH  29  37
ATOM     32  C   UNL     1       7.436   7.939  17.469  0.00  0.00    +0.000 C 
ATOM     33  N   UNL     1       7.627   6.652  18.083  0.00  0.00    +0.000 N 
ATOM     34  C   UNL     1       8.184   6.476  19.317  0.00  0.00    +0.000 A 
ATOM     35  N   UNL     1       8.151   5.207  19.638  0.00  0.00    +0.000 NA
ATOM     36  N   UNL     1       7.586   4.532  18.589  0.00  0.00    +0.000 NA
ATOM     37  C   UNL     1       7.298   5.395  17.627  0.00  0.00    +0.000 A 
ENDBRANCH  29  37
ENDBRANCH  26  29
ENDBRANCH  20  26
ENDBRANCH   1  24
BRANCH   8  38
ATOM     38  C   UNL     1      -0.090   9.437  22.579  0.00  0.00    +0.000 C 
ATOM     39  F   UNL     1      -0.747   8.247  22.473  0.00  0.00    +0.000 F 
ATOM     40  F   UNL     1       1.021   9.174  23.314  0.00  0.00    +0.000 F 
ATOM     41  F   UNL     1      -0.888  10.225  23.347  0.00  0.00    +0.000 F 
ENDBRANCH   8  38
TORSDOF 7
ENDMDL
MODEL 3
REMARK VINA RESULT:     -10.3      1.534      2.368
REMARK  Name = 
REMARK  9 active torsions:
REMARK  status: ('A' for Active; 'I' for Inactive)
REMARK    1  A    between atoms: C_1  and  N_2
REMARK    2  A    between atoms: C_6  and  C_7
REMARK    3  A    between atoms: C_7  and  C_10
REMARK    4  A    between atoms: C_10  and  C_11
REMARK    5  A    between atoms: C_10  and  C_13
REMARK    6  A    between atoms: C_17  and  N_18
REMARK    7  A    between atoms: C_23  and  C_24
REMARK    8  A    between atoms: C_29  and  O_30
REMARK    9  A    between atoms: C_33  and  C_34
REMARK                            x       y       z     vdW  Elec       q    Type
REMARK                         _______ _______ _______ _____ _____    ______ ____
ROOT
ATOM      1  N   UNL     1       2.302   7.436  19.212  0.00  0.00    +0.000 N 
ATOM      2  C   UNL     1       1.665   7.795  20.455  0.00  0.00    +0.000 C 
ATOM      3  C   UNL     1       1.117   9.148  20.225  0.00  0.00    +0.000 A 
ATOM      4  C   UNL     1       1.410   9.574  18.933  0.00  0.00    +0.000 A 
ATOM      5  C   UNL     1       0.966  10.814  18.473  0.00  0.00    +0.000 A 
ATOM      6  C   UNL     1       0.226  11.630  19.356  0.00  0.00    +0.000 A 
ATOM      7  C   UNL     1      -0.051  11.159  20.669  0.00  0.00    +0.000 A 
ATOM      8  C   UNL     1       0.386   9.911  21.125  0.00  0.00    +0.000 A 
ATOM      9  C   UNL     1       2.184   8.475  18.269  0.00  0.00    +0.000 C 
ATOM     10  O   UNL     1       2.603   8.556  17.126  0.00  0.00    +0.000 OA
ENDROOT
BRANCH   6  11
ATOM     11  C   UNL     1      -0.384  12.966  19.041  0.00  0.00    +0.000 C 
ATOM     12  O   UNL     1      -1.618  13.026  19.039  0.00  0.00    +0.000 OA
ATOM     13  N   UNL     1       0.367  14.109  18.843  0.00  0.00    +0.000 N 
ATOM     14  C   UNL     1      -0.308  15.403  18.788  0.00  0.00    +0.000 C 
ATOM     15  C   UNL     1       0.794  16.453  18.735  0.00  0.00    +0.000 C 
ATOM     16  C   UNL     1       2.025  15.724  19.260  0.00  0.00    +0.000 C 
ATOM     17  C   UNL     1       1.804  14.283  18.807  0.00  0.00    +0.000 C 
BRANCH  16  18
ATOM     18  O   UNL     1       3.223  16.283  18.752  0.00  0.00    +0.000 OA
ATOM     19  H   UNL     1       3.305  16.042  17.813  0.00  0.00    +0.000 HD
ENDBRANCH  16  18
ENDBRANCH   6  11
BRANCH   1  24
ATOM     20  C   UNL     1       4.881   4.893  18.172  0.00  0.00    +0.000 A 
ATOM     21  C   UNL     1       4.331   3.729  18.711  0.00  0.00    +0.000 A 
ATOM     22  C   UNL     1       3.136   3.783  19.451  0.00  0.00    +0.000 A 
ATOM     23  C   UNL     1       2.443   4.992  19.641  0.00  0.00    +0.000 A 
ATOM     24  C   UNL     1       2.964   6.176  19.129  0.00  0.00    +0.000 A 
ATOM     25  C   UNL     1       4.204   6.097  18.441  0.00  0.00    +0.000 A 
BRANCH  20  26
ATOM     26  C   UNL     1       6.031   4.916  17.138  0.00  0.00    +0.000 C 
ATOM     27  C   UNL     1       6.420   6.396  16.974  0.00  0.00    +0.000 C 
ATOM     28  F   UNL     1       7.162   4.306  17.662  0.00  0.00    +0.000 F 
BRANCH  26  29
ATOM     29  C   UNL     1       5.756   4.209  15.774  0.00  0.00    +0.000 C 
ATOM     30  F   UNL     1       4.460   4.421  15.399  0.00  0.00    +0.000 F 
ATOM     31  F   UNL     1       5.863   2.856  15.938  0.00  0.00    +0.000 F 
BRANCH  29  37
ATOM     32  C   UNL     1       5.742   3.480  12.623  0.00  0.00    +0.000 C 
ATOM     33  N   UNL     1       6.665   4.312  13.347  0.00  0.00    +0.000 N 
ATOM     34  C   UNL     1       7.746   4.920  12.776  0.00  0.00    +0.000 A 
ATOM     35  N   UNL     1       8.349   5.671  13.664  0.00  0.00    +0.000 NA
ATOM     36  N   UNL     1       7.669   5.537  14.845  0.00  0.00    +0.000 NA
ATOM     37  C   UNL     1       6.669   4.687  14.672  0.00  0.00    +0.000 A 
ENDBRANCH  29  37
ENDBRANCH  26  29
ENDBRANCH  20  26
ENDBRANCH   1  24
BRANCH   8  38
ATOM     38  C   UNL     1       0.047   9.422  22.510  0.00  0.00    +0.000 C 
ATOM     39  F   UNL     1      -0.625  10.339  23.263  0.00  0.00    +0.000 F 
ATOM     40  F   UNL     1      -0.741   8.316  22.496  0.00  0.00    +0.000 F 
ATOM     41  F   UNL     1       1.154   9.102  23.232  0.00  0.00    +0.000 F 
ENDBRANCH   8  38
TORSDOF 7
ENDMDL
MODEL 4
REMARK VINA RESULT:     -10.1      1.627      2.397
REMARK  Name = 
REMARK  9 active torsions:
REMARK  status: ('A' for Active; 'I' for Inactive)
REMARK    1  A    between atoms: C_1  and  N_2
REMARK    2  A    between atoms: C_6  and  C_7
REMARK    3  A    between atoms: C_7  and  C_10
REMARK    4  A    between atoms: C_10  and  C_11
REMARK    5  A    between atoms: C_10  and  C_13
REMARK    6  A    between atoms: C_17  and  N_18
REMARK    7  A    between atoms: C_23  and  C_24
REMARK    8  A    between atoms: C_29  and  O_30
REMARK    9  A    between atoms: C_33  and  C_34
REMARK                            x       y       z     vdW  Elec       q    Type
REMARK                         _______ _______ _______ _____ _____    ______ ____
ROOT
ATOM      1  N   UNL     1       1.959   8.017  19.147  0.00  0.00    +0.000 N 
ATOM      2  C   UNL     1       1.376   8.212  20.452  0.00  0.00    +0.000 C 
ATOM      3  C   UNL     1       0.782   9.565  20.405  0.00  0.00    +0.000 A 
ATOM      4  C   UNL     1       0.999  10.143  19.158  0.00  0.00    +0.000 A 
ATOM      5  C   UNL     1       0.501  11.413  18.865  0.00  0.00    +0.000 A 
ATOM      6  C   UNL     1      -0.215  12.099  19.869  0.00  0.00    +0.000 A 
ATOM      7  C   UNL     1      -0.415  11.474  21.131  0.00  0.00    +0.000 A 
ATOM      8  C   UNL     1       0.077  10.197  21.419  0.00  0.00    +0.000 A 
ATOM      9  C   UNL     1       1.768   9.153  18.336  0.00  0.00    +0.000 C 
ATOM     10  O   UNL     1       2.127   9.375  17.192  0.00  0.00    +0.000 OA
ENDROOT
BRANCH   6  11
ATOM     11  C   UNL     1      -0.875  13.442  19.739  0.00  0.00    +0.000 C 
ATOM     12  O   UNL     1      -2.070  13.506  20.046  0.00  0.00    +0.000 OA
ATOM     13  N   UNL     1      -0.189  14.586  19.379  0.00  0.00    +0.000 N 
ATOM     14  C   UNL     1      -0.847  15.883  19.515  0.00  0.00    +0.000 C 
ATOM     15  C   UNL     1       0.214  16.931  19.206  0.00  0.00    +0.000 C 
ATOM     16  C   UNL     1       1.532  16.189  19.396  0.00  0.00    +0.000 C 
ATOM     17  C   UNL     1       1.195  14.757  18.988  0.00  0.00    +0.000 C 
BRANCH  16  18
ATOM     18  O   UNL     1       2.570  16.754  18.614  0.00  0.00    +0.000 OA
ATOM     19  H   UNL     1       3.210  17.182  19.208  0.00  0.00    +0.000 HD
ENDBRANCH  16  18
ENDBRANCH   6  11
BRANCH   1  24
ATOM     20  C   UNL     1       4.522   5.684  17.667  0.00  0.00    +0.000 A 
ATOM     21  C   UNL     1       4.049   4.453  18.127  0.00  0.00    +0.000 A 
ATOM     22  C   UNL     1       2.914   4.391  18.955  0.00  0.00    +0.000 A 
ATOM     23  C   UNL     1       2.203   5.550  19.316  0.00  0.00    +0.000 A 
ATOM     24  C   UNL     1       2.649   6.796  18.889  0.00  0.00    +0.000 A 
ATOM     25  C   UNL     1       3.833   6.830  18.107  0.00  0.00    +0.000 A 
BRANCH  20  26
ATOM     26  C   UNL     1       5.587   5.850  16.559  0.00  0.00    +0.000 C 
ATOM     27  C   UNL     1       5.013   6.884  15.575  0.00  0.00    +0.000 C 
ATOM     28  F   UNL     1       6.730   6.446  17.075  0.00  0.00    +0.000 F 
BRANCH  26  29
ATOM     29  C   UNL     1       6.068   4.544  15.852  0.00  0.00    +0.000 C 
ATOM     30  F   UNL     1       4.992   3.745  15.585  0.00  0.00    +0.000 F 
ATOM     31  F   UNL     1       6.843   3.823  16.716  0.00  0.00    +0.000 F 
BRANCH  29  37
ATOM     32  C   UNL     1       5.482   3.447  12.866  0.00  0.00    +0.000 C 
ATOM     33  N   UNL     1       6.561   4.284  13.319  0.00  0.00    +0.000 N 
ATOM     34  C   UNL     1       7.564   4.732  12.509  0.00  0.00    +0.000 A 
ATOM     35  N   UNL     1       8.350   5.534  13.183  0.00  0.00    +0.000 NA
ATOM     36  N   UNL     1       7.872   5.596  14.465  0.00  0.00    +0.000 NA
ATOM     37  C   UNL     1       6.809   4.813  14.566  0.00  0.00    +0.000 A 
ENDBRANCH  29  37
ENDBRANCH  26  29
ENDBRANCH  20  26
ENDBRANCH   1  24
BRANCH   8  38
ATOM     38  C   UNL     1      -0.179   9.543  22.753  0.00  0.00    +0.000 C 
ATOM     39  F   UNL     1       0.959   9.231  23.435  0.00  0.00    +0.000 F 
ATOM     40  F   UNL     1      -0.900  10.332  23.592  0.00  0.00    +0.000 F 
ATOM     41  F   UNL     1      -0.863   8.374  22.636  0.00  0.00    +0.000 F 
ENDBRANCH   8  38
TORSDOF 7
ENDMDL
MODEL 5
REMARK VINA RESULT:     -10.0      1.236      2.290
REMARK  Name = 
REMARK  9 active torsions:
REMARK  status: ('A' for Active; 'I' for Inactive)
REMARK    1  A    between atoms: C_1  and  N_2
REMARK    2  A    between atoms: C_6  and  C_7
REMARK    3  A    between atoms: C_7  and  C_10
REMARK    4  A    between atoms: C_10  and  C_11
REMARK    5  A    between atoms: C_10  and  C_13
REMARK    6  A    between atoms: C_17  and  N_18
REMARK    7  A    between atoms: C_23  and  C_24
REMARK    8  A    between atoms: C_29  and  O_30
REMARK    9  A    between atoms: C_33  and  C_34
REMARK                            x       y       z     vdW  Elec       q    Type
REMARK                         _______ _______ _______ _____ _____    ______ ____
ROOT
ATOM      1  N   UNL     1       2.180   7.548  19.532  0.00  0.00    +0.000 N 
ATOM      2  C   UNL     1       1.502   7.923  20.748  0.00  0.00    +0.000 C 
ATOM      3  C   UNL     1       0.937   9.261  20.472  0.00  0.00    +0.000 A 
ATOM      4  C   UNL     1       1.258   9.662  19.178  0.00  0.00    +0.000 A 
ATOM      5  C   UNL     1       0.806  10.883  18.677  0.00  0.00    +0.000 A 
ATOM      6  C   UNL     1       0.028  11.705  19.520  0.00  0.00    +0.000 A 
ATOM      7  C   UNL     1      -0.278  11.260  20.836  0.00  0.00    +0.000 A 
ATOM      8  C   UNL     1       0.168  10.031  21.332  0.00  0.00    +0.000 A 
ATOM      9  C   UNL     1       2.070   8.562  18.561  0.00  0.00    +0.000 C 
ATOM     10  O   UNL     1       2.520   8.624  17.429  0.00  0.00    +0.000 OA
ENDROOT
BRANCH   6  11
ATOM     11  C   UNL     1      -0.597  13.022  19.157  0.00  0.00    +0.000 C 
ATOM     12  O   UNL     1      -1.830  13.081  19.193  0.00  0.00    +0.000 OA
ATOM     13  N   UNL     1       0.144  14.154  18.875  0.00  0.00    +0.000 N 
ATOM     14  C   UNL     1      -0.536  15.443  18.776  0.00  0.00    +0.000 C 
ATOM     15  C   UNL     1       0.560  16.490  18.632  0.00  0.00    +0.000 C 
ATOM     16  C   UNL     1       1.810  15.791  19.153  0.00  0.00    +0.000 C 
ATOM     17  C   UNL     1       1.578  14.328  18.782  0.00  0.00    +0.000 C 
BRANCH  16  18
ATOM     18  O   UNL     1       2.989  16.324  18.576  0.00  0.00    +0.000 OA
ATOM     19  H   UNL     1       3.739  15.754  18.818  0.00  0.00    +0.000 HD
ENDBRANCH  16  18
ENDBRANCH   6  11
BRANCH   1  24
ATOM     20  C   UNL     1       5.011   5.117  19.009  0.00  0.00    +0.000 A 
ATOM     21  C   UNL     1       4.352   3.902  19.211  0.00  0.00    +0.000 A 
ATOM     22  C   UNL     1       2.989   3.882  19.558  0.00  0.00    +0.000 A 
ATOM     23  C   UNL     1       2.243   5.067  19.679  0.00  0.00    +0.000 A 
ATOM     24  C   UNL     1       2.865   6.298  19.497  0.00  0.00    +0.000 A 
ATOM     25  C   UNL     1       4.256   6.287  19.209  0.00  0.00    +0.000 A 
BRANCH  20  26
ATOM     26  C   UNL     1       6.417   5.252  18.378  0.00  0.00    +0.000 C 
ATOM     27  C   UNL     1       7.355   5.668  19.525  0.00  0.00    +0.000 C 
ATOM     28  F   UNL     1       6.883   4.010  17.970  0.00  0.00    +0.000 F 
BRANCH  26  29
ATOM     29  C   UNL     1       6.535   6.184  17.132  0.00  0.00    +0.000 C 
ATOM     30  F   UNL     1       7.672   6.936  17.227  0.00  0.00    +0.000 F 
ATOM     31  F   UNL     1       5.509   7.086  17.144  0.00  0.00    +0.000 F 
BRANCH  29  37
ATOM     32  C   UNL     1       4.297   4.243  15.834  0.00  0.00    +0.000 C 
ATOM     33  N   UNL     1       5.608   4.559  15.335  0.00  0.00    +0.000 N 
ATOM     34  C   UNL     1       6.133   4.028  14.192  0.00  0.00    +0.000 A 
ATOM     35  N   UNL     1       7.305   4.563  13.955  0.00  0.00    +0.000 NA
ATOM     36  N   UNL     1       7.567   5.444  14.970  0.00  0.00    +0.000 NA
ATOM     37  C   UNL     1       6.561   5.421  15.831  0.00  0.00    +0.000 A 
ENDBRANCH  29  37
ENDBRANCH  26  29
ENDBRANCH  20  26
ENDBRANCH   1  24
BRANCH   8  38
ATOM     38  C   UNL     1      -0.201   9.568  22.719  0.00  0.00    +0.000 C 
ATOM     39  F   UNL     1       0.878   9.319  23.515  0.00  0.00    +0.000 F 
ATOM     40  F   UNL     1      -0.946  10.482  23.394  0.00  0.00    +0.000 F 
ATOM     41  F   UNL     1      -0.917   8.413  22.708  0.00  0.00    +0.000 F 
ENDBRANCH   8  38
TORSDOF 7
ENDMDL
MODEL 6
REMARK VINA RESULT:      -9.9      1.480      2.021
REMARK  Name = 
REMARK  9 active torsions:
REMARK  status: ('A' for Active; 'I' for Inactive)
REMARK    1  A    between atoms: C_1  and  N_2
REMARK    2  A    between atoms: C_6  and  C_7
REMARK    3  A    between atoms: C_7  and  C_10
REMARK    4  A    between atoms: C_10  and  C_11
REMARK    5  A    between atoms: C_10  and  C_13
REMARK    6  A    between atoms: C_17  and  N_18
REMARK    7  A    between atoms: C_23  and  C_24
REMARK    8  A    between atoms: C_29  and  O_30
REMARK    9  A    between atoms: C_33  and  C_34
REMARK                            x       y       z     vdW  Elec       q    Type
REMARK                         _______ _______ _______ _____ _____    ______ ____
ROOT
ATOM      1  N   UNL     1       2.147   7.778  18.956  0.00  0.00    +0.000 N 
ATOM      2  C   UNL     1       1.557   7.979  20.257  0.00  0.00    +0.000 C 
ATOM      3  C   UNL     1       1.059   9.371  20.238  0.00  0.00    +0.000 A 
ATOM      4  C   UNL     1       1.337   9.965  19.010  0.00  0.00    +0.000 A 
ATOM      5  C   UNL     1       0.933  11.274  18.744  0.00  0.00    +0.000 A 
ATOM      6  C   UNL     1       0.251  11.982  19.757  0.00  0.00    +0.000 A 
ATOM      7  C   UNL     1      -0.012  11.340  20.998  0.00  0.00    +0.000 A 
ATOM      8  C   UNL     1       0.384  10.024  21.258  0.00  0.00    +0.000 A 
ATOM      9  C   UNL     1       2.048   8.944  18.173  0.00  0.00    +0.000 C 
ATOM     10  O   UNL     1       2.441   9.171  17.041  0.00  0.00    +0.000 OA
ENDROOT
BRANCH   6  11
ATOM     11  C   UNL     1      -0.312  13.371  19.653  0.00  0.00    +0.000 C 
ATOM     12  O   UNL     1      -0.762  13.707  18.553  0.00  0.00    +0.000 OA
ATOM     13  N   UNL     1      -0.414  14.224  20.735  0.00  0.00    +0.000 N 
ATOM     14  C   UNL     1      -1.193  15.453  20.601  0.00  0.00    +0.000 C 
ATOM     15  C   UNL     1      -1.250  16.071  21.992  0.00  0.00    +0.000 C 
ATOM     16  C   UNL     1      -0.924  14.912  22.926  0.00  0.00    +0.000 C 
ATOM     17  C   UNL     1       0.030  14.051  22.102  0.00  0.00    +0.000 C 
BRANCH  16  18
ATOM     18  O   UNL     1      -0.351  15.361  24.140  0.00  0.00    +0.000 OA
ATOM     19  H   UNL     1       0.197  16.144  23.956  0.00  0.00    +0.000 HD
ENDBRANCH  16  18
ENDBRANCH   6  11
BRANCH   1  24
ATOM     20  C   UNL     1       4.396   5.269  17.268  0.00  0.00    +0.000 A 
ATOM     21  C   UNL     1       3.956   4.085  17.861  0.00  0.00    +0.000 A 
ATOM     22  C   UNL     1       2.950   4.112  18.844  0.00  0.00    +0.000 A 
ATOM     23  C   UNL     1       2.335   5.315  19.233  0.00  0.00    +0.000 A 
ATOM     24  C   UNL     1       2.753   6.519  18.675  0.00  0.00    +0.000 A 
ATOM     25  C   UNL     1       3.814   6.464  17.732  0.00  0.00    +0.000 A 
BRANCH  20  26
ATOM     26  C   UNL     1       5.296   5.334  16.011  0.00  0.00    +0.000 C 
ATOM     27  C   UNL     1       4.625   4.426  14.966  0.00  0.00    +0.000 C 
ATOM     28  F   UNL     1       5.256   6.606  15.456  0.00  0.00    +0.000 F 
BRANCH  26  29
ATOM     29  C   UNL     1       6.807   5.004  16.218  0.00  0.00    +0.000 C 
ATOM     30  F   UNL     1       7.553   5.661  15.281  0.00  0.00    +0.000 F 
ATOM     31  F   UNL     1       7.017   3.676  15.975  0.00  0.00    +0.000 F 
BRANCH  29  37
ATOM     32  C   UNL     1       7.522   7.919  17.425  0.00  0.00    +0.000 C 
ATOM     33  N   UNL     1       7.650   6.631  18.054  0.00  0.00    +0.000 N 
ATOM     34  C   UNL     1       8.151   6.448  19.311  0.00  0.00    +0.000 A 
ATOM     35  N   UNL     1       8.069   5.182  19.638  0.00  0.00    +0.000 NA
ATOM     36  N   UNL     1       7.528   4.517  18.570  0.00  0.00    +0.000 NA
ATOM     37  C   UNL     1       7.305   5.381  17.592  0.00  0.00    +0.000 A 
ENDBRANCH  29  37
ENDBRANCH  26  29
ENDBRANCH  20  26
ENDBRANCH   1  24
BRANCH   8  38
ATOM     38  C   UNL     1       0.061   9.356  22.571  0.00  0.00    +0.000 C 
ATOM     39  F   UNL     1      -0.629  10.153  23.434  0.00  0.00    +0.000 F 
ATOM     40  F   UNL     1      -0.702   8.242  22.416  0.00  0.00    +0.000 F 
ATOM     41  F   UNL     1       1.177   8.972  23.245  0.00  0.00    +0.000 F 
ENDBRANCH   8  38
TORSDOF 7
ENDMDL
MODEL 7
REMARK VINA RESULT:      -9.9      1.387      1.940
REMARK  Name = 
REMARK  9 active torsions:
REMARK  status: ('A' for Active; 'I' for Inactive)
REMARK    1  A    between atoms: C_1  and  N_2
REMARK    2  A    between atoms: C_6  and  C_7
REMARK    3  A    between atoms: C_7  and  C_10
REMARK    4  A    between atoms: C_10  and  C_11
REMARK    5  A    between atoms: C_10  and  C_13
REMARK    6  A    between atoms: C_17  and  N_18
REMARK    7  A    between atoms: C_23  and  C_24
REMARK    8  A    between atoms: C_29  and  O_30
REMARK    9  A    between atoms: C_33  and  C_34
REMARK                            x       y       z     vdW  Elec       q    Type
REMARK                         _______ _______ _______ _____ _____    ______ ____
ROOT
ATOM      1  N   UNL     1       1.873   7.230  19.881  0.00  0.00    +0.000 N 
ATOM      2  C   UNL     1       1.222   7.824  21.024  0.00  0.00    +0.000 C 
ATOM      3  C   UNL     1       0.943   9.218  20.621  0.00  0.00    +0.000 A 
ATOM      4  C   UNL     1       1.400   9.446  19.326  0.00  0.00    +0.000 A 
ATOM      5  C   UNL     1       1.221  10.687  18.715  0.00  0.00    +0.000 A 
ATOM      6  C   UNL     1       0.577  11.707  19.448  0.00  0.00    +0.000 A 
ATOM      7  C   UNL     1       0.126  11.435  20.769  0.00  0.00    +0.000 A 
ATOM      8  C   UNL     1       0.298  10.187  21.376  0.00  0.00    +0.000 A 
ATOM      9  C   UNL     1       2.012   8.167  18.839  0.00  0.00    +0.000 C 
ATOM     10  O   UNL     1       2.520   8.051  17.736  0.00  0.00    +0.000 OA
ENDROOT
BRANCH   6  11
ATOM     11  C   UNL     1       0.241  13.087  18.956  0.00  0.00    +0.000 C 
ATOM     12  O   UNL     1      -0.872  13.236  18.442  0.00  0.00    +0.000 OA
ATOM     13  N   UNL     1       1.076  14.173  19.133  0.00  0.00    +0.000 N 
ATOM     14  C   UNL     1       0.569  15.513  18.849  0.00  0.00    +0.000 C 
ATOM     15  C   UNL     1       1.656  16.481  19.299  0.00  0.00    +0.000 C 
ATOM     16  C   UNL     1       2.505  15.660  20.262  0.00  0.00    +0.000 C 
ATOM     17  C   UNL     1       2.404  14.243  19.706  0.00  0.00    +0.000 C 
BRANCH  16  18
ATOM     18  O   UNL     1       3.838  16.134  20.322  0.00  0.00    +0.000 OA
ATOM     19  H   UNL     1       4.186  16.201  19.415  0.00  0.00    +0.000 HD
ENDBRANCH  16  18
ENDBRANCH   6  11
BRANCH   1  24
ATOM     20  C   UNL     1       3.317   3.926  18.786  0.00  0.00    +0.000 A 
ATOM     21  C   UNL     1       3.066   3.145  19.917  0.00  0.00    +0.000 A 
ATOM     22  C   UNL     1       2.461   3.712  21.053  0.00  0.00    +0.000 A 
ATOM     23  C   UNL     1       2.060   5.059  21.078  0.00  0.00    +0.000 A 
ATOM     24  C   UNL     1       2.302   5.874  19.976  0.00  0.00    +0.000 A 
ATOM     25  C   UNL     1       2.971   5.288  18.869  0.00  0.00    +0.000 A 
BRANCH  20  26
ATOM     26  C   UNL     1       3.731   3.358  17.409  0.00  0.00    +0.000 C 
ATOM     27  C   UNL     1       3.936   1.848  17.620  0.00  0.00    +0.000 C 
ATOM     28  F   UNL     1       2.675   3.452  16.512  0.00  0.00    +0.000 F 
BRANCH  26  29
ATOM     29  C   UNL     1       4.947   4.043  16.710  0.00  0.00    +0.000 C 
ATOM     30  F   UNL     1       4.499   4.973  15.815  0.00  0.00    +0.000 F 
ATOM     31  F   UNL     1       5.616   3.118  15.959  0.00  0.00    +0.000 F 
BRANCH  29  37
ATOM     32  C   UNL     1       5.838   7.146  16.912  0.00  0.00    +0.000 C 
ATOM     33  N   UNL     1       6.279   6.032  17.709  0.00  0.00    +0.000 N 
ATOM     34  C   UNL     1       7.214   6.131  18.699  0.00  0.00    +0.000 A 
ATOM     35  N   UNL     1       7.347   4.974  19.296  0.00  0.00    +0.000 NA
ATOM     36  N   UNL     1       6.505   4.091  18.674  0.00  0.00    +0.000 NA
ATOM     37  C   UNL     1       5.881   4.714  17.687  0.00  0.00    +0.000 A 
ENDBRANCH  29  37
ENDBRANCH  26  29
ENDBRANCH  20  26
ENDBRANCH   1  24
BRANCH   8  38
ATOM     38  C   UNL     1      -0.222   9.915  22.765  0.00  0.00    +0.000 C 
ATOM     39  F   UNL     1      -1.110   8.881  22.822  0.00  0.00    +0.000 F 
ATOM     40  F   UNL     1       0.767   9.592  23.639  0.00  0.00    +0.000 F 
ATOM     41  F   UNL     1      -0.875  10.983  23.293  0.00  0.00    +0.000 F 
ENDBRANCH   8  38
TORSDOF 7
ENDMDL
MODEL 8
REMARK VINA RESULT:      -9.7      1.931      2.687
REMARK  Name = 
REMARK  9 active torsions:
REMARK  status: ('A' for Active; 'I' for Inactive)
REMARK    1  A    between atoms: C_1  and  N_2
REMARK    2  A    between atoms: C_6  and  C_7
REMARK    3  A    between atoms: C_7  and  C_10
REMARK    4  A    between atoms: C_10  and  C_11
REMARK    5  A    between atoms: C_10  and  C_13
REMARK    6  A    between atoms: C_17  and  N_18
REMARK    7  A    between atoms: C_23  and  C_24
REMARK    8  A    between atoms: C_29  and  O_30
REMARK    9  A    between atoms: C_33  and  C_34
REMARK                            x       y       z     vdW  Elec       q    Type
REMARK                         _______ _______ _______ _____ _____    ______ ____
ROOT
ATOM      1  N   UNL     1       2.050   7.644  19.144  0.00  0.00    +0.000 N 
ATOM      2  C   UNL     1       1.447   7.955  20.417  0.00  0.00    +0.000 C 
ATOM      3  C   UNL     1       1.009   9.362  20.298  0.00  0.00    +0.000 A 
ATOM      4  C   UNL     1       1.333   9.862  19.040  0.00  0.00    +0.000 A 
ATOM      5  C   UNL     1       0.990  11.166  18.681  0.00  0.00    +0.000 A 
ATOM      6  C   UNL     1       0.321  11.967  19.631  0.00  0.00    +0.000 A 
ATOM      7  C   UNL     1       0.010  11.420  20.906  0.00  0.00    +0.000 A 
ATOM      8  C   UNL     1       0.345  10.109  21.260  0.00  0.00    +0.000 A 
ATOM      9  C   UNL     1       2.014   8.760  18.285  0.00  0.00    +0.000 C 
ATOM     10  O   UNL     1       2.435   8.895  17.148  0.00  0.00    +0.000 OA
ENDROOT
BRANCH   6  11
ATOM     11  C   UNL     1      -0.180  13.368  19.426  0.00  0.00    +0.000 C 
ATOM     12  O   UNL     1      -0.827  13.582  18.395  0.00  0.00    +0.000 OA
ATOM     13  N   UNL     1      -0.018  14.371  20.363  0.00  0.00    +0.000 N 
ATOM     14  C   UNL     1      -0.745  15.627  20.195  0.00  0.00    +0.000 C 
ATOM     15  C   UNL     1      -0.488  16.437  21.459  0.00  0.00    +0.000 C 
ATOM     16  C   UNL     1      -0.039  15.397  22.479  0.00  0.00    +0.000 C 
ATOM     17  C   UNL     1       0.684  14.356  21.629  0.00  0.00    +0.000 C 
BRANCH  16  18
ATOM     18  O   UNL     1       0.791  15.965  23.477  0.00  0.00    +0.000 OA
ATOM     19  H   UNL     1       0.763  15.397  24.265  0.00  0.00    +0.000 HD
ENDBRANCH  16  18
ENDBRANCH   6  11
BRANCH   1  24
ATOM     20  C   UNL     1       4.487   5.006  18.003  0.00  0.00    +0.000 A 
ATOM     21  C   UNL     1       3.793   3.845  18.349  0.00  0.00    +0.000 A 
ATOM     22  C   UNL     1       2.545   3.926  18.993  0.00  0.00    +0.000 A 
ATOM     23  C   UNL     1       1.943   5.165  19.276  0.00  0.00    +0.000 A 
ATOM     24  C   UNL     1       2.607   6.345  18.958  0.00  0.00    +0.000 A 
ATOM     25  C   UNL     1       3.892   6.229  18.366  0.00  0.00    +0.000 A 
BRANCH  20  26
ATOM     26  C   UNL     1       5.722   5.040  17.073  0.00  0.00    +0.000 C 
ATOM     27  C   UNL     1       6.029   6.529  16.835  0.00  0.00    +0.000 C 
ATOM     28  F   UNL     1       6.838   4.548  17.737  0.00  0.00    +0.000 F 
BRANCH  26  29
ATOM     29  C   UNL     1       5.619   4.224  15.747  0.00  0.00    +0.000 C 
ATOM     30  F   UNL     1       4.351   4.316  15.248  0.00  0.00    +0.000 F 
ATOM     31  F   UNL     1       5.800   2.897  16.019  0.00  0.00    +0.000 F 
BRANCH  29  37
ATOM     32  C   UNL     1       5.730   3.538  12.588  0.00  0.00    +0.000 C 
ATOM     33  N   UNL     1       6.641   4.335  13.366  0.00  0.00    +0.000 N 
ATOM     34  C   UNL     1       7.763   4.921  12.853  0.00  0.00    +0.000 A 
ATOM     35  N   UNL     1       8.344   5.644  13.778  0.00  0.00    +0.000 NA
ATOM     36  N   UNL     1       7.607   5.512  14.926  0.00  0.00    +0.000 NA
ATOM     37  C   UNL     1       6.594   4.692  14.695  0.00  0.00    +0.000 A 
ENDBRANCH  29  37
ENDBRANCH  26  29
ENDBRANCH  20  26
ENDBRANCH   1  24
BRANCH   8  38
ATOM     38  C   UNL     1      -0.028   9.543  22.606  0.00  0.00    +0.000 C 
ATOM     39  F   UNL     1      -0.700  10.423  23.401  0.00  0.00    +0.000 F 
ATOM     40  F   UNL     1      -0.833   8.453  22.510  0.00  0.00    +0.000 F 
ATOM     41  F   UNL     1       1.059   9.160  23.327  0.00  0.00    +0.000 F 
ENDBRANCH   8  38
TORSDOF 7
ENDMDL
MODEL 9
REMARK VINA RESULT:      -9.6      1.210      1.588
REMARK  Name = 
REMARK  9 active torsions:
REMARK  status: ('A' for Active; 'I' for Inactive)
REMARK    1  A    between atoms: C_1  and  N_2
REMARK    2  A    between atoms: C_6  and  C_7
REMARK    3  A    between atoms: C_7  and  C_10
REMARK    4  A    between atoms: C_10  and  C_11
REMARK    5  A    between atoms: C_10  and  C_13
REMARK    6  A    between atoms: C_17  and  N_18
REMARK    7  A    between atoms: C_23  and  C_24
REMARK    8  A    between atoms: C_29  and  O_30
REMARK    9  A    between atoms: C_33  and  C_34
REMARK                            x       y       z     vdW  Elec       q    Type
REMARK                         _______ _______ _______ _____ _____    ______ ____
ROOT
ATOM      1  N   UNL     1       2.000   7.729  19.514  0.00  0.00    +0.000 N 
ATOM      2  C   UNL     1       1.373   8.082  20.764  0.00  0.00    +0.000 C 
ATOM      3  C   UNL     1       0.888   9.465  20.569  0.00  0.00    +0.000 A 
ATOM      4  C   UNL     1       1.208   9.912  19.291  0.00  0.00    +0.000 A 
ATOM      5  C   UNL     1       0.825  11.184  18.863  0.00  0.00    +0.000 A 
ATOM      6  C   UNL     1       0.118  12.008  19.765  0.00  0.00    +0.000 A 
ATOM      7  C   UNL     1      -0.189  11.514  21.063  0.00  0.00    +0.000 A 
ATOM      8  C   UNL     1       0.187  10.235  21.486  0.00  0.00    +0.000 A 
ATOM      9  C   UNL     1       1.936   8.798  18.600  0.00  0.00    +0.000 C 
ATOM     10  O   UNL     1       2.365   8.891  17.462  0.00  0.00    +0.000 OA
ENDROOT
BRANCH   6  11
ATOM     11  C   UNL     1      -0.429  13.379  19.485  0.00  0.00    +0.000 C 
ATOM     12  O   UNL     1      -0.978  13.544  18.391  0.00  0.00    +0.000 OA
ATOM     13  N   UNL     1      -0.412  14.401  20.414  0.00  0.00    +0.000 N 
ATOM     14  C   UNL     1      -1.179  15.615  20.151  0.00  0.00    +0.000 C 
ATOM     15  C   UNL     1      -1.092  16.455  21.419  0.00  0.00    +0.000 C 
ATOM     16  C   UNL     1      -0.696  15.454  22.498  0.00  0.00    +0.000 C 
ATOM     17  C   UNL     1       0.160  14.439  21.744  0.00  0.00    +0.000 C 
BRANCH  16  18
ATOM     18  O   UNL     1      -0.000  16.077  23.563  0.00  0.00    +0.000 OA
ATOM     19  H   UNL     1      -0.107  17.041  23.482  0.00  0.00    +0.000 HD
ENDBRANCH  16  18
ENDBRANCH   6  11
BRANCH   1  24
ATOM     20  C   UNL     1       4.202   5.001  18.131  0.00  0.00    +0.000 A 
ATOM     21  C   UNL     1       3.791   3.916  18.909  0.00  0.00    +0.000 A 
ATOM     22  C   UNL     1       2.822   4.088  19.914  0.00  0.00    +0.000 A 
ATOM     23  C   UNL     1       2.214   5.334  20.144  0.00  0.00    +0.000 A 
ATOM     24  C   UNL     1       2.604   6.443  19.400  0.00  0.00    +0.000 A 
ATOM     25  C   UNL     1       3.629   6.250  18.436  0.00  0.00    +0.000 A 
BRANCH  20  26
ATOM     26  C   UNL     1       5.054   4.880  16.846  0.00  0.00    +0.000 C 
ATOM     27  C   UNL     1       4.453   3.708  16.051  0.00  0.00    +0.000 C 
ATOM     28  F   UNL     1       4.866   5.993  16.038  0.00  0.00    +0.000 F 
BRANCH  26  29
ATOM     29  C   UNL     1       6.596   4.750  17.043  0.00  0.00    +0.000 C 
ATOM     30  F   UNL     1       7.167   4.276  15.896  0.00  0.00    +0.000 F 
ATOM     31  F   UNL     1       6.852   3.797  17.988  0.00  0.00    +0.000 F 
BRANCH  29  37
ATOM     32  C   UNL     1       7.914   5.678  19.848  0.00  0.00    +0.000 C 
ATOM     33  N   UNL     1       7.755   6.437  18.636  0.00  0.00    +0.000 N 
ATOM     34  C   UNL     1       8.133   7.742  18.505  0.00  0.00    +0.000 A 
ATOM     35  N   UNL     1       7.938   8.135  17.271  0.00  0.00    +0.000 NA
ATOM     36  N   UNL     1       7.401   7.080  16.583  0.00  0.00    +0.000 NA
ATOM     37  C   UNL     1       7.252   6.058  17.412  0.00  0.00    +0.000 A 
ENDBRANCH  29  37
ENDBRANCH  26  29
ENDBRANCH  20  26
ENDBRANCH   1  24
BRANCH   8  38
ATOM     38  C   UNL     1      -0.181   9.725  22.856  0.00  0.00    +0.000 C 
ATOM     39  F   UNL     1       0.895   9.366  23.612  0.00  0.00    +0.000 F 
ATOM     40  F   UNL     1      -0.852  10.647  23.594  0.00  0.00    +0.000 F 
ATOM     41  F   UNL     1      -0.971   8.620  22.802  0.00  0.00    +0.000 F 
ENDBRANCH   8  38
TORSDOF 7
ENDMDL
