MODEL 1
REMARK VINA RESULT:      -8.9      0.000      0.000
REMARK  Name = 
REMARK  8 active torsions:
REMARK  status: ('A' for Active; 'I' for Inactive)
REMARK    1  A    between atoms: C_1  and  C_2
REMARK    2  A    between atoms: N_6  and  C_7
REMARK    3  A    between atoms: C_7  and  C_8
REMARK    4  A    between atoms: C_8  and  C_9
REMARK    5  A    between atoms: C_8  and  C_10
REMARK    6  A    between atoms: C_14  and  N_15
REMARK    7  A    between atoms: C_16  and  C_18
REMARK    8  A    between atoms: C_22  and  C_23
REMARK                            x       y       z     vdW  Elec       q    Type
REMARK                         _______ _______ _______ _____ _____    ______ ____
ROOT
ATOM      1  C   UNL     1       4.608   5.158  16.843  0.00  0.00    +0.000 A 
ATOM      2  C   UNL     1       4.231   3.863  17.229  0.00  0.00    +0.000 A 
ATOM      3  C   UNL     1       3.248   3.665  18.192  0.00  0.00    +0.000 A 
ATOM      4  C   UNL     1       2.613   4.759  18.780  0.00  0.00    +0.000 A 
ATOM      5  C   UNL     1       2.950   6.060  18.415  0.00  0.00    +0.000 A 
ATOM      6  C   UNL     1       3.939   6.254  17.437  0.00  0.00    +0.000 A 
ENDROOT
BRANCH   5   7
ATOM      7  N   UNL     1       2.325   7.193  18.989  0.00  0.00    +0.000 N 
ATOM      8  C   UNL     1       2.085   8.404  18.351  0.00  0.00    +0.000 C 
ATOM      9  O   UNL     1       2.351   8.687  17.189  0.00  0.00    +0.000 OA
ATOM     10  H   UNL     1       1.956   7.116  19.932  0.00  0.00    +0.000 HD
BRANCH   8  11
ATOM     11  C   UNL     1       1.387   9.427  19.190  0.00  0.00    +0.000 A 
ATOM     12  C   UNL     1       1.122  10.681  18.650  0.00  0.00    +0.000 A 
ATOM     13  C   UNL     1       0.438  11.606  19.426  0.00  0.00    +0.000 A 
ATOM     14  C   UNL     1       0.041  11.251  20.710  0.00  0.00    +0.000 A 
ATOM     15  C   UNL     1       0.339   9.971  21.195  0.00  0.00    +0.000 A 
ATOM     16  N   UNL     1       1.016   9.051  20.444  0.00  0.00    +0.000 NA
BRANCH  15  17
ATOM     17  C   UNL     1      -0.117   9.571  22.593  0.00  0.00    +0.000 C 
ATOM     18  F   UNL     1       0.915   9.297  23.445  0.00  0.00    +0.000 F 
ATOM     19  F   UNL     1      -0.847  10.547  23.204  0.00  0.00    +0.000 F 
ATOM     20  F   UNL     1      -0.901   8.456  22.594  0.00  0.00    +0.000 F 
ENDBRANCH  15  17
ENDBRANCH   8  11
ENDBRANCH   5   7
BRANCH   1  21
ATOM     21  C   UNL     1       5.672   5.395  15.770  0.00  0.00    +0.000 C 
ATOM     22  C   UNL     1       5.264   4.648  14.495  0.00  0.00    +0.000 C 
BRANCH  21  23
ATOM     23  C   UNL     1       7.104   5.016  16.223  0.00  0.00    +0.000 C 
BRANCH  23  29
ATOM     24  C   UNL     1       7.661   7.930  17.345  0.00  0.00    +0.000 C 
ATOM     25  C   UNL     1       7.700   6.655  18.090  0.00  0.00    +0.000 A 
ATOM     26  N   UNL     1       8.000   6.503  19.364  0.00  0.00    +0.000 NA
ATOM     27  N   UNL     1       7.927   5.159  19.621  0.00  0.00    +0.000 NA
ATOM     28  N   UNL     1       7.592   4.483  18.532  0.00  0.00    +0.000 NA
ATOM     29  N   UNL     1       7.435   5.412  17.574  0.00  0.00    +0.000 N 
ENDBRANCH  23  29
ENDBRANCH  21  23
ENDBRANCH   1  21
TORSDOF 6
ENDMDL
MODEL 2
REMARK VINA RESULT:      -8.4      1.829      2.304
REMARK  Name = 
REMARK  8 active torsions:
REMARK  status: ('A' for Active; 'I' for Inactive)
REMARK    1  A    between atoms: C_1  and  C_2
REMARK    2  A    between atoms: N_6  and  C_7
REMARK    3  A    between atoms: C_7  and  C_8
REMARK    4  A    between atoms: C_8  and  C_9
REMARK    5  A    between atoms: C_8  and  C_10
REMARK    6  A    between atoms: C_14  and  N_15
REMARK    7  A    between atoms: C_16  and  C_18
REMARK    8  A    between atoms: C_22  and  C_23
REMARK                            x       y       z     vdW  Elec       q    Type
REMARK                         _______ _______ _______ _____ _____    ______ ____
ROOT
ATOM      1  C   UNL     1       4.750   4.948  16.620  0.00  0.00    +0.000 A 
ATOM      2  C   UNL     1       4.407   3.626  16.939  0.00  0.00    +0.000 A 
ATOM      3  C   UNL     1       3.438   3.353  17.898  0.00  0.00    +0.000 A 
ATOM      4  C   UNL     1       2.784   4.399  18.550  0.00  0.00    +0.000 A 
ATOM      5  C   UNL     1       3.087   5.725  18.253  0.00  0.00    +0.000 A 
ATOM      6  C   UNL     1       4.061   5.994  17.278  0.00  0.00    +0.000 A 
ENDROOT
BRANCH   5   7
ATOM      7  N   UNL     1       2.442   6.810  18.892  0.00  0.00    +0.000 N 
ATOM      8  C   UNL     1       2.216   8.066  18.341  0.00  0.00    +0.000 C 
ATOM      9  O   UNL     1       2.516   8.437  17.213  0.00  0.00    +0.000 OA
ATOM     10  H   UNL     1       2.045   6.661  19.815  0.00  0.00    +0.000 HD
BRANCH   8  11
ATOM     11  C   UNL     1       1.490   9.021  19.235  0.00  0.00    +0.000 A 
ATOM     12  C   UNL     1       1.260   8.666  20.560  0.00  0.00    +0.000 A 
ATOM     13  C   UNL     1       0.621   9.578  21.389  0.00  0.00    +0.000 A 
ATOM     14  C   UNL     1       0.235  10.810  20.871  0.00  0.00    +0.000 A 
ATOM     15  C   UNL     1       0.497  11.105  19.527  0.00  0.00    +0.000 A 
ATOM     16  N   UNL     1       1.121  10.214  18.698  0.00  0.00    +0.000 NA
BRANCH  15  17
ATOM     17  C   UNL     1       0.098  12.463  18.964  0.00  0.00    +0.000 C 
ATOM     18  F   UNL     1      -0.392  13.321  19.907  0.00  0.00    +0.000 F 
ATOM     19  F   UNL     1       1.145  13.116  18.383  0.00  0.00    +0.000 F 
ATOM     20  F   UNL     1      -0.870  12.376  18.008  0.00  0.00    +0.000 F 
ENDBRANCH  15  17
ENDBRANCH   8  11
ENDBRANCH   5   7
BRANCH   1  21
ATOM     21  C   UNL     1       5.797   5.268  15.552  0.00  0.00    +0.000 C 
ATOM     22  C   UNL     1       5.492   4.443  14.296  0.00  0.00    +0.000 C 
BRANCH  21  23
ATOM     23  C   UNL     1       7.256   5.062  16.033  0.00  0.00    +0.000 C 
BRANCH  23  29
ATOM     24  C   UNL     1       7.595   7.950  17.302  0.00  0.00    +0.000 C 
ATOM     25  C   UNL     1       7.662   6.647  17.995  0.00  0.00    +0.000 A 
ATOM     26  N   UNL     1       7.899   6.455  19.277  0.00  0.00    +0.000 NA
ATOM     27  N   UNL     1       7.885   5.099  19.475  0.00  0.00    +0.000 NA
ATOM     28  N   UNL     1       7.646   4.455  18.343  0.00  0.00    +0.000 NA
ATOM     29  N   UNL     1       7.491   5.416  17.416  0.00  0.00    +0.000 N 
ENDBRANCH  23  29
ENDBRANCH  21  23
ENDBRANCH   1  21
TORSDOF 6
ENDMDL
MODEL 3
REMARK VINA RESULT:      -8.4      1.925      2.905
REMARK  Name = 
REMARK  8 active torsions:
REMARK  status: ('A' for Active; 'I' for Inactive)
REMARK    1  A    between atoms: C_1  and  C_2
REMARK    2  A    between atoms: N_6  and  C_7
REMARK    3  A    between atoms: C_7  and  C_8
REMARK    4  A    between atoms: C_8  and  C_9
REMARK    5  A    between atoms: C_8  and  C_10
REMARK    6  A    between atoms: C_14  and  N_15
REMARK    7  A    between atoms: C_16  and  C_18
REMARK    8  A    between atoms: C_22  and  C_23
REMARK                            x       y       z     vdW  Elec       q    Type
REMARK                         _______ _______ _______ _____ _____    ______ ____
ROOT
ATOM      1  C   UNL     1       4.387   5.095  17.177  0.00  0.00    +0.000 A 
ATOM      2  C   UNL     1       3.676   3.886  17.205  0.00  0.00    +0.000 A 
ATOM      3  C   UNL     1       2.453   3.795  17.861  0.00  0.00    +0.000 A 
ATOM      4  C   UNL     1       1.912   4.914  18.492  0.00  0.00    +0.000 A 
ATOM      5  C   UNL     1       2.582   6.135  18.477  0.00  0.00    +0.000 A 
ATOM      6  C   UNL     1       3.812   6.223  17.807  0.00  0.00    +0.000 A 
ENDROOT
BRANCH   5   7
ATOM      7  N   UNL     1       2.062   7.291  19.106  0.00  0.00    +0.000 N 
ATOM      8  C   UNL     1       1.882   8.535  18.510  0.00  0.00    +0.000 C 
ATOM      9  O   UNL     1       2.122   8.832  17.346  0.00  0.00    +0.000 OA
ATOM     10  H   UNL     1       1.725   7.213  20.061  0.00  0.00    +0.000 HD
BRANCH   8  11
ATOM     11  C   UNL     1       1.292   9.578  19.404  0.00  0.00    +0.000 A 
ATOM     12  C   UNL     1       1.215  10.892  18.953  0.00  0.00    +0.000 A 
ATOM     13  C   UNL     1       0.628  11.842  19.777  0.00  0.00    +0.000 A 
ATOM     14  C   UNL     1       0.138  11.452  21.019  0.00  0.00    +0.000 A 
ATOM     15  C   UNL     1       0.246  10.113  21.413  0.00  0.00    +0.000 A 
ATOM     16  N   UNL     1       0.827   9.167  20.614  0.00  0.00    +0.000 NA
BRANCH  15  17
ATOM     17  C   UNL     1      -0.313   9.678  22.762  0.00  0.00    +0.000 C 
ATOM     18  F   UNL     1      -1.020   8.510  22.707  0.00  0.00    +0.000 F 
ATOM     19  F   UNL     1       0.663   9.471  23.691  0.00  0.00    +0.000 F 
ATOM     20  F   UNL     1      -1.162  10.596  23.304  0.00  0.00    +0.000 F 
ENDBRANCH  15  17
ENDBRANCH   8  11
ENDBRANCH   5   7
BRANCH   1  21
ATOM     21  C   UNL     1       5.723   5.220  16.442  0.00  0.00    +0.000 C 
ATOM     22  C   UNL     1       5.847   6.642  15.881  0.00  0.00    +0.000 C 
BRANCH  21  23
ATOM     23  C   UNL     1       5.928   4.150  15.341  0.00  0.00    +0.000 C 
BRANCH  23  29
ATOM     24  C   UNL     1       5.706   3.283  12.297  0.00  0.00    +0.000 C 
ATOM     25  C   UNL     1       6.679   4.217  12.900  0.00  0.00    +0.000 A 
ATOM     26  N   UNL     1       7.652   4.845  12.271  0.00  0.00    +0.000 NA
ATOM     27  N   UNL     1       8.309   5.588  13.217  0.00  0.00    +0.000 NA
ATOM     28  N   UNL     1       7.761   5.427  14.412  0.00  0.00    +0.000 NA
ATOM     29  N   UNL     1       6.734   4.583  14.220  0.00  0.00    +0.000 N 
ENDBRANCH  23  29
ENDBRANCH  21  23
ENDBRANCH   1  21
TORSDOF 6
ENDMDL
MODEL 4
REMARK VINA RESULT:      -8.3      5.218      7.296
REMARK  Name = 
REMARK  8 active torsions:
REMARK  status: ('A' for Active; 'I' for Inactive)
REMARK    1  A    between atoms: C_1  and  C_2
REMARK    2  A    between atoms: N_6  and  C_7
REMARK    3  A    between atoms: C_7  and  C_8
REMARK    4  A    between atoms: C_8  and  C_9
REMARK    5  A    between atoms: C_8  and  C_10
REMARK    6  A    between atoms: C_14  and  N_15
REMARK    7  A    between atoms: C_16  and  C_18
REMARK    8  A    between atoms: C_22  and  C_23
REMARK                            x       y       z     vdW  Elec       q    Type
REMARK                         _______ _______ _______ _____ _____    ______ ____
ROOT
ATOM      1  C   UNL     1       4.707   5.283  17.348  0.00  0.00    +0.000 A 
ATOM      2  C   UNL     1       5.420   4.314  16.628  0.00  0.00    +0.000 A 
ATOM      3  C   UNL     1       6.680   4.595  16.111  0.00  0.00    +0.000 A 
ATOM      4  C   UNL     1       7.257   5.848  16.314  0.00  0.00    +0.000 A 
ATOM      5  C   UNL     1       6.586   6.834  17.034  0.00  0.00    +0.000 A 
ATOM      6  C   UNL     1       5.317   6.542  17.560  0.00  0.00    +0.000 A 
ENDROOT
BRANCH   5   7
ATOM      7  N   UNL     1       7.142   8.115  17.261  0.00  0.00    +0.000 N 
ATOM      8  C   UNL     1       8.126   8.426  18.192  0.00  0.00    +0.000 C 
ATOM      9  O   UNL     1       8.688   7.648  18.953  0.00  0.00    +0.000 OA
ATOM     10  H   UNL     1       6.855   8.881  16.658  0.00  0.00    +0.000 HD
BRANCH   8  11
ATOM     11  C   UNL     1       8.545   9.862  18.205  0.00  0.00    +0.000 A 
ATOM     12  C   UNL     1       7.876  10.770  17.391  0.00  0.00    +0.000 A 
ATOM     13  C   UNL     1       8.249  12.106  17.443  0.00  0.00    +0.000 A 
ATOM     14  C   UNL     1       9.271  12.491  18.303  0.00  0.00    +0.000 A 
ATOM     15  C   UNL     1       9.905  11.527  19.097  0.00  0.00    +0.000 A 
ATOM     16  N   UNL     1       9.552  10.206  19.053  0.00  0.00    +0.000 NA
BRANCH  15  17
ATOM     17  C   UNL     1      11.008  11.950  20.059  0.00  0.00    +0.000 C 
ATOM     18  F   UNL     1      11.322  13.277  19.977  0.00  0.00    +0.000 F 
ATOM     19  F   UNL     1      10.677  11.731  21.363  0.00  0.00    +0.000 F 
ATOM     20  F   UNL     1      12.178  11.282  19.849  0.00  0.00    +0.000 F 
ENDBRANCH  15  17
ENDBRANCH   8  11
ENDBRANCH   5   7
BRANCH   1  21
ATOM     21  C   UNL     1       3.330   4.986  17.943  0.00  0.00    +0.000 C 
ATOM     22  C   UNL     1       3.187   5.748  19.266  0.00  0.00    +0.000 C 
BRANCH  21  23
ATOM     23  C   UNL     1       3.043   3.473  18.119  0.00  0.00    +0.000 C 
BRANCH  23  29
ATOM     24  C   UNL     1       1.187   2.977  20.643  0.00  0.00    +0.000 C 
ATOM     25  C   UNL     1       2.638   2.727  20.529  0.00  0.00    +0.000 A 
ATOM     26  N   UNL     1       3.429   2.269  21.478  0.00  0.00    +0.000 NA
ATOM     27  N   UNL     1       4.688   2.210  20.938  0.00  0.00    +0.000 NA
ATOM     28  N   UNL     1       4.686   2.625  19.680  0.00  0.00    +0.000 NA
ATOM     29  N   UNL     1       3.407   2.937  19.412  0.00  0.00    +0.000 N 
ENDBRANCH  23  29
ENDBRANCH  21  23
ENDBRANCH   1  21
TORSDOF 6
ENDMDL
MODEL 5
REMARK VINA RESULT:      -8.2      4.402      8.971
REMARK  Name = 
REMARK  8 active torsions:
REMARK  status: ('A' for Active; 'I' for Inactive)
REMARK    1  A    between atoms: C_1  and  C_2
REMARK    2  A    between atoms: N_6  and  C_7
REMARK    3  A    between atoms: C_7  and  C_8
REMARK    4  A    between atoms: C_8  and  C_9
REMARK    5  A    between atoms: C_8  and  C_10
REMARK    6  A    between atoms: C_14  and  N_15
REMARK    7  A    between atoms: C_16  and  C_18
REMARK    8  A    between atoms: C_22  and  C_23
REMARK                            x       y       z     vdW  Elec       q    Type
REMARK                         _______ _______ _______ _____ _____    ______ ____
ROOT
ATOM      1  C   UNL     1      -0.265  10.105  19.713  0.00  0.00    +0.000 A 
ATOM      2  C   UNL     1      -0.362  10.170  21.111  0.00  0.00    +0.000 A 
ATOM      3  C   UNL     1       0.444   9.375  21.918  0.00  0.00    +0.000 A 
ATOM      4  C   UNL     1       1.371   8.506  21.342  0.00  0.00    +0.000 A 
ATOM      5  C   UNL     1       1.505   8.420  19.959  0.00  0.00    +0.000 A 
ATOM      6  C   UNL     1       0.694   9.232  19.149  0.00  0.00    +0.000 A 
ENDROOT
BRANCH   5   7
ATOM      7  N   UNL     1       2.436   7.551  19.341  0.00  0.00    +0.000 N 
ATOM      8  C   UNL     1       2.518   6.176  19.526  0.00  0.00    +0.000 C 
ATOM      9  O   UNL     1       1.793   5.487  20.233  0.00  0.00    +0.000 OA
ATOM     10  H   UNL     1       3.072   7.936  18.649  0.00  0.00    +0.000 HD
BRANCH   8  11
ATOM     11  C   UNL     1       3.587   5.499  18.728  0.00  0.00    +0.000 A 
ATOM     12  C   UNL     1       3.221   4.673  17.671  0.00  0.00    +0.000 A 
ATOM     13  C   UNL     1       4.224   4.083  16.913  0.00  0.00    +0.000 A 
ATOM     14  C   UNL     1       5.553   4.337  17.235  0.00  0.00    +0.000 A 
ATOM     15  C   UNL     1       5.854   5.179  18.313  0.00  0.00    +0.000 A 
ATOM     16  N   UNL     1       4.876   5.762  19.071  0.00  0.00    +0.000 NA
BRANCH  15  17
ATOM     17  C   UNL     1       7.309   5.478  18.651  0.00  0.00    +0.000 C 
ATOM     18  F   UNL     1       7.767   6.640  18.099  0.00  0.00    +0.000 F 
ATOM     19  F   UNL     1       7.519   5.602  19.993  0.00  0.00    +0.000 F 
ATOM     20  F   UNL     1       8.163   4.506  18.223  0.00  0.00    +0.000 F 
ENDBRANCH  15  17
ENDBRANCH   8  11
ENDBRANCH   5   7
BRANCH   1  21
ATOM     21  C   UNL     1      -1.127  10.988  18.809  0.00  0.00    +0.000 C 
ATOM     22  C   UNL     1      -1.272  12.370  19.460  0.00  0.00    +0.000 C 
BRANCH  21  23
ATOM     23  C   UNL     1      -2.505  10.368  18.468  0.00  0.00    +0.000 C 
BRANCH  23  29
ATOM     24  C   UNL     1      -5.027  11.826  17.212  0.00  0.00    +0.000 C 
ATOM     25  C   UNL     1      -3.974  11.073  16.500  0.00  0.00    +0.000 A 
ATOM     26  N   UNL     1      -3.911  10.855  15.202  0.00  0.00    +0.000 NA
ATOM     27  N   UNL     1      -2.783  10.106  14.990  0.00  0.00    +0.000 NA
ATOM     28  N   UNL     1      -2.155   9.857  16.129  0.00  0.00    +0.000 NA
ATOM     29  N   UNL     1      -2.885  10.470  17.076  0.00  0.00    +0.000 N 
ENDBRANCH  23  29
ENDBRANCH  21  23
ENDBRANCH   1  21
TORSDOF 6
ENDMDL
MODEL 6
REMARK VINA RESULT:      -8.1      2.508      3.440
REMARK  Name = 
REMARK  8 active torsions:
REMARK  status: ('A' for Active; 'I' for Inactive)
REMARK    1  A    between atoms: C_1  and  C_2
REMARK    2  A    between atoms: N_6  and  C_7
REMARK    3  A    between atoms: C_7  and  C_8
REMARK    4  A    between atoms: C_8  and  C_9
REMARK    5  A    between atoms: C_8  and  C_10
REMARK    6  A    between atoms: C_14  and  N_15
REMARK    7  A    between atoms: C_16  and  C_18
REMARK    8  A    between atoms: C_22  and  C_23
REMARK                            x       y       z     vdW  Elec       q    Type
REMARK                         _______ _______ _______ _____ _____    ______ ____
ROOT
ATOM      1  C   UNL     1       4.725   5.113  17.560  0.00  0.00    +0.000 A 
ATOM      2  C   UNL     1       4.484   3.762  17.849  0.00  0.00    +0.000 A 
ATOM      3  C   UNL     1       3.573   3.396  18.834  0.00  0.00    +0.000 A 
ATOM      4  C   UNL     1       2.876   4.375  19.541  0.00  0.00    +0.000 A 
ATOM      5  C   UNL     1       3.077   5.727  19.275  0.00  0.00    +0.000 A 
ATOM      6  C   UNL     1       3.993   6.090  18.274  0.00  0.00    +0.000 A 
ENDROOT
BRANCH   5   7
ATOM      7  N   UNL     1       2.386   6.747  19.971  0.00  0.00    +0.000 N 
ATOM      8  C   UNL     1       1.862   7.907  19.412  0.00  0.00    +0.000 C 
ATOM      9  O   UNL     1       1.893   8.231  18.231  0.00  0.00    +0.000 OA
ATOM     10  H   UNL     1       2.188   6.611  20.958  0.00  0.00    +0.000 HD
BRANCH   8  11
ATOM     11  C   UNL     1       1.159   8.806  20.379  0.00  0.00    +0.000 A 
ATOM     12  C   UNL     1       1.250   8.538  21.741  0.00  0.00    +0.000 A 
ATOM     13  C   UNL     1       0.626   9.403  22.630  0.00  0.00    +0.000 A 
ATOM     14  C   UNL     1      -0.065  10.503  22.132  0.00  0.00    +0.000 A 
ATOM     15  C   UNL     1      -0.119  10.715  20.748  0.00  0.00    +0.000 A 
ATOM     16  N   UNL     1       0.487   9.869  19.861  0.00  0.00    +0.000 NA
BRANCH  15  17
ATOM     17  C   UNL     1      -0.853  11.933  20.202  0.00  0.00    +0.000 C 
ATOM     18  F   UNL     1      -2.109  11.651  19.744  0.00  0.00    +0.000 F 
ATOM     19  F   UNL     1      -1.015  12.910  21.139  0.00  0.00    +0.000 F 
ATOM     20  F   UNL     1      -0.204  12.517  19.155  0.00  0.00    +0.000 F 
ENDBRANCH  15  17
ENDBRANCH   8  11
ENDBRANCH   5   7
BRANCH   1  21
ATOM     21  C   UNL     1       5.707   5.534  16.465  0.00  0.00    +0.000 C 
ATOM     22  C   UNL     1       5.033   6.585  15.574  0.00  0.00    +0.000 C 
BRANCH  21  23
ATOM     23  C   UNL     1       6.258   4.347  15.636  0.00  0.00    +0.000 C 
BRANCH  23  29
ATOM     24  C   UNL     1       5.602   3.388  12.684  0.00  0.00    +0.000 C 
ATOM     25  C   UNL     1       6.667   4.318  13.114  0.00  0.00    +0.000 A 
ATOM     26  N   UNL     1       7.555   4.901  12.336  0.00  0.00    +0.000 NA
ATOM     27  N   UNL     1       8.351   5.659  13.156  0.00  0.00    +0.000 NA
ATOM     28  N   UNL     1       7.970   5.551  14.420  0.00  0.00    +0.000 NA
ATOM     29  N   UNL     1       6.909   4.725  14.401  0.00  0.00    +0.000 N 
ENDBRANCH  23  29
ENDBRANCH  21  23
ENDBRANCH   1  21
TORSDOF 6
ENDMDL
MODEL 7
REMARK VINA RESULT:      -8.0      2.541      3.455
REMARK  Name = 
REMARK  8 active torsions:
REMARK  status: ('A' for Active; 'I' for Inactive)
REMARK    1  A    between atoms: C_1  and  C_2
REMARK    2  A    between atoms: N_6  and  C_7
REMARK    3  A    between atoms: C_7  and  C_8
REMARK    4  A    between atoms: C_8  and  C_9
REMARK    5  A    between atoms: C_8  and  C_10
REMARK    6  A    between atoms: C_14  and  N_15
REMARK    7  A    between atoms: C_16  and  C_18
REMARK    8  A    between atoms: C_22  and  C_23
REMARK                            x       y       z     vdW  Elec       q    Type
REMARK                         _______ _______ _______ _____ _____    ______ ____
ROOT
ATOM      1  C   UNL     1       4.279   5.206  17.193  0.00  0.00    +0.000 A 
ATOM      2  C   UNL     1       3.716   3.921  17.193  0.00  0.00    +0.000 A 
ATOM      3  C   UNL     1       2.612   3.628  17.985  0.00  0.00    +0.000 A 
ATOM      4  C   UNL     1       2.042   4.617  18.786  0.00  0.00    +0.000 A 
ATOM      5  C   UNL     1       2.564   5.908  18.805  0.00  0.00    +0.000 A 
ATOM      6  C   UNL     1       3.674   6.201  17.997  0.00  0.00    +0.000 A 
ENDROOT
BRANCH   5   7
ATOM      7  N   UNL     1       2.010   6.937  19.603  0.00  0.00    +0.000 N 
ATOM      8  C   UNL     1       1.651   8.207  19.166  0.00  0.00    +0.000 C 
ATOM      9  O   UNL     1       1.734   8.640  18.024  0.00  0.00    +0.000 OA
ATOM     10  H   UNL     1       1.788   6.731  20.573  0.00  0.00    +0.000 HD
BRANCH   8  11
ATOM     11  C   UNL     1       1.067   9.091  20.222  0.00  0.00    +0.000 A 
ATOM     12  C   UNL     1       0.548   8.514  21.377  0.00  0.00    +0.000 A 
ATOM     13  C   UNL     1       0.045   9.348  22.366  0.00  0.00    +0.000 A 
ATOM     14  C   UNL     1       0.078  10.725  22.172  0.00  0.00    +0.000 A 
ATOM     15  C   UNL     1       0.614  11.242  20.985  0.00  0.00    +0.000 A 
ATOM     16  N   UNL     1       1.108  10.432  20.000  0.00  0.00    +0.000 NA
BRANCH  15  17
ATOM     17  C   UNL     1       0.674  12.750  20.781  0.00  0.00    +0.000 C 
ATOM     18  F   UNL     1       1.865  13.184  20.272  0.00  0.00    +0.000 F 
ATOM     19  F   UNL     1      -0.279  13.200  19.916  0.00  0.00    +0.000 F 
ATOM     20  F   UNL     1       0.494  13.449  21.938  0.00  0.00    +0.000 F 
ENDBRANCH  15  17
ENDBRANCH   8  11
ENDBRANCH   5   7
BRANCH   1  21
ATOM     21  C   UNL     1       5.480   5.554  16.312  0.00  0.00    +0.000 C 
ATOM     22  C   UNL     1       5.104   6.733  15.407  0.00  0.00    +0.000 C 
BRANCH  21  23
ATOM     23  C   UNL     1       6.018   4.353  15.494  0.00  0.00    +0.000 C 
BRANCH  23  29
ATOM     24  C   UNL     1       5.666   3.384  12.494  0.00  0.00    +0.000 C 
ATOM     25  C   UNL     1       6.691   4.303  13.030  0.00  0.00    +0.000 A 
ATOM     26  N   UNL     1       7.664   4.871  12.348  0.00  0.00    +0.000 NA
ATOM     27  N   UNL     1       8.377   5.625  13.244  0.00  0.00    +0.000 NA
ATOM     28  N   UNL     1       7.864   5.528  14.461  0.00  0.00    +0.000 NA
ATOM     29  N   UNL     1       6.801   4.715  14.333  0.00  0.00    +0.000 N 
ENDBRANCH  23  29
ENDBRANCH  21  23
ENDBRANCH   1  21
TORSDOF 6
ENDMDL
MODEL 8
REMARK VINA RESULT:      -8.0      1.496      2.554
REMARK  Name = 
REMARK  8 active torsions:
REMARK  status: ('A' for Active; 'I' for Inactive)
REMARK    1  A    between atoms: C_1  and  C_2
REMARK    2  A    between atoms: N_6  and  C_7
REMARK    3  A    between atoms: C_7  and  C_8
REMARK    4  A    between atoms: C_8  and  C_9
REMARK    5  A    between atoms: C_8  and  C_10
REMARK    6  A    between atoms: C_14  and  N_15
REMARK    7  A    between atoms: C_16  and  C_18
REMARK    8  A    between atoms: C_22  and  C_23
REMARK                            x       y       z     vdW  Elec       q    Type
REMARK                         _______ _______ _______ _____ _____    ______ ____
ROOT
ATOM      1  C   UNL     1       5.354   4.511  18.772  0.00  0.00    +0.000 A 
ATOM      2  C   UNL     1       4.676   3.324  18.457  0.00  0.00    +0.000 A 
ATOM      3  C   UNL     1       3.287   3.267  18.493  0.00  0.00    +0.000 A 
ATOM      4  C   UNL     1       2.548   4.400  18.833  0.00  0.00    +0.000 A 
ATOM      5  C   UNL     1       3.183   5.600  19.139  0.00  0.00    +0.000 A 
ATOM      6  C   UNL     1       4.586   5.654  19.094  0.00  0.00    +0.000 A 
ENDROOT
BRANCH   5   7
ATOM      7  N   UNL     1       2.465   6.770  19.486  0.00  0.00    +0.000 N 
ATOM      8  C   UNL     1       2.298   7.893  18.685  0.00  0.00    +0.000 C 
ATOM      9  O   UNL     1       2.721   8.053  17.547  0.00  0.00    +0.000 OA
ATOM     10  H   UNL     1       1.968   6.787  20.372  0.00  0.00    +0.000 HD
BRANCH   8  11
ATOM     11  C   UNL     1       1.471   8.980  19.296  0.00  0.00    +0.000 A 
ATOM     12  C   UNL     1       1.081  10.058  18.508  0.00  0.00    +0.000 A 
ATOM     13  C   UNL     1       0.281  11.040  19.077  0.00  0.00    +0.000 A 
ATOM     14  C   UNL     1      -0.103  10.913  20.408  0.00  0.00    +0.000 A 
ATOM     15  C   UNL     1       0.325   9.803  21.147  0.00  0.00    +0.000 A 
ATOM     16  N   UNL     1       1.117   8.831  20.601  0.00  0.00    +0.000 NA
BRANCH  15  17
ATOM     17  C   UNL     1      -0.116   9.649  22.597  0.00  0.00    +0.000 C 
ATOM     18  F   UNL     1      -0.746  10.754  23.095  0.00  0.00    +0.000 F 
ATOM     19  F   UNL     1      -0.991   8.618  22.772  0.00  0.00    +0.000 F 
ATOM     20  F   UNL     1       0.926   9.407  23.443  0.00  0.00    +0.000 F 
ENDBRANCH  15  17
ENDBRANCH   8  11
ENDBRANCH   5   7
BRANCH   1  21
ATOM     21  C   UNL     1       6.880   4.599  18.717  0.00  0.00    +0.000 C 
ATOM     22  C   UNL     1       7.348   5.690  19.689  0.00  0.00    +0.000 C 
BRANCH  21  23
ATOM     23  C   UNL     1       7.437   4.827  17.289  0.00  0.00    +0.000 C 
BRANCH  23  29
ATOM     24  C   UNL     1       6.030   3.725  14.668  0.00  0.00    +0.000 C 
ATOM     25  C   UNL     1       5.926   5.081  15.244  0.00  0.00    +0.000 A 
ATOM     26  N   UNL     1       5.238   6.089  14.749  0.00  0.00    +0.000 NA
ATOM     27  N   UNL     1       5.440   7.149  15.596  0.00  0.00    +0.000 NA
ATOM     28  N   UNL     1       6.238   6.812  16.597  0.00  0.00    +0.000 NA
ATOM     29  N   UNL     1       6.536   5.518  16.393  0.00  0.00    +0.000 N 
ENDBRANCH  23  29
ENDBRANCH  21  23
ENDBRANCH   1  21
TORSDOF 6
ENDMDL
MODEL 9
REMARK VINA RESULT:      -7.9      4.440      9.193
REMARK  Name = 
REMARK  8 active torsions:
REMARK  status: ('A' for Active; 'I' for Inactive)
REMARK    1  A    between atoms: C_1  and  C_2
REMARK    2  A    between atoms: N_6  and  C_7
REMARK    3  A    between atoms: C_7  and  C_8
REMARK    4  A    between atoms: C_8  and  C_9
REMARK    5  A    between atoms: C_8  and  C_10
REMARK    6  A    between atoms: C_14  and  N_15
REMARK    7  A    between atoms: C_16  and  C_18
REMARK    8  A    between atoms: C_22  and  C_23
REMARK                            x       y       z     vdW  Elec       q    Type
REMARK                         _______ _______ _______ _____ _____    ______ ____
ROOT
ATOM      1  C   UNL     1       0.069  10.543  19.723  0.00  0.00    +0.000 A 
ATOM      2  C   UNL     1      -0.075  10.644  21.115  0.00  0.00    +0.000 A 
ATOM      3  C   UNL     1       0.506   9.706  21.961  0.00  0.00    +0.000 A 
ATOM      4  C   UNL     1       1.253   8.654  21.431  0.00  0.00    +0.000 A 
ATOM      5  C   UNL     1       1.430   8.525  20.056  0.00  0.00    +0.000 A 
ATOM      6  C   UNL     1       0.847   9.480  19.207  0.00  0.00    +0.000 A 
ENDROOT
BRANCH   5   7
ATOM      7  N   UNL     1       2.183   7.472  19.485  0.00  0.00    +0.000 N 
ATOM      8  C   UNL     1       2.760   7.473  18.220  0.00  0.00    +0.000 C 
ATOM      9  O   UNL     1       2.732   8.383  17.401  0.00  0.00    +0.000 OA
ATOM     10  H   UNL     1       2.386   6.657  20.056  0.00  0.00    +0.000 HD
BRANCH   8  11
ATOM     11  C   UNL     1       3.522   6.232  17.879  0.00  0.00    +0.000 A 
ATOM     12  C   UNL     1       2.840   5.023  17.782  0.00  0.00    +0.000 A 
ATOM     13  C   UNL     1       3.553   3.887  17.424  0.00  0.00    +0.000 A 
ATOM     14  C   UNL     1       4.917   3.993  17.176  0.00  0.00    +0.000 A 
ATOM     15  C   UNL     1       5.544   5.240  17.292  0.00  0.00    +0.000 A 
ATOM     16  N   UNL     1       4.856   6.367  17.648  0.00  0.00    +0.000 NA
BRANCH  15  17
ATOM     17  C   UNL     1       7.033   5.365  16.996  0.00  0.00    +0.000 C 
ATOM     18  F   UNL     1       7.305   5.691  15.697  0.00  0.00    +0.000 F 
ATOM     19  F   UNL     1       7.638   6.326  17.749  0.00  0.00    +0.000 F 
ATOM     20  F   UNL     1       7.718   4.210  17.235  0.00  0.00    +0.000 F 
ENDBRANCH  15  17
ENDBRANCH   8  11
ENDBRANCH   5   7
BRANCH   1  21
ATOM     21  C   UNL     1      -0.544  11.577  18.778  0.00  0.00    +0.000 C 
ATOM     22  C   UNL     1       0.275  12.871  18.862  0.00  0.00    +0.000 C 
BRANCH  21  23
ATOM     23  C   UNL     1      -2.050  11.835  19.033  0.00  0.00    +0.000 C 
BRANCH  23  29
ATOM     24  C   UNL     1      -5.218  11.929  18.885  0.00  0.00    +0.000 C 
ATOM     25  C   UNL     1      -4.274  11.603  17.796  0.00  0.00    +0.000 A 
ATOM     26  N   UNL     1      -4.591  11.268  16.562  0.00  0.00    +0.000 NA
ATOM     27  N   UNL     1      -3.408  11.039  15.907  0.00  0.00    +0.000 NA
ATOM     28  N   UNL     1      -2.374  11.224  16.714  0.00  0.00    +0.000 NA
ATOM     29  N   UNL     1      -2.906  11.590  17.893  0.00  0.00    +0.000 N 
ENDBRANCH  23  29
ENDBRANCH  21  23
ENDBRANCH   1  21
TORSDOF 6
ENDMDL
