MODEL 1
REMARK VINA RESULT:      -8.4      0.000      0.000
REMARK  Name = 
REMARK  8 active torsions:
REMARK  status: ('A' for Active; 'I' for Inactive)
REMARK    1  A    between atoms: C_1  and  C_2
REMARK    2  A    between atoms: C_2  and  S_3
REMARK    3  A    between atoms: C_2  and  C_10
REMARK    4  A    between atoms: S_3  and  C_4
REMARK    5  A    between atoms: N_8  and  C_9
REMARK    6  A    between atoms: C_14  and  N_15
REMARK    7  A    between atoms: C_16  and  C_18
REMARK    8  A    between atoms: C_22  and  C_23
REMARK                            x       y       z     vdW  Elec       q    Type
REMARK                         _______ _______ _______ _____ _____    ______ ____
ROOT
ATOM      1  C   UNL     1       4.251   4.988  16.897  0.00  0.00    +0.000 A 
ATOM      2  C   UNL     1       3.598   3.748  17.040  0.00  0.00    +0.000 A 
ATOM      3  C   UNL     1       2.404   3.648  17.745  0.00  0.00    +0.000 A 
ATOM      4  C   UNL     1       1.860   4.773  18.357  0.00  0.00    +0.000 A 
ATOM      5  C   UNL     1       2.513   6.006  18.295  0.00  0.00    +0.000 A 
ATOM      6  C   UNL     1       3.700   6.105  17.560  0.00  0.00    +0.000 A 
ENDROOT
BRANCH   5   7
ATOM      7  N   UNL     1       2.013   7.167  18.920  0.00  0.00    +0.000 N 
ATOM      8  C   UNL     1       1.971   8.437  18.370  0.00  0.00    +0.000 C 
ATOM      9  O   UNL     1       2.340   8.761  17.241  0.00  0.00    +0.000 OA
ATOM     10  H   UNL     1       1.591   7.079  19.841  0.00  0.00    +0.000 HD
BRANCH   8  11
ATOM     11  C   UNL     1       1.386   9.491  19.253  0.00  0.00    +0.000 A 
ATOM     12  C   UNL     1       1.279  10.789  18.774  0.00  0.00    +0.000 A 
ATOM     13  C   UNL     1       0.694  11.748  19.587  0.00  0.00    +0.000 A 
ATOM     14  C   UNL     1       0.234  11.380  20.848  0.00  0.00    +0.000 A 
ATOM     15  C   UNL     1       0.378  10.054  21.273  0.00  0.00    +0.000 A 
ATOM     16  N   UNL     1       0.958   9.099  20.484  0.00  0.00    +0.000 NA
BRANCH  15  17
ATOM     17  C   UNL     1      -0.154   9.647  22.644  0.00  0.00    +0.000 C 
ATOM     18  F   UNL     1       0.830   9.393  23.556  0.00  0.00    +0.000 F 
ATOM     19  F   UNL     1      -0.936  10.610  23.210  0.00  0.00    +0.000 F 
ATOM     20  F   UNL     1      -0.916   8.517  22.605  0.00  0.00    +0.000 F 
ENDBRANCH  15  17
ENDBRANCH   8  11
ENDBRANCH   5   7
BRANCH   1  22
ATOM     21  C   UNL     1       5.430   4.092  14.798  0.00  0.00    +0.000 C 
ATOM     22  C   UNL     1       5.468   5.081  15.971  0.00  0.00    +0.000 C 
BRANCH  22  23
ATOM     23  S   UNL     1       6.970   4.778  17.005  0.00  0.00    +0.000 S 
BRANCH  23  24
ATOM     24  C   UNL     1       7.445   6.359  17.480  0.00  0.00    +0.000 A 
ATOM     25  N   UNL     1       7.381   7.466  16.777  0.00  0.00    +0.000 NA
ATOM     26  N   UNL     1       7.940   8.472  17.536  0.00  0.00    +0.000 NA
ATOM     27  C   UNL     1       8.307   7.946  18.685  0.00  0.00    +0.000 A 
ATOM     28  N   UNL     1       7.995   6.622  18.699  0.00  0.00    +0.000 N 
ATOM     29  C   UNL     1       8.226   5.700  19.779  0.00  0.00    +0.000 C 
ENDBRANCH  23  24
ENDBRANCH  22  23
ENDBRANCH   1  22
TORSDOF 6
ENDMDL
MODEL 2
REMARK VINA RESULT:      -8.0      5.285      7.688
REMARK  Name = 
REMARK  8 active torsions:
REMARK  status: ('A' for Active; 'I' for Inactive)
REMARK    1  A    between atoms: C_1  and  C_2
REMARK    2  A    between atoms: C_2  and  S_3
REMARK    3  A    between atoms: C_2  and  C_10
REMARK    4  A    between atoms: S_3  and  C_4
REMARK    5  A    between atoms: N_8  and  C_9
REMARK    6  A    between atoms: C_14  and  N_15
REMARK    7  A    between atoms: C_16  and  C_18
REMARK    8  A    between atoms: C_22  and  C_23
REMARK                            x       y       z     vdW  Elec       q    Type
REMARK                         _______ _______ _______ _____ _____    ______ ____
ROOT
ATOM      1  C   UNL     1       4.791   5.115  17.109  0.00  0.00    +0.000 A 
ATOM      2  C   UNL     1       5.547   4.142  16.425  0.00  0.00    +0.000 A 
ATOM      3  C   UNL     1       6.852   4.406  16.025  0.00  0.00    +0.000 A 
ATOM      4  C   UNL     1       7.413   5.657  16.260  0.00  0.00    +0.000 A 
ATOM      5  C   UNL     1       6.672   6.669  16.873  0.00  0.00    +0.000 A 
ATOM      6  C   UNL     1       5.368   6.387  17.300  0.00  0.00    +0.000 A 
ENDROOT
BRANCH   5   7
ATOM      7  N   UNL     1       7.190   7.959  17.110  0.00  0.00    +0.000 N 
ATOM      8  C   UNL     1       8.091   8.309  18.101  0.00  0.00    +0.000 C 
ATOM      9  O   UNL     1       8.608   7.554  18.924  0.00  0.00    +0.000 OA
ATOM     10  H   UNL     1       6.931   8.710  16.473  0.00  0.00    +0.000 HD
BRANCH   8  11
ATOM     11  C   UNL     1       8.475   9.753  18.125  0.00  0.00    +0.000 A 
ATOM     12  C   UNL     1       7.708  10.667  17.415  0.00  0.00    +0.000 A 
ATOM     13  C   UNL     1       8.050  12.009  17.482  0.00  0.00    +0.000 A 
ATOM     14  C   UNL     1       9.141  12.395  18.255  0.00  0.00    +0.000 A 
ATOM     15  C   UNL     1       9.877  11.422  18.942  0.00  0.00    +0.000 A 
ATOM     16  N   UNL     1       9.555  10.094  18.880  0.00  0.00    +0.000 NA
BRANCH  15  17
ATOM     17  C   UNL     1      11.055  11.851  19.811  0.00  0.00    +0.000 C 
ATOM     18  F   UNL     1      11.342  13.183  19.721  0.00  0.00    +0.000 F 
ATOM     19  F   UNL     1      10.842  11.612  21.137  0.00  0.00    +0.000 F 
ATOM     20  F   UNL     1      12.213  11.205  19.493  0.00  0.00    +0.000 F 
ENDBRANCH  15  17
ENDBRANCH   8  11
ENDBRANCH   5   7
BRANCH   1  22
ATOM     21  C   UNL     1       3.025   5.515  18.932  0.00  0.00    +0.000 C 
ATOM     22  C   UNL     1       3.424   4.722  17.680  0.00  0.00    +0.000 C 
BRANCH  22  23
ATOM     23  S   UNL     1       3.491   2.916  18.071  0.00  0.00    +0.000 S 
BRANCH  23  24
ATOM     24  C   UNL     1       2.874   2.838  19.673  0.00  0.00    +0.000 A 
ATOM     25  N   UNL     1       3.550   2.842  20.798  0.00  0.00    +0.000 NA
ATOM     26  N   UNL     1       2.644   2.690  21.826  0.00  0.00    +0.000 NA
ATOM     27  C   UNL     1       1.444   2.618  21.291  0.00  0.00    +0.000 A 
ATOM     28  N   UNL     1       1.542   2.728  19.938  0.00  0.00    +0.000 N 
ATOM     29  C   UNL     1       0.455   2.706  18.997  0.00  0.00    +0.000 C 
ENDBRANCH  23  24
ENDBRANCH  22  23
ENDBRANCH   1  22
TORSDOF 6
ENDMDL
MODEL 3
REMARK VINA RESULT:      -8.0      4.782      8.990
REMARK  Name = 
REMARK  8 active torsions:
REMARK  status: ('A' for Active; 'I' for Inactive)
REMARK    1  A    between atoms: C_1  and  C_2
REMARK    2  A    between atoms: C_2  and  S_3
REMARK    3  A    between atoms: C_2  and  C_10
REMARK    4  A    between atoms: S_3  and  C_4
REMARK    5  A    between atoms: N_8  and  C_9
REMARK    6  A    between atoms: C_14  and  N_15
REMARK    7  A    between atoms: C_16  and  C_18
REMARK    8  A    between atoms: C_22  and  C_23
REMARK                            x       y       z     vdW  Elec       q    Type
REMARK                         _______ _______ _______ _____ _____    ______ ____
ROOT
ATOM      1  C   UNL     1       0.147  10.484  20.006  0.00  0.00    +0.000 A 
ATOM      2  C   UNL     1      -0.259  10.330  21.346  0.00  0.00    +0.000 A 
ATOM      3  C   UNL     1       0.224   9.281  22.121  0.00  0.00    +0.000 A 
ATOM      4  C   UNL     1       1.085   8.342  21.563  0.00  0.00    +0.000 A 
ATOM      5  C   UNL     1       1.455   8.421  20.219  0.00  0.00    +0.000 A 
ATOM      6  C   UNL     1       0.988   9.496  19.453  0.00  0.00    +0.000 A 
ENDROOT
BRANCH   5   7
ATOM      7  N   UNL     1       2.305   7.480  19.603  0.00  0.00    +0.000 N 
ATOM      8  C   UNL     1       2.267   6.107  19.777  0.00  0.00    +0.000 C 
ATOM      9  O   UNL     1       1.474   5.477  20.477  0.00  0.00    +0.000 OA
ATOM     10  H   UNL     1       2.985   7.813  18.923  0.00  0.00    +0.000 HD
BRANCH   8  11
ATOM     11  C   UNL     1       3.287   5.341  18.998  0.00  0.00    +0.000 A 
ATOM     12  C   UNL     1       2.862   4.348  18.126  0.00  0.00    +0.000 A 
ATOM     13  C   UNL     1       3.815   3.674  17.377  0.00  0.00    +0.000 A 
ATOM     14  C   UNL     1       5.157   4.016  17.519  0.00  0.00    +0.000 A 
ATOM     15  C   UNL     1       5.518   5.024  18.421  0.00  0.00    +0.000 A 
ATOM     16  N   UNL     1       4.590   5.692  19.171  0.00  0.00    +0.000 NA
BRANCH  15  17
ATOM     17  C   UNL     1       6.987   5.417  18.553  0.00  0.00    +0.000 C 
ATOM     18  F   UNL     1       7.407   5.521  19.848  0.00  0.00    +0.000 F 
ATOM     19  F   UNL     1       7.825   4.514  17.968  0.00  0.00    +0.000 F 
ATOM     20  F   UNL     1       7.269   6.620  17.979  0.00  0.00    +0.000 F 
ENDBRANCH  15  17
ENDBRANCH   8  11
ENDBRANCH   5   7
BRANCH   1  22
ATOM     21  C   UNL     1       0.441  13.019  19.716  0.00  0.00    +0.000 C 
ATOM     22  C   UNL     1      -0.275  11.746  19.246  0.00  0.00    +0.000 C 
BRANCH  22  23
ATOM     23  S   UNL     1      -2.102  11.932  19.460  0.00  0.00    +0.000 S 
BRANCH  23  24
ATOM     24  C   UNL     1      -2.726  11.476  17.926  0.00  0.00    +0.000 A 
ATOM     25  N   UNL     1      -2.055  11.105  16.861  0.00  0.00    +0.000 NA
ATOM     26  N   UNL     1      -2.967  10.906  15.846  0.00  0.00    +0.000 NA
ATOM     27  C   UNL     1      -4.165  11.143  16.335  0.00  0.00    +0.000 A 
ATOM     28  N   UNL     1      -4.060  11.484  17.648  0.00  0.00    +0.000 N 
ATOM     29  C   UNL     1      -5.143  11.808  18.537  0.00  0.00    +0.000 C 
ENDBRANCH  23  24
ENDBRANCH  22  23
ENDBRANCH   1  22
TORSDOF 6
ENDMDL
MODEL 4
REMARK VINA RESULT:      -7.9      5.409      7.609
REMARK  Name = 
REMARK  8 active torsions:
REMARK  status: ('A' for Active; 'I' for Inactive)
REMARK    1  A    between atoms: C_1  and  C_2
REMARK    2  A    between atoms: C_2  and  S_3
REMARK    3  A    between atoms: C_2  and  C_10
REMARK    4  A    between atoms: S_3  and  C_4
REMARK    5  A    between atoms: N_8  and  C_9
REMARK    6  A    between atoms: C_14  and  N_15
REMARK    7  A    between atoms: C_16  and  C_18
REMARK    8  A    between atoms: C_22  and  C_23
REMARK                            x       y       z     vdW  Elec       q    Type
REMARK                         _______ _______ _______ _____ _____    ______ ____
ROOT
ATOM      1  C   UNL     1       6.476   6.329  17.287  0.00  0.00    +0.000 A 
ATOM      2  C   UNL     1       6.969   5.484  18.300  0.00  0.00    +0.000 A 
ATOM      3  C   UNL     1       7.934   5.932  19.196  0.00  0.00    +0.000 A 
ATOM      4  C   UNL     1       8.456   7.215  19.072  0.00  0.00    +0.000 A 
ATOM      5  C   UNL     1       8.043   8.059  18.039  0.00  0.00    +0.000 A 
ATOM      6  C   UNL     1       7.050   7.611  17.158  0.00  0.00    +0.000 A 
ENDROOT
BRANCH   5   7
ATOM      7  N   UNL     1       8.561   9.357  17.858  0.00  0.00    +0.000 N 
ATOM      8  C   UNL     1       9.027  10.197  18.855  0.00  0.00    +0.000 C 
ATOM      9  O   UNL     1       9.089   9.945  20.059  0.00  0.00    +0.000 OA
ATOM     10  H   UNL     1       8.660   9.712  16.910  0.00  0.00    +0.000 HD
BRANCH   8  11
ATOM     11  C   UNL     1       9.525  11.525  18.383  0.00  0.00    +0.000 A 
ATOM     12  C   UNL     1      10.704  11.581  17.652  0.00  0.00    +0.000 A 
ATOM     13  C   UNL     1      11.133  12.813  17.183  0.00  0.00    +0.000 A 
ATOM     14  C   UNL     1      10.371  13.946  17.455  0.00  0.00    +0.000 A 
ATOM     15  C   UNL     1       9.194  13.821  18.203  0.00  0.00    +0.000 A 
ATOM     16  N   UNL     1       8.763  12.613  18.677  0.00  0.00    +0.000 NA
BRANCH  15  17
ATOM     17  C   UNL     1       8.346  15.060  18.475  0.00  0.00    +0.000 C 
ATOM     18  F   UNL     1       7.911  15.682  17.340  0.00  0.00    +0.000 F 
ATOM     19  F   UNL     1       7.220  14.777  19.190  0.00  0.00    +0.000 F 
ATOM     20  F   UNL     1       9.012  16.015  19.183  0.00  0.00    +0.000 F 
ENDBRANCH  15  17
ENDBRANCH   8  11
ENDBRANCH   5   7
BRANCH   1  22
ATOM     21  C   UNL     1       3.991   5.677  17.226  0.00  0.00    +0.000 C 
ATOM     22  C   UNL     1       5.295   5.851  16.435  0.00  0.00    +0.000 C 
BRANCH  22  23
ATOM     23  S   UNL     1       5.787   4.244  15.665  0.00  0.00    +0.000 S 
BRANCH  23  24
ATOM     24  C   UNL     1       6.834   4.724  14.390  0.00  0.00    +0.000 A 
ATOM     25  N   UNL     1       7.868   5.531  14.456  0.00  0.00    +0.000 NA
ATOM     26  N   UNL     1       8.359   5.680  13.176  0.00  0.00    +0.000 NA
ATOM     27  C   UNL     1       7.618   4.941  12.377  0.00  0.00    +0.000 A 
ATOM     28  N   UNL     1       6.660   4.305  13.105  0.00  0.00    +0.000 N 
ATOM     29  C   UNL     1       5.661   3.402  12.601  0.00  0.00    +0.000 C 
ENDBRANCH  23  24
ENDBRANCH  22  23
ENDBRANCH   1  22
TORSDOF 6
ENDMDL
MODEL 5
REMARK VINA RESULT:      -7.8      1.798      2.802
REMARK  Name = 
REMARK  8 active torsions:
REMARK  status: ('A' for Active; 'I' for Inactive)
REMARK    1  A    between atoms: C_1  and  C_2
REMARK    2  A    between atoms: C_2  and  S_3
REMARK    3  A    between atoms: C_2  and  C_10
REMARK    4  A    between atoms: S_3  and  C_4
REMARK    5  A    between atoms: N_8  and  C_9
REMARK    6  A    between atoms: C_14  and  N_15
REMARK    7  A    between atoms: C_16  and  C_18
REMARK    8  A    between atoms: C_22  and  C_23
REMARK                            x       y       z     vdW  Elec       q    Type
REMARK                         _______ _______ _______ _____ _____    ______ ____
ROOT
ATOM      1  C   UNL     1       5.418   4.848  19.014  0.00  0.00    +0.000 A 
ATOM      2  C   UNL     1       4.981   3.544  19.318  0.00  0.00    +0.000 A 
ATOM      3  C   UNL     1       3.693   3.314  19.788  0.00  0.00    +0.000 A 
ATOM      4  C   UNL     1       2.830   4.383  20.005  0.00  0.00    +0.000 A 
ATOM      5  C   UNL     1       3.249   5.696  19.781  0.00  0.00    +0.000 A 
ATOM      6  C   UNL     1       4.538   5.918  19.281  0.00  0.00    +0.000 A 
ENDROOT
BRANCH   5   7
ATOM      7  N   UNL     1       2.419   6.813  20.010  0.00  0.00    +0.000 N 
ATOM      8  C   UNL     1       2.175   7.845  19.122  0.00  0.00    +0.000 C 
ATOM      9  O   UNL     1       2.620   7.952  17.979  0.00  0.00    +0.000 OA
ATOM     10  H   UNL     1       1.898   6.859  20.884  0.00  0.00    +0.000 HD
BRANCH   8  11
ATOM     11  C   UNL     1       1.248   8.906  19.623  0.00  0.00    +0.000 A 
ATOM     12  C   UNL     1       0.717   9.818  18.720  0.00  0.00    +0.000 A 
ATOM     13  C   UNL     1      -0.175  10.770  19.190  0.00  0.00    +0.000 A 
ATOM     14  C   UNL     1      -0.509  10.779  20.542  0.00  0.00    +0.000 A 
ATOM     15  C   UNL     1       0.067   9.835  21.400  0.00  0.00    +0.000 A 
ATOM     16  N   UNL     1       0.954   8.894  20.951  0.00  0.00    +0.000 NA
BRANCH  15  17
ATOM     17  C   UNL     1      -0.322   9.828  22.875  0.00  0.00    +0.000 C 
ATOM     18  F   UNL     1       0.720   9.551  23.712  0.00  0.00    +0.000 F 
ATOM     19  F   UNL     1      -0.815  11.030  23.291  0.00  0.00    +0.000 F 
ATOM     20  F   UNL     1      -1.282   8.906  23.167  0.00  0.00    +0.000 F 
ENDBRANCH  15  17
ENDBRANCH   8  11
ENDBRANCH   5   7
BRANCH   1  22
ATOM     21  C   UNL     1       7.893   5.472  19.301  0.00  0.00    +0.000 C 
ATOM     22  C   UNL     1       6.780   5.034  18.339  0.00  0.00    +0.000 C 
BRANCH  22  23
ATOM     23  S   UNL     1       6.566   6.295  17.004  0.00  0.00    +0.000 S 
BRANCH  23  24
ATOM     24  C   UNL     1       6.653   5.361  15.564  0.00  0.00    +0.000 A 
ATOM     25  N   UNL     1       7.620   5.336  14.677  0.00  0.00    +0.000 NA
ATOM     26  N   UNL     1       7.222   4.499  13.656  0.00  0.00    +0.000 NA
ATOM     27  C   UNL     1       6.035   4.027  13.967  0.00  0.00    +0.000 A 
ATOM     28  N   UNL     1       5.648   4.529  15.172  0.00  0.00    +0.000 N 
ATOM     29  C   UNL     1       4.418   4.246  15.861  0.00  0.00    +0.000 C 
ENDBRANCH  23  24
ENDBRANCH  22  23
ENDBRANCH   1  22
TORSDOF 6
ENDMDL
MODEL 6
REMARK VINA RESULT:      -7.8      2.005      2.919
REMARK  Name = 
REMARK  8 active torsions:
REMARK  status: ('A' for Active; 'I' for Inactive)
REMARK    1  A    between atoms: C_1  and  C_2
REMARK    2  A    between atoms: C_2  and  S_3
REMARK    3  A    between atoms: C_2  and  C_10
REMARK    4  A    between atoms: S_3  and  C_4
REMARK    5  A    between atoms: N_8  and  C_9
REMARK    6  A    between atoms: C_14  and  N_15
REMARK    7  A    between atoms: C_16  and  C_18
REMARK    8  A    between atoms: C_22  and  C_23
REMARK                            x       y       z     vdW  Elec       q    Type
REMARK                         _______ _______ _______ _____ _____    ______ ____
ROOT
ATOM      1  C   UNL     1       4.382   5.687  17.173  0.00  0.00    +0.000 A 
ATOM      2  C   UNL     1       3.895   4.376  17.343  0.00  0.00    +0.000 A 
ATOM      3  C   UNL     1       2.738   4.135  18.076  0.00  0.00    +0.000 A 
ATOM      4  C   UNL     1       2.069   5.190  18.688  0.00  0.00    +0.000 A 
ATOM      5  C   UNL     1       2.559   6.494  18.599  0.00  0.00    +0.000 A 
ATOM      6  C   UNL     1       3.708   6.733  17.836  0.00  0.00    +0.000 A 
ENDROOT
BRANCH   5   7
ATOM      7  N   UNL     1       1.929   7.591  19.223  0.00  0.00    +0.000 N 
ATOM      8  C   UNL     1       1.706   8.835  18.657  0.00  0.00    +0.000 C 
ATOM      9  O   UNL     1       1.996   9.185  17.513  0.00  0.00    +0.000 OA
ATOM     10  H   UNL     1       1.549   7.465  20.158  0.00  0.00    +0.000 HD
BRANCH   8  11
ATOM     11  C   UNL     1       1.013   9.819  19.544  0.00  0.00    +0.000 A 
ATOM     12  C   UNL     1       0.732  11.086  19.054  0.00  0.00    +0.000 A 
ATOM     13  C   UNL     1       0.050  11.975  19.871  0.00  0.00    +0.000 A 
ATOM     14  C   UNL     1      -0.331  11.569  21.147  0.00  0.00    +0.000 A 
ATOM     15  C   UNL     1      -0.011  10.278  21.583  0.00  0.00    +0.000 A 
ATOM     16  N   UNL     1       0.667   9.393  20.789  0.00  0.00    +0.000 NA
BRANCH  15  17
ATOM     17  C   UNL     1      -0.454   9.826  22.971  0.00  0.00    +0.000 C 
ATOM     18  F   UNL     1       0.585   9.581  23.822  0.00  0.00    +0.000 F 
ATOM     19  F   UNL     1      -1.231  10.753  23.601  0.00  0.00    +0.000 F 
ATOM     20  F   UNL     1      -1.185   8.675  22.947  0.00  0.00    +0.000 F 
ENDBRANCH  15  17
ENDBRANCH   8  11
ENDBRANCH   5   7
BRANCH   1  22
ATOM     21  C   UNL     1       5.255   6.921  15.095  0.00  0.00    +0.000 C 
ATOM     22  C   UNL     1       5.558   5.920  16.219  0.00  0.00    +0.000 C 
BRANCH  22  23
ATOM     23  S   UNL     1       6.014   4.280  15.498  0.00  0.00    +0.000 S 
BRANCH  23  24
ATOM     24  C   UNL     1       6.935   4.704  14.110  0.00  0.00    +0.000 A 
ATOM     25  N   UNL     1       7.957   5.524  14.040  0.00  0.00    +0.000 NA
ATOM     26  N   UNL     1       8.328   5.611  12.715  0.00  0.00    +0.000 NA
ATOM     27  C   UNL     1       7.530   4.824  12.026  0.00  0.00    +0.000 A 
ATOM     28  N   UNL     1       6.651   4.217  12.869  0.00  0.00    +0.000 N 
ATOM     29  C   UNL     1       5.624   3.278  12.504  0.00  0.00    +0.000 C 
ENDBRANCH  23  24
ENDBRANCH  22  23
ENDBRANCH   1  22
TORSDOF 6
ENDMDL
MODEL 7
REMARK VINA RESULT:      -7.8      6.792      9.908
REMARK  Name = 
REMARK  8 active torsions:
REMARK  status: ('A' for Active; 'I' for Inactive)
REMARK    1  A    between atoms: C_1  and  C_2
REMARK    2  A    between atoms: C_2  and  S_3
REMARK    3  A    between atoms: C_2  and  C_10
REMARK    4  A    between atoms: S_3  and  C_4
REMARK    5  A    between atoms: N_8  and  C_9
REMARK    6  A    between atoms: C_14  and  N_15
REMARK    7  A    between atoms: C_16  and  C_18
REMARK    8  A    between atoms: C_22  and  C_23
REMARK                            x       y       z     vdW  Elec       q    Type
REMARK                         _______ _______ _______ _____ _____    ______ ____
ROOT
ATOM      1  C   UNL     1       9.812  12.584  18.673  0.00  0.00    +0.000 A 
ATOM      2  C   UNL     1       9.937  12.929  20.033  0.00  0.00    +0.000 A 
ATOM      3  C   UNL     1       9.772  11.973  21.029  0.00  0.00    +0.000 A 
ATOM      4  C   UNL     1       9.436  10.666  20.692  0.00  0.00    +0.000 A 
ATOM      5  C   UNL     1       9.236  10.301  19.359  0.00  0.00    +0.000 A 
ATOM      6  C   UNL     1       9.432  11.262  18.359  0.00  0.00    +0.000 A 
ENDROOT
BRANCH   5   7
ATOM      7  N   UNL     1       8.872   8.996  18.970  0.00  0.00    +0.000 N 
ATOM      8  C   UNL     1       7.984   8.661  17.963  0.00  0.00    +0.000 C 
ATOM      9  O   UNL     1       7.382   9.441  17.224  0.00  0.00    +0.000 OA
ATOM     10  H   UNL     1       9.331   8.209  19.423  0.00  0.00    +0.000 HD
BRANCH   8  11
ATOM     11  C   UNL     1       7.781   7.194  17.758  0.00  0.00    +0.000 A 
ATOM     12  C   UNL     1       7.969   6.333  18.830  0.00  0.00    +0.000 A 
ATOM     13  C   UNL     1       7.736   4.979  18.639  0.00  0.00    +0.000 A 
ATOM     14  C   UNL     1       7.320   4.532  17.388  0.00  0.00    +0.000 A 
ATOM     15  C   UNL     1       7.154   5.453  16.347  0.00  0.00    +0.000 A 
ATOM     16  N   UNL     1       7.387   6.790  16.520  0.00  0.00    +0.000 NA
BRANCH  15  17
ATOM     17  C   UNL     1       6.671   4.964  14.986  0.00  0.00    +0.000 C 
ATOM     18  F   UNL     1       6.440   3.619  14.941  0.00  0.00    +0.000 F 
ATOM     19  F   UNL     1       5.498   5.548  14.605  0.00  0.00    +0.000 F 
ATOM     20  F   UNL     1       7.560   5.216  13.984  0.00  0.00    +0.000 F 
ENDBRANCH  15  17
ENDBRANCH   8  11
ENDBRANCH   5   7
BRANCH   1  22
ATOM     21  C   UNL     1      11.676  13.898  17.491  0.00  0.00    +0.000 C 
ATOM     22  C   UNL     1      10.170  13.627  17.609  0.00  0.00    +0.000 C 
BRANCH  22  23
ATOM     23  S   UNL     1       9.279  15.186  18.047  0.00  0.00    +0.000 S 
BRANCH  23  24
ATOM     24  C   UNL     1      10.524  16.371  18.020  0.00  0.00    +0.000 A 
ATOM     25  N   UNL     1      11.038  16.976  16.974  0.00  0.00    +0.000 NA
ATOM     26  N   UNL     1      12.057  17.788  17.427  0.00  0.00    +0.000 NA
ATOM     27  C   UNL     1      12.114  17.665  18.735  0.00  0.00    +0.000 A 
ATOM     28  N   UNL     1      11.151  16.797  19.152  0.00  0.00    +0.000 N 
ATOM     29  C   UNL     1      10.883  16.404  20.509  0.00  0.00    +0.000 C 
ENDBRANCH  23  24
ENDBRANCH  22  23
ENDBRANCH   1  22
TORSDOF 6
ENDMDL
MODEL 8
REMARK VINA RESULT:      -7.8      4.425      8.716
REMARK  Name = 
REMARK  8 active torsions:
REMARK  status: ('A' for Active; 'I' for Inactive)
REMARK    1  A    between atoms: C_1  and  C_2
REMARK    2  A    between atoms: C_2  and  S_3
REMARK    3  A    between atoms: C_2  and  C_10
REMARK    4  A    between atoms: S_3  and  C_4
REMARK    5  A    between atoms: N_8  and  C_9
REMARK    6  A    between atoms: C_14  and  N_15
REMARK    7  A    between atoms: C_16  and  C_18
REMARK    8  A    between atoms: C_22  and  C_23
REMARK                            x       y       z     vdW  Elec       q    Type
REMARK                         _______ _______ _______ _____ _____    ______ ____
ROOT
ATOM      1  C   UNL     1      -0.481  10.991  20.671  0.00  0.00    +0.000 A 
ATOM      2  C   UNL     1      -0.863  11.197  22.012  0.00  0.00    +0.000 A 
ATOM      3  C   UNL     1      -0.480  10.306  23.008  0.00  0.00    +0.000 A 
ATOM      4  C   UNL     1       0.254   9.170  22.681  0.00  0.00    +0.000 A 
ATOM      5  C   UNL     1       0.593   8.895  21.355  0.00  0.00    +0.000 A 
ATOM      6  C   UNL     1       0.229   9.812  20.361  0.00  0.00    +0.000 A 
ENDROOT
BRANCH   5   7
ATOM      7  N   UNL     1       1.314   7.746  20.973  0.00  0.00    +0.000 N 
ATOM      8  C   UNL     1       2.002   7.570  19.785  0.00  0.00    +0.000 C 
ATOM      9  O   UNL     1       2.120   8.391  18.875  0.00  0.00    +0.000 OA
ATOM     10  H   UNL     1       1.394   6.980  21.638  0.00  0.00    +0.000 HD
BRANCH   8  11
ATOM     11  C   UNL     1       2.685   6.248  19.638  0.00  0.00    +0.000 A 
ATOM     12  C   UNL     1       3.814   6.159  18.836  0.00  0.00    +0.000 A 
ATOM     13  C   UNL     1       4.463   4.937  18.742  0.00  0.00    +0.000 A 
ATOM     14  C   UNL     1       3.966   3.848  19.453  0.00  0.00    +0.000 A 
ATOM     15  C   UNL     1       2.819   4.004  20.239  0.00  0.00    +0.000 A 
ATOM     16  N   UNL     1       2.165   5.202  20.335  0.00  0.00    +0.000 NA
BRANCH  15  17
ATOM     17  C   UNL     1       2.293   2.816  21.039  0.00  0.00    +0.000 C 
ATOM     18  F   UNL     1       3.263   2.161  21.742  0.00  0.00    +0.000 F 
ATOM     19  F   UNL     1       1.356   3.179  21.961  0.00  0.00    +0.000 F 
ATOM     20  F   UNL     1       1.704   1.867  20.257  0.00  0.00    +0.000 F 
ENDBRANCH  15  17
ENDBRANCH   8  11
ENDBRANCH   5   7
BRANCH   1  22
ATOM     21  C   UNL     1      -0.284  13.477  20.055  0.00  0.00    +0.000 C 
ATOM     22  C   UNL     1      -0.779  12.085  19.641  0.00  0.00    +0.000 C 
BRANCH  22  23
ATOM     23  S   UNL     1      -2.609  12.115  19.385  0.00  0.00    +0.000 S 
BRANCH  23  24
ATOM     24  C   UNL     1      -2.803  11.368  17.849  0.00  0.00    +0.000 A 
ATOM     25  N   UNL     1      -1.906  10.709  17.154  0.00  0.00    +0.000 NA
ATOM     26  N   UNL     1      -2.489  10.354  15.956  0.00  0.00    +0.000 NA
ATOM     27  C   UNL     1      -3.729  10.793  15.972  0.00  0.00    +0.000 A 
ATOM     28  N   UNL     1      -3.975  11.419  17.155  0.00  0.00    +0.000 N 
ATOM     29  C   UNL     1      -5.214  12.025  17.561  0.00  0.00    +0.000 C 
ENDBRANCH  23  24
ENDBRANCH  22  23
ENDBRANCH   1  22
TORSDOF 6
ENDMDL
MODEL 9
REMARK VINA RESULT:      -7.7      0.807      1.520
REMARK  Name = 
REMARK  8 active torsions:
REMARK  status: ('A' for Active; 'I' for Inactive)
REMARK    1  A    between atoms: C_1  and  C_2
REMARK    2  A    between atoms: C_2  and  S_3
REMARK    3  A    between atoms: C_2  and  C_10
REMARK    4  A    between atoms: S_3  and  C_4
REMARK    5  A    between atoms: N_8  and  C_9
REMARK    6  A    between atoms: C_14  and  N_15
REMARK    7  A    between atoms: C_16  and  C_18
REMARK    8  A    between atoms: C_22  and  C_23
REMARK                            x       y       z     vdW  Elec       q    Type
REMARK                         _______ _______ _______ _____ _____    ______ ____
ROOT
ATOM      1  C   UNL     1       4.482   5.338  16.706  0.00  0.00    +0.000 A 
ATOM      2  C   UNL     1       3.960   4.049  16.933  0.00  0.00    +0.000 A 
ATOM      3  C   UNL     1       2.868   3.861  17.773  0.00  0.00    +0.000 A 
ATOM      4  C   UNL     1       2.303   4.946  18.435  0.00  0.00    +0.000 A 
ATOM      5  C   UNL     1       2.835   6.228  18.289  0.00  0.00    +0.000 A 
ATOM      6  C   UNL     1       3.917   6.415  17.420  0.00  0.00    +0.000 A 
ENDROOT
BRANCH   5   7
ATOM      7  N   UNL     1       2.312   7.354  18.958  0.00  0.00    +0.000 N 
ATOM      8  C   UNL     1       1.945   8.554  18.374  0.00  0.00    +0.000 C 
ATOM      9  O   UNL     1       1.991   8.833  17.176  0.00  0.00    +0.000 OA
ATOM     10  H   UNL     1       2.130   7.283  19.957  0.00  0.00    +0.000 HD
BRANCH   8  11
ATOM     11  C   UNL     1       1.416   9.583  19.321  0.00  0.00    +0.000 A 
ATOM     12  C   UNL     1       1.441  10.919  18.946  0.00  0.00    +0.000 A 
ATOM     13  C   UNL     1       0.908  11.859  19.815  0.00  0.00    +0.000 A 
ATOM     14  C   UNL     1       0.365  11.435  21.025  0.00  0.00    +0.000 A 
ATOM     15  C   UNL     1       0.376  10.072  21.344  0.00  0.00    +0.000 A 
ATOM     16  N   UNL     1       0.905   9.135  20.500  0.00  0.00    +0.000 NA
BRANCH  15  17
ATOM     17  C   UNL     1      -0.246   9.607  22.657  0.00  0.00    +0.000 C 
ATOM     18  F   UNL     1      -1.158  10.485  23.169  0.00  0.00    +0.000 F 
ATOM     19  F   UNL     1      -0.910   8.422  22.532  0.00  0.00    +0.000 F 
ATOM     20  F   UNL     1       0.675   9.420  23.645  0.00  0.00    +0.000 F 
ENDBRANCH  15  17
ENDBRANCH   8  11
ENDBRANCH   5   7
BRANCH   1  22
ATOM     21  C   UNL     1       5.156   5.048  14.244  0.00  0.00    +0.000 C 
ATOM     22  C   UNL     1       5.572   5.517  15.644  0.00  0.00    +0.000 C 
BRANCH  22  23
ATOM     23  S   UNL     1       7.055   4.569  16.213  0.00  0.00    +0.000 S 
BRANCH  23  24
ATOM     24  C   UNL     1       7.284   5.127  17.822  0.00  0.00    +0.000 A 
ATOM     25  N   UNL     1       7.184   4.440  18.935  0.00  0.00    +0.000 NA
ATOM     26  N   UNL     1       7.380   5.317  19.982  0.00  0.00    +0.000 NA
ATOM     27  C   UNL     1       7.613   6.505  19.467  0.00  0.00    +0.000 A 
ATOM     28  N   UNL     1       7.582   6.426  18.109  0.00  0.00    +0.000 N 
ATOM     29  C   UNL     1       7.798   7.506  17.184  0.00  0.00    +0.000 C 
ENDBRANCH  23  24
ENDBRANCH  22  23
ENDBRANCH   1  22
TORSDOF 6
ENDMDL
