MODEL 1
REMARK VINA RESULT:      -8.4      0.000      0.000
REMARK  Name = 
REMARK  9 active torsions:
REMARK  status: ('A' for Active; 'I' for Inactive)
REMARK    1  A    between atoms: C_1  and  C_2
REMARK    2  A    between atoms: C_2  and  S_3
REMARK    3  A    between atoms: C_2  and  C_10
REMARK    4  A    between atoms: S_3  and  C_4
REMARK    5  A    between atoms: N_8  and  C_9
REMARK    6  A    between atoms: C_14  and  N_15
REMARK    7  A    between atoms: C_16  and  C_18
REMARK    8  A    between atoms: C_21  and  C_22
REMARK    9  A    between atoms: C_24  and  C_25
REMARK                            x       y       z     vdW  Elec       q    Type
REMARK                         _______ _______ _______ _____ _____    ______ ____
ROOT
ATOM      1  C   UNL     1       4.711   5.171  18.040  0.00  0.00    +0.000 A 
ATOM      2  C   UNL     1       4.652   3.870  18.565  0.00  0.00    +0.000 A 
ATOM      3  C   UNL     1       3.732   3.545  19.556  0.00  0.00    +0.000 A 
ATOM      4  C   UNL     1       2.902   4.528  20.082  0.00  0.00    +0.000 A 
ATOM      5  C   UNL     1       3.014   5.856  19.665  0.00  0.00    +0.000 A 
ATOM      6  C   UNL     1       3.906   6.168  18.628  0.00  0.00    +0.000 A 
ENDROOT
BRANCH   5   7
ATOM      7  N   UNL     1       2.258   6.893  20.244  0.00  0.00    +0.000 N 
ATOM      8  C   UNL     1       1.804   8.037  19.600  0.00  0.00    +0.000 C 
ATOM      9  O   UNL     1       1.972   8.348  18.425  0.00  0.00    +0.000 OA
ATOM     10  H   UNL     1       1.935   6.777  21.202  0.00  0.00    +0.000 HD
BRANCH   8  11
ATOM     11  C   UNL     1       1.001   8.945  20.469  0.00  0.00    +0.000 A 
ATOM     12  C   UNL     1       0.802   8.623  21.802  0.00  0.00    +0.000 A 
ATOM     13  C   UNL     1       0.043   9.492  22.574  0.00  0.00    +0.000 A 
ATOM     14  C   UNL     1      -0.487  10.651  21.990  0.00  0.00    +0.000 A 
ATOM     15  C   UNL     1      -0.238  10.919  20.638  0.00  0.00    +0.000 A 
ATOM     16  N   UNL     1       0.503  10.061  19.879  0.00  0.00    +0.000 NA
BRANCH  15  17
ATOM     17  C   UNL     1      -0.781  12.127  19.903  0.00  0.00    +0.000 C 
ATOM     18  C   UNL     1      -0.953  12.165  18.404  0.00  0.00    +0.000 C 
ATOM     19  C   UNL     1      -2.158  12.002  19.277  0.00  0.00    +0.000 C 
ENDBRANCH  15  17
BRANCH  14  20
ATOM     20  C   UNL     1      -1.277  11.532  22.792  0.00  0.00    +0.000 C 
ATOM     21  N   UNL     1      -1.926  12.267  23.414  0.00  0.00    +0.000 NA
ENDBRANCH  14  20
ENDBRANCH   8  11
ENDBRANCH   5   7
BRANCH   1  23
ATOM     22  C   UNL     1       5.011   6.677  16.023  0.00  0.00    +0.000 C 
ATOM     23  C   UNL     1       5.586   5.503  16.841  0.00  0.00    +0.000 C 
BRANCH  23  24
ATOM     24  S   UNL     1       5.734   4.111  15.685  0.00  0.00    +0.000 S 
BRANCH  24  25
ATOM     25  C   UNL     1       6.832   4.666  14.478  0.00  0.00    +0.000 A 
ATOM     26  N   UNL     1       7.828   5.524  14.583  0.00  0.00    +0.000 NA
ATOM     27  N   UNL     1       8.326   5.732  13.315  0.00  0.00    +0.000 NA
ATOM     28  C   UNL     1       7.617   5.007  12.479  0.00  0.00    +0.000 A 
ATOM     29  N   UNL     1       6.692   4.290  13.171  0.00  0.00    +0.000 N 
ATOM     30  C   UNL     1       5.772   3.322  12.633  0.00  0.00    +0.000 C 
ENDBRANCH  24  25
ENDBRANCH  23  24
ENDBRANCH   1  23
TORSDOF 7
ENDMDL
MODEL 2
REMARK VINA RESULT:      -8.0      3.923      9.268
REMARK  Name = 
REMARK  9 active torsions:
REMARK  status: ('A' for Active; 'I' for Inactive)
REMARK    1  A    between atoms: C_1  and  C_2
REMARK    2  A    between atoms: C_2  and  S_3
REMARK    3  A    between atoms: C_2  and  C_10
REMARK    4  A    between atoms: S_3  and  C_4
REMARK    5  A    between atoms: N_8  and  C_9
REMARK    6  A    between atoms: C_14  and  N_15
REMARK    7  A    between atoms: C_16  and  C_18
REMARK    8  A    between atoms: C_21  and  C_22
REMARK    9  A    between atoms: C_24  and  C_25
REMARK                            x       y       z     vdW  Elec       q    Type
REMARK                         _______ _______ _______ _____ _____    ______ ____
ROOT
ATOM      1  C   UNL     1      -0.900  11.143  20.693  0.00  0.00    +0.000 A 
ATOM      2  C   UNL     1      -1.226  11.451  22.023  0.00  0.00    +0.000 A 
ATOM      3  C   UNL     1      -0.742  10.675  23.071  0.00  0.00    +0.000 A 
ATOM      4  C   UNL     1       0.022   9.544  22.802  0.00  0.00    +0.000 A 
ATOM      5  C   UNL     1       0.268   9.145  21.487  0.00  0.00    +0.000 A 
ATOM      6  C   UNL     1      -0.178   9.960  20.436  0.00  0.00    +0.000 A 
ENDROOT
BRANCH   5   7
ATOM      7  N   UNL     1       0.954   7.955  21.178  0.00  0.00    +0.000 N 
ATOM      8  C   UNL     1       1.733   7.725  20.052  0.00  0.00    +0.000 C 
ATOM      9  O   UNL     1       1.967   8.505  19.135  0.00  0.00    +0.000 OA
ATOM     10  H   UNL     1       0.958   7.208  21.869  0.00  0.00    +0.000 HD
BRANCH   8  11
ATOM     11  C   UNL     1       2.359   6.372  20.012  0.00  0.00    +0.000 A 
ATOM     12  C   UNL     1       1.793   5.330  20.730  0.00  0.00    +0.000 A 
ATOM     13  C   UNL     1       2.411   4.089  20.671  0.00  0.00    +0.000 A 
ATOM     14  C   UNL     1       3.569   3.930  19.899  0.00  0.00    +0.000 A 
ATOM     15  C   UNL     1       4.083   5.024  19.190  0.00  0.00    +0.000 A 
ATOM     16  N   UNL     1       3.478   6.245  19.254  0.00  0.00    +0.000 NA
BRANCH  15  17
ATOM     17  C   UNL     1       5.339   4.969  18.346  0.00  0.00    +0.000 C 
ATOM     18  C   UNL     1       6.065   6.206  17.876  0.00  0.00    +0.000 C 
ATOM     19  C   UNL     1       6.638   5.399  18.999  0.00  0.00    +0.000 C 
ENDBRANCH  15  17
BRANCH  14  20
ATOM     20  C   UNL     1       4.203   2.650  19.855  0.00  0.00    +0.000 C 
ATOM     21  N   UNL     1       4.748   1.625  19.806  0.00  0.00    +0.000 NA
ENDBRANCH  14  20
ENDBRANCH   8  11
ENDBRANCH   5   7
BRANCH   1  23
ATOM     22  C   UNL     1      -1.018  13.551  19.911  0.00  0.00    +0.000 C 
ATOM     23  C   UNL     1      -1.275  12.075  19.549  0.00  0.00    +0.000 C 
BRANCH  23  24
ATOM     24  S   UNL     1      -3.033  11.963  19.112  0.00  0.00    +0.000 S 
BRANCH  24  25
ATOM     25  C   UNL     1      -3.046  11.198  17.568  0.00  0.00    +0.000 A 
ATOM     26  N   UNL     1      -2.104  10.489  16.976  0.00  0.00    +0.000 NA
ATOM     27  N   UNL     1      -2.547  10.201  15.704  0.00  0.00    +0.000 NA
ATOM     28  C   UNL     1      -3.732  10.746  15.554  0.00  0.00    +0.000 A 
ATOM     29  N   UNL     1      -4.104  11.350  16.715  0.00  0.00    +0.000 N 
ATOM     30  C   UNL     1      -5.361  11.996  16.986  0.00  0.00    +0.000 C 
ENDBRANCH  24  25
ENDBRANCH  23  24
ENDBRANCH   1  23
TORSDOF 7
ENDMDL
MODEL 3
REMARK VINA RESULT:      -7.9      3.260      9.586
REMARK  Name = 
REMARK  9 active torsions:
REMARK  status: ('A' for Active; 'I' for Inactive)
REMARK    1  A    between atoms: C_1  and  C_2
REMARK    2  A    between atoms: C_2  and  S_3
REMARK    3  A    between atoms: C_2  and  C_10
REMARK    4  A    between atoms: S_3  and  C_4
REMARK    5  A    between atoms: N_8  and  C_9
REMARK    6  A    between atoms: C_14  and  N_15
REMARK    7  A    between atoms: C_16  and  C_18
REMARK    8  A    between atoms: C_21  and  C_22
REMARK    9  A    between atoms: C_24  and  C_25
REMARK                            x       y       z     vdW  Elec       q    Type
REMARK                         _______ _______ _______ _____ _____    ______ ____
ROOT
ATOM      1  C   UNL     1      -0.409  11.041  20.289  0.00  0.00    +0.000 A 
ATOM      2  C   UNL     1      -0.623  10.769  21.650  0.00  0.00    +0.000 A 
ATOM      3  C   UNL     1       0.080   9.754  22.291  0.00  0.00    +0.000 A 
ATOM      4  C   UNL     1       0.960   8.956  21.568  0.00  0.00    +0.000 A 
ATOM      5  C   UNL     1       1.110   9.124  20.190  0.00  0.00    +0.000 A 
ATOM      6  C   UNL     1       0.439  10.182  19.559  0.00  0.00    +0.000 A 
ENDROOT
BRANCH   5   7
ATOM      7  N   UNL     1       1.918   8.273  19.412  0.00  0.00    +0.000 N 
ATOM      8  C   UNL     1       2.189   6.936  19.669  0.00  0.00    +0.000 C 
ATOM      9  O   UNL     1       1.777   6.258  20.604  0.00  0.00    +0.000 OA
ATOM     10  H   UNL     1       2.283   8.629  18.531  0.00  0.00    +0.000 HD
BRANCH   8  11
ATOM     11  C   UNL     1       3.059   6.285  18.647  0.00  0.00    +0.000 A 
ATOM     12  C   UNL     1       3.795   7.068  17.771  0.00  0.00    +0.000 A 
ATOM     13  C   UNL     1       4.587   6.422  16.832  0.00  0.00    +0.000 A 
ATOM     14  C   UNL     1       4.618   5.022  16.801  0.00  0.00    +0.000 A 
ATOM     15  C   UNL     1       3.856   4.293  17.723  0.00  0.00    +0.000 A 
ATOM     16  N   UNL     1       3.074   4.928  18.641  0.00  0.00    +0.000 NA
BRANCH  15  17
ATOM     17  C   UNL     1       3.799   2.780  17.762  0.00  0.00    +0.000 C 
ATOM     18  C   UNL     1       3.269   2.011  18.947  0.00  0.00    +0.000 C 
ATOM     19  C   UNL     1       2.428   2.132  17.714  0.00  0.00    +0.000 C 
ENDBRANCH  15  17
BRANCH  14  20
ATOM     20  C   UNL     1       5.429   4.368  15.821  0.00  0.00    +0.000 C 
ATOM     21  N   UNL     1       6.116   3.856  15.038  0.00  0.00    +0.000 NA
ENDBRANCH  14  20
ENDBRANCH   8  11
ENDBRANCH   5   7
BRANCH   1  23
ATOM     22  C   UNL     1      -0.854  13.530  20.455  0.00  0.00    +0.000 C 
ATOM     23  C   UNL     1      -1.037  12.251  19.614  0.00  0.00    +0.000 C 
BRANCH  23  24
ATOM     24  S   UNL     1      -2.826  12.060  19.373  0.00  0.00    +0.000 S 
BRANCH  24  25
ATOM     25  C   UNL     1      -2.981  11.431  17.776  0.00  0.00    +0.000 A 
ATOM     26  N   UNL     1      -2.044  11.057  16.929  0.00  0.00    +0.000 NA
ATOM     27  N   UNL     1      -2.666  10.745  15.740  0.00  0.00    +0.000 NA
ATOM     28  C   UNL     1      -3.956  10.945  15.893  0.00  0.00    +0.000 A 
ATOM     29  N   UNL     1      -4.205  11.340  17.171  0.00  0.00    +0.000 N 
ATOM     30  C   UNL     1      -5.494  11.587  17.761  0.00  0.00    +0.000 C 
ENDBRANCH  24  25
ENDBRANCH  23  24
ENDBRANCH   1  23
TORSDOF 7
ENDMDL
MODEL 4
REMARK VINA RESULT:      -7.8      3.147      9.433
REMARK  Name = 
REMARK  9 active torsions:
REMARK  status: ('A' for Active; 'I' for Inactive)
REMARK    1  A    between atoms: C_1  and  C_2
REMARK    2  A    between atoms: C_2  and  S_3
REMARK    3  A    between atoms: C_2  and  C_10
REMARK    4  A    between atoms: S_3  and  C_4
REMARK    5  A    between atoms: N_8  and  C_9
REMARK    6  A    between atoms: C_14  and  N_15
REMARK    7  A    between atoms: C_16  and  C_18
REMARK    8  A    between atoms: C_21  and  C_22
REMARK    9  A    between atoms: C_24  and  C_25
REMARK                            x       y       z     vdW  Elec       q    Type
REMARK                         _______ _______ _______ _____ _____    ______ ____
ROOT
ATOM      1  C   UNL     1      -0.384  10.985  20.874  0.00  0.00    +0.000 A 
ATOM      2  C   UNL     1      -0.573  10.648  22.225  0.00  0.00    +0.000 A 
ATOM      3  C   UNL     1       0.127   9.592  22.798  0.00  0.00    +0.000 A 
ATOM      4  C   UNL     1       0.979   8.818  22.017  0.00  0.00    +0.000 A 
ATOM      5  C   UNL     1       1.102   9.053  20.647  0.00  0.00    +0.000 A 
ATOM      6  C   UNL     1       0.434  10.151  20.084  0.00  0.00    +0.000 A 
ENDROOT
BRANCH   5   7
ATOM      7  N   UNL     1       1.879   8.230  19.809  0.00  0.00    +0.000 N 
ATOM      8  C   UNL     1       2.065   6.861  19.945  0.00  0.00    +0.000 C 
ATOM      9  O   UNL     1       1.590   6.126  20.804  0.00  0.00    +0.000 OA
ATOM     10  H   UNL     1       2.288   8.643  18.973  0.00  0.00    +0.000 HD
BRANCH   8  11
ATOM     11  C   UNL     1       2.922   6.256  18.885  0.00  0.00    +0.000 A 
ATOM     12  C   UNL     1       3.544   7.073  17.954  0.00  0.00    +0.000 A 
ATOM     13  C   UNL     1       4.328   6.468  16.981  0.00  0.00    +0.000 A 
ATOM     14  C   UNL     1       4.466   5.074  16.972  0.00  0.00    +0.000 A 
ATOM     15  C   UNL     1       3.816   4.310  17.951  0.00  0.00    +0.000 A 
ATOM     16  N   UNL     1       3.041   4.904  18.902  0.00  0.00    +0.000 NA
BRANCH  15  17
ATOM     17  C   UNL     1       3.879   2.798  18.020  0.00  0.00    +0.000 C 
ATOM     18  C   UNL     1       3.090   1.991  19.022  0.00  0.00    +0.000 C 
ATOM     19  C   UNL     1       2.642   2.029  17.594  0.00  0.00    +0.000 C 
ENDBRANCH  15  17
BRANCH  14  20
ATOM     20  C   UNL     1       5.266   4.463  15.958  0.00  0.00    +0.000 C 
ATOM     21  N   UNL     1       5.897   3.936  15.138  0.00  0.00    +0.000 NA
ENDBRANCH  14  20
ENDBRANCH   8  11
ENDBRANCH   5   7
BRANCH   1  23
ATOM     22  C   UNL     1      -2.193  11.897  19.352  0.00  0.00    +0.000 C 
ATOM     23  C   UNL     1      -1.006  12.237  20.275  0.00  0.00    +0.000 C 
BRANCH  23  24
ATOM     24  S   UNL     1       0.168  13.175  19.258  0.00  0.00    +0.000 S 
BRANCH  24  25
ATOM     25  C   UNL     1       1.382  13.693  20.367  0.00  0.00    +0.000 A 
ATOM     26  N   UNL     1       1.292  13.914  21.663  0.00  0.00    +0.000 NA
ATOM     27  N   UNL     1       2.500  14.432  22.075  0.00  0.00    +0.000 NA
ATOM     28  C   UNL     1       3.283  14.520  21.024  0.00  0.00    +0.000 A 
ATOM     29  N   UNL     1       2.635  14.029  19.933  0.00  0.00    +0.000 N 
ATOM     30  C   UNL     1       3.171  13.880  18.606  0.00  0.00    +0.000 C 
ENDBRANCH  24  25
ENDBRANCH  23  24
ENDBRANCH   1  23
TORSDOF 7
ENDMDL
MODEL 5
REMARK VINA RESULT:      -7.7      3.042      9.337
REMARK  Name = 
REMARK  9 active torsions:
REMARK  status: ('A' for Active; 'I' for Inactive)
REMARK    1  A    between atoms: C_1  and  C_2
REMARK    2  A    between atoms: C_2  and  S_3
REMARK    3  A    between atoms: C_2  and  C_10
REMARK    4  A    between atoms: S_3  and  C_4
REMARK    5  A    between atoms: N_8  and  C_9
REMARK    6  A    between atoms: C_14  and  N_15
REMARK    7  A    between atoms: C_16  and  C_18
REMARK    8  A    between atoms: C_21  and  C_22
REMARK    9  A    between atoms: C_24  and  C_25
REMARK                            x       y       z     vdW  Elec       q    Type
REMARK                         _______ _______ _______ _____ _____    ______ ____
ROOT
ATOM      1  C   UNL     1      -0.391  11.119  20.917  0.00  0.00    +0.000 A 
ATOM      2  C   UNL     1      -0.617  10.772  22.259  0.00  0.00    +0.000 A 
ATOM      3  C   UNL     1       0.046   9.694  22.835  0.00  0.00    +0.000 A 
ATOM      4  C   UNL     1       0.895   8.908  22.063  0.00  0.00    +0.000 A 
ATOM      5  C   UNL     1       1.052   9.154  20.698  0.00  0.00    +0.000 A 
ATOM      6  C   UNL     1       0.423  10.275  20.135  0.00  0.00    +0.000 A 
ENDROOT
BRANCH   5   7
ATOM      7  N   UNL     1       1.826   8.322  19.867  0.00  0.00    +0.000 N 
ATOM      8  C   UNL     1       1.983   6.949  19.996  0.00  0.00    +0.000 C 
ATOM      9  O   UNL     1       1.480   6.217  20.842  0.00  0.00    +0.000 OA
ATOM     10  H   UNL     1       2.257   8.733  19.041  0.00  0.00    +0.000 HD
BRANCH   8  11
ATOM     11  C   UNL     1       2.846   6.334  18.946  0.00  0.00    +0.000 A 
ATOM     12  C   UNL     1       3.476   7.143  18.013  0.00  0.00    +0.000 A 
ATOM     13  C   UNL     1       4.265   6.529  17.050  0.00  0.00    +0.000 A 
ATOM     14  C   UNL     1       4.399   5.135  17.052  0.00  0.00    +0.000 A 
ATOM     15  C   UNL     1       3.741   4.379  18.031  0.00  0.00    +0.000 A 
ATOM     16  N   UNL     1       2.961   4.982  18.974  0.00  0.00    +0.000 NA
BRANCH  15  17
ATOM     17  C   UNL     1       3.799   2.868  18.111  0.00  0.00    +0.000 C 
ATOM     18  C   UNL     1       2.947   2.065  19.064  0.00  0.00    +0.000 C 
ATOM     19  C   UNL     1       2.592   2.096  17.609  0.00  0.00    +0.000 C 
ENDBRANCH  15  17
BRANCH  14  20
ATOM     20  C   UNL     1       5.204   4.514  16.047  0.00  0.00    +0.000 C 
ATOM     21  N   UNL     1       5.859   3.980  15.251  0.00  0.00    +0.000 NA
ENDBRANCH  14  20
ENDBRANCH   8  11
ENDBRANCH   5   7
BRANCH   1  23
ATOM     22  C   UNL     1      -2.510  12.409  20.399  0.00  0.00    +0.000 C 
ATOM     23  C   UNL     1      -0.971  12.392  20.319  0.00  0.00    +0.000 C 
BRANCH  23  24
ATOM     24  S   UNL     1      -0.556  12.583  18.562  0.00  0.00    +0.000 S 
BRANCH  24  25
ATOM     25  C   UNL     1       0.924  13.465  18.562  0.00  0.00    +0.000 A 
ATOM     26  N   UNL     1       2.163  13.021  18.484  0.00  0.00    +0.000 NA
ATOM     27  N   UNL     1       2.998  14.105  18.649  0.00  0.00    +0.000 NA
ATOM     28  C   UNL     1       2.250  15.169  18.831  0.00  0.00    +0.000 A 
ATOM     29  N   UNL     1       0.937  14.821  18.745  0.00  0.00    +0.000 N 
ATOM     30  C   UNL     1      -0.195  15.705  18.813  0.00  0.00    +0.000 C 
ENDBRANCH  24  25
ENDBRANCH  23  24
ENDBRANCH   1  23
TORSDOF 7
ENDMDL
MODEL 6
REMARK VINA RESULT:      -7.7      3.745      9.425
REMARK  Name = 
REMARK  9 active torsions:
REMARK  status: ('A' for Active; 'I' for Inactive)
REMARK    1  A    between atoms: C_1  and  C_2
REMARK    2  A    between atoms: C_2  and  S_3
REMARK    3  A    between atoms: C_2  and  C_10
REMARK    4  A    between atoms: S_3  and  C_4
REMARK    5  A    between atoms: N_8  and  C_9
REMARK    6  A    between atoms: C_14  and  N_15
REMARK    7  A    between atoms: C_16  and  C_18
REMARK    8  A    between atoms: C_21  and  C_22
REMARK    9  A    between atoms: C_24  and  C_25
REMARK                            x       y       z     vdW  Elec       q    Type
REMARK                         _______ _______ _______ _____ _____    ______ ____
ROOT
ATOM      1  C   UNL     1      -0.488  10.954  20.910  0.00  0.00    +0.000 A 
ATOM      2  C   UNL     1      -0.811  11.103  22.268  0.00  0.00    +0.000 A 
ATOM      3  C   UNL     1      -0.451  10.131  23.195  0.00  0.00    +0.000 A 
ATOM      4  C   UNL     1       0.181   8.967  22.771  0.00  0.00    +0.000 A 
ATOM      5  C   UNL     1       0.414   8.735  21.414  0.00  0.00    +0.000 A 
ATOM      6  C   UNL     1       0.096   9.741  20.489  0.00  0.00    +0.000 A 
ENDROOT
BRANCH   5   7
ATOM      7  N   UNL     1       0.964   7.528  20.940  0.00  0.00    +0.000 N 
ATOM      8  C   UNL     1       1.865   7.392  19.893  0.00  0.00    +0.000 C 
ATOM      9  O   UNL     1       2.345   8.283  19.201  0.00  0.00    +0.000 OA
ATOM     10  H   UNL     1       0.755   6.672  21.449  0.00  0.00    +0.000 HD
BRANCH   8  11
ATOM     11  C   UNL     1       2.291   5.985  19.638  0.00  0.00    +0.000 A 
ATOM     12  C   UNL     1       1.944   4.988  20.536  0.00  0.00    +0.000 A 
ATOM     13  C   UNL     1       2.366   3.693  20.264  0.00  0.00    +0.000 A 
ATOM     14  C   UNL     1       3.117   3.440  19.108  0.00  0.00    +0.000 A 
ATOM     15  C   UNL     1       3.424   4.495  18.239  0.00  0.00    +0.000 A 
ATOM     16  N   UNL     1       3.014   5.767  18.510  0.00  0.00    +0.000 NA
BRANCH  15  17
ATOM     17  C   UNL     1       4.248   4.337  16.978  0.00  0.00    +0.000 C 
ATOM     18  C   UNL     1       4.960   5.490  16.315  0.00  0.00    +0.000 C 
ATOM     19  C   UNL     1       5.752   4.493  17.102  0.00  0.00    +0.000 C 
ENDBRANCH  15  17
BRANCH  14  20
ATOM     20  C   UNL     1       3.556   2.105  18.846  0.00  0.00    +0.000 C 
ATOM     21  N   UNL     1       3.930   1.033  18.603  0.00  0.00    +0.000 NA
ENDBRANCH  14  20
ENDBRANCH   8  11
ENDBRANCH   5   7
BRANCH   1  23
ATOM     22  C   UNL     1      -0.070  13.396  20.379  0.00  0.00    +0.000 C 
ATOM     23  C   UNL     1      -0.719  12.079  19.912  0.00  0.00    +0.000 C 
BRANCH  23  24
ATOM     24  S   UNL     1      -2.481  12.443  19.674  0.00  0.00    +0.000 S 
BRANCH  24  25
ATOM     25  C   UNL     1      -2.872  11.716  18.162  0.00  0.00    +0.000 A 
ATOM     26  N   UNL     1      -2.074  11.333  17.185  0.00  0.00    +0.000 NA
ATOM     27  N   UNL     1      -2.872  10.926  16.139  0.00  0.00    +0.000 NA
ATOM     28  C   UNL     1      -4.125  11.080  16.501  0.00  0.00    +0.000 A 
ATOM     29  N   UNL     1      -4.174  11.537  17.782  0.00  0.00    +0.000 N 
ATOM     30  C   UNL     1      -5.356  11.764  18.571  0.00  0.00    +0.000 C 
ENDBRANCH  24  25
ENDBRANCH  23  24
ENDBRANCH   1  23
TORSDOF 7
ENDMDL
MODEL 7
REMARK VINA RESULT:      -7.6      1.297      1.826
REMARK  Name = 
REMARK  9 active torsions:
REMARK  status: ('A' for Active; 'I' for Inactive)
REMARK    1  A    between atoms: C_1  and  C_2
REMARK    2  A    between atoms: C_2  and  S_3
REMARK    3  A    between atoms: C_2  and  C_10
REMARK    4  A    between atoms: S_3  and  C_4
REMARK    5  A    between atoms: N_8  and  C_9
REMARK    6  A    between atoms: C_14  and  N_15
REMARK    7  A    between atoms: C_16  and  C_18
REMARK    8  A    between atoms: C_21  and  C_22
REMARK    9  A    between atoms: C_24  and  C_25
REMARK                            x       y       z     vdW  Elec       q    Type
REMARK                         _______ _______ _______ _____ _____    ______ ____
ROOT
ATOM      1  C   UNL     1       5.513   4.777  18.938  0.00  0.00    +0.000 A 
ATOM      2  C   UNL     1       4.924   3.560  18.559  0.00  0.00    +0.000 A 
ATOM      3  C   UNL     1       3.543   3.400  18.589  0.00  0.00    +0.000 A 
ATOM      4  C   UNL     1       2.735   4.430  19.056  0.00  0.00    +0.000 A 
ATOM      5  C   UNL     1       3.295   5.610  19.549  0.00  0.00    +0.000 A 
ATOM      6  C   UNL     1       4.684   5.787  19.467  0.00  0.00    +0.000 A 
ENDROOT
BRANCH   5   7
ATOM      7  N   UNL     1       2.513   6.634  20.118  0.00  0.00    +0.000 N 
ATOM      8  C   UNL     1       2.111   7.805  19.490  0.00  0.00    +0.000 C 
ATOM      9  O   UNL     1       2.353   8.157  18.341  0.00  0.00    +0.000 OA
ATOM     10  H   UNL     1       2.131   6.486  21.049  0.00  0.00    +0.000 HD
BRANCH   8  11
ATOM     11  C   UNL     1       1.264   8.690  20.342  0.00  0.00    +0.000 A 
ATOM     12  C   UNL     1       1.094   8.395  21.685  0.00  0.00    +0.000 A 
ATOM     13  C   UNL     1       0.293   9.241  22.440  0.00  0.00    +0.000 A 
ATOM     14  C   UNL     1      -0.308  10.350  21.829  0.00  0.00    +0.000 A 
ATOM     15  C   UNL     1      -0.085  10.594  20.468  0.00  0.00    +0.000 A 
ATOM     16  N   UNL     1       0.697   9.759  19.726  0.00  0.00    +0.000 NA
BRANCH  15  17
ATOM     17  C   UNL     1      -0.703  11.748  19.705  0.00  0.00    +0.000 C 
ATOM     18  C   UNL     1      -0.945  11.709  18.216  0.00  0.00    +0.000 C 
ATOM     19  C   UNL     1      -2.102  11.550  19.153  0.00  0.00    +0.000 C 
ENDBRANCH  15  17
BRANCH  14  20
ATOM     20  C   UNL     1      -1.140  11.207  22.615  0.00  0.00    +0.000 C 
ATOM     21  N   UNL     1      -1.827  11.874  23.271  0.00  0.00    +0.000 NA
ENDBRANCH  14  20
ENDBRANCH   8  11
ENDBRANCH   5   7
BRANCH   1  23
ATOM     22  C   UNL     1       7.643   5.628  20.017  0.00  0.00    +0.000 C 
ATOM     23  C   UNL     1       7.002   5.030  18.749  0.00  0.00    +0.000 C 
BRANCH  23  24
ATOM     24  S   UNL     1       7.339   6.209  17.411  0.00  0.00    +0.000 S 
BRANCH  24  25
ATOM     25  C   UNL     1       6.793   5.412  15.984  0.00  0.00    +0.000 A 
ATOM     26  N   UNL     1       7.396   4.492  15.256  0.00  0.00    +0.000 NA
ATOM     27  N   UNL     1       6.607   4.263  14.150  0.00  0.00    +0.000 NA
ATOM     28  C   UNL     1       5.558   5.051  14.230  0.00  0.00    +0.000 A 
ATOM     29  N   UNL     1       5.613   5.763  15.388  0.00  0.00    +0.000 N 
ATOM     30  C   UNL     1       4.621   6.680  15.884  0.00  0.00    +0.000 C 
ENDBRANCH  24  25
ENDBRANCH  23  24
ENDBRANCH   1  23
TORSDOF 7
ENDMDL
MODEL 8
REMARK VINA RESULT:      -7.6      3.193      9.150
REMARK  Name = 
REMARK  9 active torsions:
REMARK  status: ('A' for Active; 'I' for Inactive)
REMARK    1  A    between atoms: C_1  and  C_2
REMARK    2  A    between atoms: C_2  and  S_3
REMARK    3  A    between atoms: C_2  and  C_10
REMARK    4  A    between atoms: S_3  and  C_4
REMARK    5  A    between atoms: N_8  and  C_9
REMARK    6  A    between atoms: C_14  and  N_15
REMARK    7  A    between atoms: C_16  and  C_18
REMARK    8  A    between atoms: C_21  and  C_22
REMARK    9  A    between atoms: C_24  and  C_25
REMARK                            x       y       z     vdW  Elec       q    Type
REMARK                         _______ _______ _______ _____ _____    ______ ____
ROOT
ATOM      1  C   UNL     1       0.084  10.771  20.373  0.00  0.00    +0.000 A 
ATOM      2  C   UNL     1      -0.278  10.380  21.673  0.00  0.00    +0.000 A 
ATOM      3  C   UNL     1       0.238   9.217  22.234  0.00  0.00    +0.000 A 
ATOM      4  C   UNL     1       1.071   8.395  21.484  0.00  0.00    +0.000 A 
ATOM      5  C   UNL     1       1.358   8.694  20.150  0.00  0.00    +0.000 A 
ATOM      6  C   UNL     1       0.879   9.895  19.607  0.00  0.00    +0.000 A 
ENDROOT
BRANCH   5   7
ATOM      7  N   UNL     1       2.119   7.836  19.333  0.00  0.00    +0.000 N 
ATOM      8  C   UNL     1       2.409   6.502  19.589  0.00  0.00    +0.000 C 
ATOM      9  O   UNL     1       2.059   5.834  20.556  0.00  0.00    +0.000 OA
ATOM     10  H   UNL     1       2.428   8.182  18.427  0.00  0.00    +0.000 HD
BRANCH   8  11
ATOM     11  C   UNL     1       3.217   5.841  18.523  0.00  0.00    +0.000 A 
ATOM     12  C   UNL     1       2.774   4.654  17.961  0.00  0.00    +0.000 A 
ATOM     13  C   UNL     1       3.559   4.069  16.977  0.00  0.00    +0.000 A 
ATOM     14  C   UNL     1       4.754   4.688  16.588  0.00  0.00    +0.000 A 
ATOM     15  C   UNL     1       5.137   5.893  17.192  0.00  0.00    +0.000 A 
ATOM     16  N   UNL     1       4.368   6.464  18.163  0.00  0.00    +0.000 NA
BRANCH  15  17
ATOM     17  C   UNL     1       6.417   6.633  16.864  0.00  0.00    +0.000 C 
ATOM     18  C   UNL     1       6.921   7.798  17.679  0.00  0.00    +0.000 C 
ATOM     19  C   UNL     1       7.585   6.463  17.818  0.00  0.00    +0.000 C 
ENDBRANCH  15  17
BRANCH  14  20
ATOM     20  C   UNL     1       5.560   4.070  15.582  0.00  0.00    +0.000 C 
ATOM     21  N   UNL     1       6.222   3.600  14.751  0.00  0.00    +0.000 NA
ENDBRANCH  14  20
ENDBRANCH   8  11
ENDBRANCH   5   7
BRANCH   1  23
ATOM     22  C   UNL     1      -1.581  12.005  18.914  0.00  0.00    +0.000 C 
ATOM     23  C   UNL     1      -0.330  12.122  19.808  0.00  0.00    +0.000 C 
BRANCH  23  24
ATOM     24  S   UNL     1       0.961  12.863  18.771  0.00  0.00    +0.000 S 
BRANCH  24  25
ATOM     25  C   UNL     1       2.164  13.388  19.888  0.00  0.00    +0.000 A 
ATOM     26  N   UNL     1       2.252  13.173  21.186  0.00  0.00    +0.000 NA
ATOM     27  N   UNL     1       3.324  13.903  21.651  0.00  0.00    +0.000 NA
ATOM     28  C   UNL     1       3.849  14.544  20.632  0.00  0.00    +0.000 A 
ATOM     29  N   UNL     1       3.176  14.220  19.495  0.00  0.00    +0.000 N 
ATOM     30  C   UNL     1       3.485  14.651  18.158  0.00  0.00    +0.000 C 
ENDBRANCH  24  25
ENDBRANCH  23  24
ENDBRANCH   1  23
TORSDOF 7
ENDMDL
MODEL 9
REMARK VINA RESULT:      -7.6      3.892      9.158
REMARK  Name = 
REMARK  9 active torsions:
REMARK  status: ('A' for Active; 'I' for Inactive)
REMARK    1  A    between atoms: C_1  and  C_2
REMARK    2  A    between atoms: C_2  and  S_3
REMARK    3  A    between atoms: C_2  and  C_10
REMARK    4  A    between atoms: S_3  and  C_4
REMARK    5  A    between atoms: N_8  and  C_9
REMARK    6  A    between atoms: C_14  and  N_15
REMARK    7  A    between atoms: C_16  and  C_18
REMARK    8  A    between atoms: C_21  and  C_22
REMARK    9  A    between atoms: C_24  and  C_25
REMARK                            x       y       z     vdW  Elec       q    Type
REMARK                         _______ _______ _______ _____ _____    ______ ____
ROOT
ATOM      1  C   UNL     1      -0.216  11.801  18.702  0.00  0.00    +0.000 A 
ATOM      2  C   UNL     1       0.782  12.771  18.518  0.00  0.00    +0.000 A 
ATOM      3  C   UNL     1       2.095  12.398  18.252  0.00  0.00    +0.000 A 
ATOM      4  C   UNL     1       2.443  11.052  18.229  0.00  0.00    +0.000 A 
ATOM      5  C   UNL     1       1.500  10.066  18.522  0.00  0.00    +0.000 A 
ATOM      6  C   UNL     1       0.167  10.444  18.737  0.00  0.00    +0.000 A 
ENDROOT
BRANCH   5   7
ATOM      7  N   UNL     1       1.839   8.701  18.602  0.00  0.00    +0.000 N 
ATOM      8  C   UNL     1       1.899   7.936  19.760  0.00  0.00    +0.000 C 
ATOM      9  O   UNL     1       1.667   8.301  20.908  0.00  0.00    +0.000 OA
ATOM     10  H   UNL     1       1.980   8.188  17.735  0.00  0.00    +0.000 HD
BRANCH   8  11
ATOM     11  C   UNL     1       2.261   6.509  19.526  0.00  0.00    +0.000 A 
ATOM     12  C   UNL     1       1.831   5.535  20.415  0.00  0.00    +0.000 A 
ATOM     13  C   UNL     1       2.196   4.220  20.164  0.00  0.00    +0.000 A 
ATOM     14  C   UNL     1       2.975   3.922  19.038  0.00  0.00    +0.000 A 
ATOM     15  C   UNL     1       3.367   4.955  18.176  0.00  0.00    +0.000 A 
ATOM     16  N   UNL     1       3.013   6.247  18.427  0.00  0.00    +0.000 NA
BRANCH  15  17
ATOM     17  C   UNL     1       4.227   4.747  16.946  0.00  0.00    +0.000 C 
ATOM     18  C   UNL     1       5.022   5.858  16.307  0.00  0.00    +0.000 C 
ATOM     19  C   UNL     1       5.731   4.825  17.126  0.00  0.00    +0.000 C 
ENDBRANCH  15  17
BRANCH  14  20
ATOM     20  C   UNL     1       3.355   2.565  18.797  0.00  0.00    +0.000 C 
ATOM     21  N   UNL     1       3.644   1.463  18.571  0.00  0.00    +0.000 NA
ENDBRANCH  14  20
ENDBRANCH   8  11
ENDBRANCH   5   7
BRANCH   1  23
ATOM     22  C   UNL     1      -1.989  12.850  20.179  0.00  0.00    +0.000 C 
ATOM     23  C   UNL     1      -1.683  12.185  18.822  0.00  0.00    +0.000 C 
BRANCH  23  24
ATOM     24  S   UNL     1      -2.787  10.749  18.705  0.00  0.00    +0.000 S 
BRANCH  24  25
ATOM     25  C   UNL     1      -3.028  10.526  17.013  0.00  0.00    +0.000 A 
ATOM     26  N   UNL     1      -2.289   9.867  16.142  0.00  0.00    +0.000 NA
ATOM     27  N   UNL     1      -2.833  10.085  14.895  0.00  0.00    +0.000 NA
ATOM     28  C   UNL     1      -3.874  10.873  15.040  0.00  0.00    +0.000 A 
ATOM     29  N   UNL     1      -4.059  11.144  16.361  0.00  0.00    +0.000 N 
ATOM     30  C   UNL     1      -5.131  11.907  16.943  0.00  0.00    +0.000 C 
ENDBRANCH  24  25
ENDBRANCH  23  24
ENDBRANCH   1  23
TORSDOF 7
ENDMDL
