MODEL 1
REMARK VINA RESULT:      -9.0      0.000      0.000
REMARK  Name = 
REMARK  7 active torsions:
REMARK  status: ('A' for Active; 'I' for Inactive)
REMARK    1  A    between atoms: C_1  and  C_2
REMARK    2  A    between atoms: C_2  and  S_3
REMARK    3  A    between atoms: C_2  and  C_10
REMARK    4  A    between atoms: S_3  and  C_4
REMARK    5  A    between atoms: N_8  and  C_9
REMARK    6  A    between atoms: C_14  and  N_15
REMARK    7  A    between atoms: C_24  and  O_25
REMARK                            x       y       z     vdW  Elec       q    Type
REMARK                         _______ _______ _______ _____ _____    ______ ____
ROOT
ATOM      1  C   UNL     1       4.778   4.859  17.077  0.00  0.00    +0.000 A 
ATOM      2  C   UNL     1       5.545   3.937  16.342  0.00  0.00    +0.000 A 
ATOM      3  C   UNL     1       6.792   4.304  15.841  0.00  0.00    +0.000 A 
ATOM      4  C   UNL     1       7.277   5.591  16.069  0.00  0.00    +0.000 A 
ATOM      5  C   UNL     1       6.531   6.561  16.747  0.00  0.00    +0.000 A 
ATOM      6  C   UNL     1       5.294   6.176  17.272  0.00  0.00    +0.000 A 
ENDROOT
BRANCH   5   7
ATOM      7  N   UNL     1       7.022   7.923  16.902  0.00  0.00    +0.000 N 
ATOM      8  C   UNL     1       7.873   8.281  17.919  0.00  0.00    +0.000 C 
ATOM      9  O   UNL     1       8.314   7.466  18.726  0.00  0.00    +0.000 OA
ATOM     10  N   UNL     1       8.295   9.574  18.023  0.00  0.00    +0.000 N 
ATOM     11  C   UNL     1       9.413   9.747  18.946  0.00  0.00    +0.000 C 
ATOM     12  C   UNL     1       9.945  11.075  18.537  0.00  0.00    +0.000 A 
ATOM     13  C   UNL     1      11.219  11.402  18.118  0.00  0.00    +0.000 A 
ATOM     14  C   UNL     1      11.440  12.664  17.570  0.00  0.00    +0.000 A 
ATOM     15  C   UNL     1      10.418  13.611  17.598  0.00  0.00    +0.000 A 
ATOM     16  C   UNL     1       9.128  13.229  17.966  0.00  0.00    +0.000 A 
ATOM     17  C   UNL     1       8.863  11.888  18.207  0.00  0.00    +0.000 A 
ATOM     18  C   UNL     1       7.913  10.903  17.474  0.00  0.00    +0.000 C 
ATOM     19  H   UNL     1       7.021   8.511  16.088  0.00  0.00    +0.000 HD
BRANCH  16  20
ATOM     20  O   UNL     1       8.390  14.197  18.607  0.00  0.00    +0.000 OA
ATOM     21  H   UNL     1       8.121  14.829  17.922  0.00  0.00    +0.000 HD
ENDBRANCH  16  20
ENDBRANCH   5   7
BRANCH   1  23
ATOM     22  C   UNL     1       2.845   5.376  18.635  0.00  0.00    +0.000 C 
ATOM     23  C   UNL     1       3.446   4.370  17.655  0.00  0.00    +0.000 C 
BRANCH  23  24
ATOM     24  S   UNL     1       3.736   2.713  18.394  0.00  0.00    +0.000 S 
BRANCH  24  25
ATOM     25  C   UNL     1       2.936   2.743  19.929  0.00  0.00    +0.000 A 
ATOM     26  N   UNL     1       3.470   2.841  21.125  0.00  0.00    +0.000 NA
ATOM     27  N   UNL     1       2.458   2.696  22.044  0.00  0.00    +0.000 NA
ATOM     28  C   UNL     1       1.330   2.529  21.387  0.00  0.00    +0.000 A 
ATOM     29  N   UNL     1       1.587   2.587  20.045  0.00  0.00    +0.000 N 
ATOM     30  C   UNL     1       0.607   2.498  19.002  0.00  0.00    +0.000 C 
ENDBRANCH  24  25
ENDBRANCH  23  24
ENDBRANCH   1  23
TORSDOF 5
ENDMDL
MODEL 2
REMARK VINA RESULT:      -8.8      0.721      1.160
REMARK  Name = 
REMARK  7 active torsions:
REMARK  status: ('A' for Active; 'I' for Inactive)
REMARK    1  A    between atoms: C_1  and  C_2
REMARK    2  A    between atoms: C_2  and  S_3
REMARK    3  A    between atoms: C_2  and  C_10
REMARK    4  A    between atoms: S_3  and  C_4
REMARK    5  A    between atoms: N_8  and  C_9
REMARK    6  A    between atoms: C_14  and  N_15
REMARK    7  A    between atoms: C_24  and  O_25
REMARK                            x       y       z     vdW  Elec       q    Type
REMARK                         _______ _______ _______ _____ _____    ______ ____
ROOT
ATOM      1  C   UNL     1       4.588   5.338  17.220  0.00  0.00    +0.000 A 
ATOM      2  C   UNL     1       5.410   4.285  16.778  0.00  0.00    +0.000 A 
ATOM      3  C   UNL     1       6.756   4.516  16.503  0.00  0.00    +0.000 A 
ATOM      4  C   UNL     1       7.285   5.796  16.662  0.00  0.00    +0.000 A 
ATOM      5  C   UNL     1       6.498   6.887  17.047  0.00  0.00    +0.000 A 
ATOM      6  C   UNL     1       5.156   6.641  17.351  0.00  0.00    +0.000 A 
ENDROOT
BRANCH   5   7
ATOM      7  N   UNL     1       7.053   8.230  17.129  0.00  0.00    +0.000 N 
ATOM      8  C   UNL     1       7.977   8.582  18.082  0.00  0.00    +0.000 C 
ATOM      9  O   UNL     1       8.433   7.773  18.888  0.00  0.00    +0.000 OA
ATOM     10  N   UNL     1       8.458   9.858  18.118  0.00  0.00    +0.000 N 
ATOM     11  C   UNL     1       9.635  10.011  18.968  0.00  0.00    +0.000 C 
ATOM     12  C   UNL     1      10.195  11.302  18.485  0.00  0.00    +0.000 A 
ATOM     13  C   UNL     1      11.454  11.562  17.981  0.00  0.00    +0.000 A 
ATOM     14  C   UNL     1      11.693  12.796  17.380  0.00  0.00    +0.000 A 
ATOM     15  C   UNL     1      10.714  13.786  17.438  0.00  0.00    +0.000 A 
ATOM     16  C   UNL     1       9.435  13.471  17.893  0.00  0.00    +0.000 A 
ATOM     17  C   UNL     1       9.129  12.151  18.193  0.00  0.00    +0.000 A 
ATOM     18  C   UNL     1       8.098  11.185  17.550  0.00  0.00    +0.000 C 
ATOM     19  H   UNL     1       7.027   8.793  16.297  0.00  0.00    +0.000 HD
BRANCH  16  20
ATOM     20  O   UNL     1       8.777  14.489  18.544  0.00  0.00    +0.000 OA
ATOM     21  H   UNL     1       8.961  15.296  18.039  0.00  0.00    +0.000 HD
ENDBRANCH  16  20
ENDBRANCH   5   7
BRANCH   1  23
ATOM     22  C   UNL     1       2.650   5.768  18.799  0.00  0.00    +0.000 C 
ATOM     23  C   UNL     1       3.134   5.001  17.570  0.00  0.00    +0.000 C 
BRANCH  23  24
ATOM     24  S   UNL     1       3.016   3.176  17.754  0.00  0.00    +0.000 S 
BRANCH  24  25
ATOM     25  C   UNL     1       2.391   2.911  19.347  0.00  0.00    +0.000 A 
ATOM     26  N   UNL     1       1.157   3.060  19.774  0.00  0.00    +0.000 NA
ATOM     27  N   UNL     1       1.162   2.856  21.134  0.00  0.00    +0.000 NA
ATOM     28  C   UNL     1       2.394   2.573  21.500  0.00  0.00    +0.000 A 
ATOM     29  N   UNL     1       3.195   2.564  20.391  0.00  0.00    +0.000 N 
ATOM     30  C   UNL     1       4.593   2.248  20.374  0.00  0.00    +0.000 C 
ENDBRANCH  24  25
ENDBRANCH  23  24
ENDBRANCH   1  23
TORSDOF 5
ENDMDL
MODEL 3
REMARK VINA RESULT:      -8.2      3.549      4.747
REMARK  Name = 
REMARK  7 active torsions:
REMARK  status: ('A' for Active; 'I' for Inactive)
REMARK    1  A    between atoms: C_1  and  C_2
REMARK    2  A    between atoms: C_2  and  S_3
REMARK    3  A    between atoms: C_2  and  C_10
REMARK    4  A    between atoms: S_3  and  C_4
REMARK    5  A    between atoms: N_8  and  C_9
REMARK    6  A    between atoms: C_14  and  N_15
REMARK    7  A    between atoms: C_24  and  O_25
REMARK                            x       y       z     vdW  Elec       q    Type
REMARK                         _______ _______ _______ _____ _____    ______ ____
ROOT
ATOM      1  C   UNL     1       6.237   6.021  17.240  0.00  0.00    +0.000 A 
ATOM      2  C   UNL     1       6.904   5.221  18.185  0.00  0.00    +0.000 A 
ATOM      3  C   UNL     1       7.915   5.765  18.975  0.00  0.00    +0.000 A 
ATOM      4  C   UNL     1       8.267   7.104  18.822  0.00  0.00    +0.000 A 
ATOM      5  C   UNL     1       7.673   7.928  17.859  0.00  0.00    +0.000 A 
ATOM      6  C   UNL     1       6.638   7.384  17.092  0.00  0.00    +0.000 A 
ENDROOT
BRANCH   5   7
ATOM      7  N   UNL     1       8.112   9.302  17.661  0.00  0.00    +0.000 N 
ATOM      8  C   UNL     1       8.849   9.976  18.603  0.00  0.00    +0.000 C 
ATOM      9  O   UNL     1       9.228   9.447  19.646  0.00  0.00    +0.000 OA
ATOM     10  N   UNL     1       9.227  11.266  18.369  0.00  0.00    +0.000 N 
ATOM     11  C   UNL     1      10.243  11.751  19.298  0.00  0.00    +0.000 C 
ATOM     12  C   UNL     1      10.780  12.934  18.575  0.00  0.00    +0.000 A 
ATOM     13  C   UNL     1      12.081  13.195  18.193  0.00  0.00    +0.000 A 
ATOM     14  C   UNL     1      12.324  14.261  17.328  0.00  0.00    +0.000 A 
ATOM     15  C   UNL     1      11.281  15.123  16.994  0.00  0.00    +0.000 A 
ATOM     16  C   UNL     1       9.972  14.794  17.342  0.00  0.00    +0.000 A 
ATOM     17  C   UNL     1       9.716  13.564  17.932  0.00  0.00    +0.000 A 
ATOM     18  C   UNL     1       8.868  12.364  17.431  0.00  0.00    +0.000 C 
ATOM     19  H   UNL     1       8.178   9.635  16.716  0.00  0.00    +0.000 HD
BRANCH  16  20
ATOM     20  O   UNL     1       9.150  15.864  17.610  0.00  0.00    +0.000 OA
ATOM     21  H   UNL     1       8.263  15.496  17.748  0.00  0.00    +0.000 HD
ENDBRANCH  16  20
ENDBRANCH   5   7
BRANCH   1  23
ATOM     22  C   UNL     1       3.901   5.042  17.348  0.00  0.00    +0.000 C 
ATOM     23  C   UNL     1       5.090   5.379  16.452  0.00  0.00    +0.000 C 
BRANCH  23  24
ATOM     24  S   UNL     1       5.773   3.922  15.565  0.00  0.00    +0.000 S 
BRANCH  24  25
ATOM     25  C   UNL     1       6.832   4.569  14.358  0.00  0.00    +0.000 A 
ATOM     26  N   UNL     1       7.798   5.447  14.506  0.00  0.00    +0.000 NA
ATOM     27  N   UNL     1       8.278   5.750  13.254  0.00  0.00    +0.000 NA
ATOM     28  C   UNL     1       7.606   5.038  12.375  0.00  0.00    +0.000 A 
ATOM     29  N   UNL     1       6.705   4.252  13.039  0.00  0.00    +0.000 N 
ATOM     30  C   UNL     1       5.822   3.299  12.431  0.00  0.00    +0.000 C 
ENDBRANCH  24  25
ENDBRANCH  23  24
ENDBRANCH   1  23
TORSDOF 5
ENDMDL
MODEL 4
REMARK VINA RESULT:      -8.2      1.886      2.459
REMARK  Name = 
REMARK  7 active torsions:
REMARK  status: ('A' for Active; 'I' for Inactive)
REMARK    1  A    between atoms: C_1  and  C_2
REMARK    2  A    between atoms: C_2  and  S_3
REMARK    3  A    between atoms: C_2  and  C_10
REMARK    4  A    between atoms: S_3  and  C_4
REMARK    5  A    between atoms: N_8  and  C_9
REMARK    6  A    between atoms: C_14  and  N_15
REMARK    7  A    between atoms: C_24  and  O_25
REMARK                            x       y       z     vdW  Elec       q    Type
REMARK                         _______ _______ _______ _____ _____    ______ ____
ROOT
ATOM      1  C   UNL     1       5.054   4.830  17.613  0.00  0.00    +0.000 A 
ATOM      2  C   UNL     1       5.648   3.971  16.671  0.00  0.00    +0.000 A 
ATOM      3  C   UNL     1       6.730   4.407  15.909  0.00  0.00    +0.000 A 
ATOM      4  C   UNL     1       7.219   5.700  16.081  0.00  0.00    +0.000 A 
ATOM      5  C   UNL     1       6.631   6.611  16.965  0.00  0.00    +0.000 A 
ATOM      6  C   UNL     1       5.565   6.156  17.748  0.00  0.00    +0.000 A 
ENDROOT
BRANCH   5   7
ATOM      7  N   UNL     1       7.107   7.983  17.070  0.00  0.00    +0.000 N 
ATOM      8  C   UNL     1       7.988   8.377  18.047  0.00  0.00    +0.000 C 
ATOM      9  O   UNL     1       8.469   7.588  18.858  0.00  0.00    +0.000 OA
ATOM     10  N   UNL     1       8.396   9.678  18.104  0.00  0.00    +0.000 N 
ATOM     11  C   UNL     1       9.542   9.889  18.983  0.00  0.00    +0.000 C 
ATOM     12  C   UNL     1      10.040  11.213  18.523  0.00  0.00    +0.000 A 
ATOM     13  C   UNL     1      11.295  11.547  18.050  0.00  0.00    +0.000 A 
ATOM     14  C   UNL     1      11.478  12.797  17.464  0.00  0.00    +0.000 A 
ATOM     15  C   UNL     1      10.444  13.731  17.506  0.00  0.00    +0.000 A 
ATOM     16  C   UNL     1       9.174  13.341  17.928  0.00  0.00    +0.000 A 
ATOM     17  C   UNL     1       8.936  12.003  18.211  0.00  0.00    +0.000 A 
ATOM     18  C   UNL     1       7.975  10.987  17.537  0.00  0.00    +0.000 C 
ATOM     19  H   UNL     1       7.070   8.550  16.242  0.00  0.00    +0.000 HD
BRANCH  16  20
ATOM     20  O   UNL     1       8.445  14.315  18.571  0.00  0.00    +0.000 OA
ATOM     21  H   UNL     1       8.469  14.091  19.514  0.00  0.00    +0.000 HD
ENDBRANCH  16  20
ENDBRANCH   5   7
BRANCH   1  23
ATOM     22  C   UNL     1       3.795   2.748  18.330  0.00  0.00    +0.000 C 
ATOM     23  C   UNL     1       3.912   4.265  18.465  0.00  0.00    +0.000 C 
BRANCH  23  24
ATOM     24  S   UNL     1       2.376   5.160  18.000  0.00  0.00    +0.000 S 
BRANCH  24  25
ATOM     25  C   UNL     1       2.117   6.320  19.258  0.00  0.00    +0.000 A 
ATOM     26  N   UNL     1       1.822   6.103  20.520  0.00  0.00    +0.000 NA
ATOM     27  N   UNL     1       1.587   7.324  21.107  0.00  0.00    +0.000 NA
ATOM     28  C   UNL     1       1.758   8.256  20.195  0.00  0.00    +0.000 A 
ATOM     29  N   UNL     1       2.128   7.662  19.019  0.00  0.00    +0.000 N 
ATOM     30  C   UNL     1       2.454   8.349  17.803  0.00  0.00    +0.000 C 
ENDBRANCH  24  25
ENDBRANCH  23  24
ENDBRANCH   1  23
TORSDOF 5
ENDMDL
MODEL 5
REMARK VINA RESULT:      -8.1      6.587      9.915
REMARK  Name = 
REMARK  7 active torsions:
REMARK  status: ('A' for Active; 'I' for Inactive)
REMARK    1  A    between atoms: C_1  and  C_2
REMARK    2  A    between atoms: C_2  and  S_3
REMARK    3  A    between atoms: C_2  and  C_10
REMARK    4  A    between atoms: S_3  and  C_4
REMARK    5  A    between atoms: N_8  and  C_9
REMARK    6  A    between atoms: C_14  and  N_15
REMARK    7  A    between atoms: C_24  and  O_25
REMARK                            x       y       z     vdW  Elec       q    Type
REMARK                         _______ _______ _______ _____ _____    ______ ____
ROOT
ATOM      1  C   UNL     1      -0.276  11.803  18.640  0.00  0.00    +0.000 A 
ATOM      2  C   UNL     1       0.673  12.832  18.498  0.00  0.00    +0.000 A 
ATOM      3  C   UNL     1       2.018  12.523  18.301  0.00  0.00    +0.000 A 
ATOM      4  C   UNL     1       2.420  11.190  18.248  0.00  0.00    +0.000 A 
ATOM      5  C   UNL     1       1.525  10.131  18.436  0.00  0.00    +0.000 A 
ATOM      6  C   UNL     1       0.173  10.448  18.603  0.00  0.00    +0.000 A 
ENDROOT
BRANCH   5   7
ATOM      7  N   UNL     1       1.980   8.748  18.458  0.00  0.00    +0.000 N 
ATOM      8  C   UNL     1       1.887   7.966  19.583  0.00  0.00    +0.000 C 
ATOM      9  O   UNL     1       1.366   8.366  20.622  0.00  0.00    +0.000 OA
ATOM     10  N   UNL     1       2.336   6.678  19.549  0.00  0.00    +0.000 N 
ATOM     11  C   UNL     1       1.906   5.884  20.697  0.00  0.00    +0.000 C 
ATOM     12  C   UNL     1       2.120   4.496  20.205  0.00  0.00    +0.000 A 
ATOM     13  C   UNL     1       1.205   3.467  20.102  0.00  0.00    +0.000 A 
ATOM     14  C   UNL     1       1.568   2.315  19.406  0.00  0.00    +0.000 A 
ATOM     15  C   UNL     1       2.882   2.168  18.966  0.00  0.00    +0.000 A 
ATOM     16  C   UNL     1       3.760   3.250  19.026  0.00  0.00    +0.000 A 
ATOM     17  C   UNL     1       3.282   4.486  19.437  0.00  0.00    +0.000 A 
ATOM     18  C   UNL     1       3.190   5.834  18.671  0.00  0.00    +0.000 C 
ATOM     19  H   UNL     1       2.037   8.266  17.578  0.00  0.00    +0.000 HD
BRANCH  16  20
ATOM     20  O   UNL     1       5.079   2.923  19.237  0.00  0.00    +0.000 OA
ATOM     21  H   UNL     1       5.540   3.759  19.411  0.00  0.00    +0.000 HD
ENDBRANCH  16  20
ENDBRANCH   5   7
BRANCH   1  23
ATOM     22  C   UNL     1      -1.997  12.984  20.080  0.00  0.00    +0.000 C 
ATOM     23  C   UNL     1      -1.745  12.211  18.787  0.00  0.00    +0.000 C 
BRANCH  23  24
ATOM     24  S   UNL     1      -2.763  10.688  18.636  0.00  0.00    +0.000 S 
BRANCH  24  25
ATOM     25  C   UNL     1      -3.047  10.487  16.940  0.00  0.00    +0.000 A 
ATOM     26  N   UNL     1      -2.335   9.809  16.069  0.00  0.00    +0.000 NA
ATOM     27  N   UNL     1      -2.874  10.039  14.825  0.00  0.00    +0.000 NA
ATOM     28  C   UNL     1      -3.909  10.838  14.969  0.00  0.00    +0.000 A 
ATOM     29  N   UNL     1      -4.072  11.116  16.299  0.00  0.00    +0.000 N 
ATOM     30  C   UNL     1      -5.121  11.913  16.862  0.00  0.00    +0.000 C 
ENDBRANCH  24  25
ENDBRANCH  23  24
ENDBRANCH   1  23
TORSDOF 5
ENDMDL
MODEL 6
REMARK VINA RESULT:      -8.0      1.618      2.292
REMARK  Name = 
REMARK  7 active torsions:
REMARK  status: ('A' for Active; 'I' for Inactive)
REMARK    1  A    between atoms: C_1  and  C_2
REMARK    2  A    between atoms: C_2  and  S_3
REMARK    3  A    between atoms: C_2  and  C_10
REMARK    4  A    between atoms: S_3  and  C_4
REMARK    5  A    between atoms: N_8  and  C_9
REMARK    6  A    between atoms: C_14  and  N_15
REMARK    7  A    between atoms: C_24  and  O_25
REMARK                            x       y       z     vdW  Elec       q    Type
REMARK                         _______ _______ _______ _____ _____    ______ ____
ROOT
ATOM      1  C   UNL     1       5.676   6.215  17.560  0.00  0.00    +0.000 A 
ATOM      2  C   UNL     1       6.523   5.258  18.147  0.00  0.00    +0.000 A 
ATOM      3  C   UNL     1       7.783   5.628  18.612  0.00  0.00    +0.000 A 
ATOM      4  C   UNL     1       8.204   6.951  18.489  0.00  0.00    +0.000 A 
ATOM      5  C   UNL     1       7.422   7.929  17.865  0.00  0.00    +0.000 A 
ATOM      6  C   UNL     1       6.147   7.557  17.429  0.00  0.00    +0.000 A 
ENDROOT
BRANCH   5   7
ATOM      7  N   UNL     1       7.914   9.286  17.674  0.00  0.00    +0.000 N 
ATOM      8  C   UNL     1       8.732   9.902  18.590  0.00  0.00    +0.000 C 
ATOM      9  O   UNL     1       9.142   9.329  19.597  0.00  0.00    +0.000 OA
ATOM     10  N   UNL     1       9.157  11.178  18.365  0.00  0.00    +0.000 N 
ATOM     11  C   UNL     1      10.244  11.592  19.248  0.00  0.00    +0.000 C 
ATOM     12  C   UNL     1      10.796  12.768  18.523  0.00  0.00    +0.000 A 
ATOM     13  C   UNL     1      12.086  12.979  18.076  0.00  0.00    +0.000 A 
ATOM     14  C   UNL     1      12.331  14.054  17.224  0.00  0.00    +0.000 A 
ATOM     15  C   UNL     1      11.313  14.971  16.968  0.00  0.00    +0.000 A 
ATOM     16  C   UNL     1      10.011  14.693  17.380  0.00  0.00    +0.000 A 
ATOM     17  C   UNL     1       9.730  13.462  17.955  0.00  0.00    +0.000 A 
ATOM     18  C   UNL     1       8.801  12.315  17.474  0.00  0.00    +0.000 C 
ATOM     19  H   UNL     1       7.944   9.640  16.735  0.00  0.00    +0.000 HD
BRANCH  16  20
ATOM     20  O   UNL     1       9.256  15.793  17.718  0.00  0.00    +0.000 OA
ATOM     21  H   UNL     1       8.522  15.821  17.085  0.00  0.00    +0.000 HD
ENDBRANCH  16  20
ENDBRANCH   5   7
BRANCH   1  23
ATOM     22  C   UNL     1       3.203   6.203  18.121  0.00  0.00    +0.000 C 
ATOM     23  C   UNL     1       4.278   5.756  17.132  0.00  0.00    +0.000 C 
BRANCH  23  24
ATOM     24  S   UNL     1       4.341   3.935  16.894  0.00  0.00    +0.000 S 
BRANCH  24  25
ATOM     25  C   UNL     1       2.973   3.308  17.751  0.00  0.00    +0.000 A 
ATOM     26  N   UNL     1       1.702   3.390  17.429  0.00  0.00    +0.000 NA
ATOM     27  N   UNL     1       0.976   2.858  18.470  0.00  0.00    +0.000 NA
ATOM     28  C   UNL     1       1.822   2.452  19.392  0.00  0.00    +0.000 A 
ATOM     29  N   UNL     1       3.098   2.688  18.958  0.00  0.00    +0.000 N 
ATOM     30  C   UNL     1       4.297   2.338  19.662  0.00  0.00    +0.000 C 
ENDBRANCH  24  25
ENDBRANCH  23  24
ENDBRANCH   1  23
TORSDOF 5
ENDMDL
MODEL 7
REMARK VINA RESULT:      -8.0      1.047      1.108
REMARK  Name = 
REMARK  7 active torsions:
REMARK  status: ('A' for Active; 'I' for Inactive)
REMARK    1  A    between atoms: C_1  and  C_2
REMARK    2  A    between atoms: C_2  and  S_3
REMARK    3  A    between atoms: C_2  and  C_10
REMARK    4  A    between atoms: S_3  and  C_4
REMARK    5  A    between atoms: N_8  and  C_9
REMARK    6  A    between atoms: C_14  and  N_15
REMARK    7  A    between atoms: C_24  and  O_25
REMARK                            x       y       z     vdW  Elec       q    Type
REMARK                         _______ _______ _______ _____ _____    ______ ____
ROOT
ATOM      1  C   UNL     1       5.073   5.676  17.433  0.00  0.00    +0.000 A 
ATOM      2  C   UNL     1       5.997   4.618  17.511  0.00  0.00    +0.000 A 
ATOM      3  C   UNL     1       7.360   4.883  17.621  0.00  0.00    +0.000 A 
ATOM      4  C   UNL     1       7.807   6.203  17.650  0.00  0.00    +0.000 A 
ATOM      5  C   UNL     1       6.936   7.290  17.521  0.00  0.00    +0.000 A 
ATOM      6  C   UNL     1       5.567   7.016  17.442  0.00  0.00    +0.000 A 
ENDROOT
BRANCH   5   7
ATOM      7  N   UNL     1       7.432   8.658  17.472  0.00  0.00    +0.000 N 
ATOM      8  C   UNL     1       8.402   9.114  18.330  0.00  0.00    +0.000 C 
ATOM      9  O   UNL     1       8.949   8.384  19.154  0.00  0.00    +0.000 OA
ATOM     10  N   UNL     1       8.825  10.408  18.244  0.00  0.00    +0.000 N 
ATOM     11  C   UNL     1      10.049  10.670  18.995  0.00  0.00    +0.000 C 
ATOM     12  C   UNL     1      10.514  11.945  18.387  0.00  0.00    +0.000 A 
ATOM     13  C   UNL     1      11.722  12.221  17.777  0.00  0.00    +0.000 A 
ATOM     14  C   UNL     1      11.862  13.418  17.078  0.00  0.00    +0.000 A 
ATOM     15  C   UNL     1      10.844  14.369  17.139  0.00  0.00    +0.000 A 
ATOM     16  C   UNL     1       9.615  14.033  17.706  0.00  0.00    +0.000 A 
ATOM     17  C   UNL     1       9.393  12.727  18.116  0.00  0.00    +0.000 A 
ATOM     18  C   UNL     1       8.365  11.676  17.615  0.00  0.00    +0.000 C 
ATOM     19  H   UNL     1       7.323   9.159  16.608  0.00  0.00    +0.000 HD
BRANCH  16  20
ATOM     20  O   UNL     1       8.957  15.067  18.332  0.00  0.00    +0.000 OA
ATOM     21  H   UNL     1       9.270  15.069  19.250  0.00  0.00    +0.000 HD
ENDBRANCH  16  20
ENDBRANCH   5   7
BRANCH   1  23
ATOM     22  C   UNL     1       2.737   6.267  18.221  0.00  0.00    +0.000 C 
ATOM     23  C   UNL     1       3.585   5.315  17.381  0.00  0.00    +0.000 C 
BRANCH  23  24
ATOM     24  S   UNL     1       3.423   3.555  17.883  0.00  0.00    +0.000 S 
BRANCH  24  25
ATOM     25  C   UNL     1       2.669   3.585  19.441  0.00  0.00    +0.000 A 
ATOM     26  N   UNL     1       3.113   4.129  20.551  0.00  0.00    +0.000 NA
ATOM     27  N   UNL     1       2.237   3.792  21.557  0.00  0.00    +0.000 NA
ATOM     28  C   UNL     1       1.274   3.064  21.033  0.00  0.00    +0.000 A 
ATOM     29  N   UNL     1       1.494   2.940  19.688  0.00  0.00    +0.000 N 
ATOM     30  C   UNL     1       0.637   2.260  18.762  0.00  0.00    +0.000 C 
ENDBRANCH  24  25
ENDBRANCH  23  24
ENDBRANCH   1  23
TORSDOF 5
ENDMDL
MODEL 8
REMARK VINA RESULT:      -8.0      1.726      2.070
REMARK  Name = 
REMARK  7 active torsions:
REMARK  status: ('A' for Active; 'I' for Inactive)
REMARK    1  A    between atoms: C_1  and  C_2
REMARK    2  A    between atoms: C_2  and  S_3
REMARK    3  A    between atoms: C_2  and  C_10
REMARK    4  A    between atoms: S_3  and  C_4
REMARK    5  A    between atoms: N_8  and  C_9
REMARK    6  A    between atoms: C_14  and  N_15
REMARK    7  A    between atoms: C_24  and  O_25
REMARK                            x       y       z     vdW  Elec       q    Type
REMARK                         _______ _______ _______ _____ _____    ______ ____
ROOT
ATOM      1  C   UNL     1       5.078   4.443  17.341  0.00  0.00    +0.000 A 
ATOM      2  C   UNL     1       5.636   3.661  16.313  0.00  0.00    +0.000 A 
ATOM      3  C   UNL     1       6.656   4.177  15.515  0.00  0.00    +0.000 A 
ATOM      4  C   UNL     1       7.118   5.473  15.737  0.00  0.00    +0.000 A 
ATOM      5  C   UNL     1       6.560   6.309  16.710  0.00  0.00    +0.000 A 
ATOM      6  C   UNL     1       5.559   5.774  17.526  0.00  0.00    +0.000 A 
ENDROOT
BRANCH   5   7
ATOM      7  N   UNL     1       7.003   7.687  16.871  0.00  0.00    +0.000 N 
ATOM      8  C   UNL     1       7.828   8.074  17.898  0.00  0.00    +0.000 C 
ATOM      9  O   UNL     1       8.287   7.274  18.712  0.00  0.00    +0.000 OA
ATOM     10  N   UNL     1       8.207   9.380  18.006  0.00  0.00    +0.000 N 
ATOM     11  C   UNL     1       9.306   9.591  18.943  0.00  0.00    +0.000 C 
ATOM     12  C   UNL     1       9.798  10.935  18.540  0.00  0.00    +0.000 A 
ATOM     13  C   UNL     1      11.066  11.304  18.137  0.00  0.00    +0.000 A 
ATOM     14  C   UNL     1      11.252  12.573  17.590  0.00  0.00    +0.000 A 
ATOM     15  C   UNL     1      10.198  13.485  17.605  0.00  0.00    +0.000 A 
ATOM     16  C   UNL     1       8.918  13.060  17.957  0.00  0.00    +0.000 A 
ATOM     17  C   UNL     1       8.694  11.712  18.196  0.00  0.00    +0.000 A 
ATOM     18  C   UNL     1       7.787  10.695  17.451  0.00  0.00    +0.000 C 
ATOM     19  H   UNL     1       6.994   8.274  16.056  0.00  0.00    +0.000 HD
BRANCH  16  20
ATOM     20  O   UNL     1       8.140  14.004  18.587  0.00  0.00    +0.000 OA
ATOM     21  H   UNL     1       7.770  13.569  19.371  0.00  0.00    +0.000 HD
ENDBRANCH  16  20
ENDBRANCH   5   7
BRANCH   1  23
ATOM     22  C   UNL     1       4.028   2.268  18.115  0.00  0.00    +0.000 C 
ATOM     23  C   UNL     1       4.008   3.791  18.223  0.00  0.00    +0.000 C 
BRANCH  23  24
ATOM     24  S   UNL     1       2.389   4.534  17.773  0.00  0.00    +0.000 S 
BRANCH  24  25
ATOM     25  C   UNL     1       2.133   5.813  18.911  0.00  0.00    +0.000 A 
ATOM     26  N   UNL     1       2.334   7.101  18.749  0.00  0.00    +0.000 NA
ATOM     27  N   UNL     1       2.113   7.710  19.962  0.00  0.00    +0.000 NA
ATOM     28  C   UNL     1       1.769   6.782  20.830  0.00  0.00    +0.000 A 
ATOM     29  N   UNL     1       1.736   5.572  20.193  0.00  0.00    +0.000 N 
ATOM     30  C   UNL     1       1.357   4.325  20.789  0.00  0.00    +0.000 C 
ENDBRANCH  24  25
ENDBRANCH  23  24
ENDBRANCH   1  23
TORSDOF 5
ENDMDL
MODEL 9
REMARK VINA RESULT:      -8.0      7.038      9.342
REMARK  Name = 
REMARK  7 active torsions:
REMARK  status: ('A' for Active; 'I' for Inactive)
REMARK    1  A    between atoms: C_1  and  C_2
REMARK    2  A    between atoms: C_2  and  S_3
REMARK    3  A    between atoms: C_2  and  C_10
REMARK    4  A    between atoms: S_3  and  C_4
REMARK    5  A    between atoms: N_8  and  C_9
REMARK    6  A    between atoms: C_14  and  N_15
REMARK    7  A    between atoms: C_24  and  O_25
REMARK                            x       y       z     vdW  Elec       q    Type
REMARK                         _______ _______ _______ _____ _____    ______ ____
ROOT
ATOM      1  C   UNL     1      -1.749  10.342  18.221  0.00  0.00    +0.000 A 
ATOM      2  C   UNL     1      -1.542  11.256  19.271  0.00  0.00    +0.000 A 
ATOM      3  C   UNL     1      -0.260  11.464  19.777  0.00  0.00    +0.000 A 
ATOM      4  C   UNL     1       0.816  10.760  19.241  0.00  0.00    +0.000 A 
ATOM      5  C   UNL     1       0.657   9.801  18.234  0.00  0.00    +0.000 A 
ATOM      6  C   UNL     1      -0.628   9.621  17.711  0.00  0.00    +0.000 A 
ENDROOT
BRANCH   5   7
ATOM      7  N   UNL     1       1.783   9.019  17.745  0.00  0.00    +0.000 N 
ATOM      8  C   UNL     1       2.333   7.995  18.476  0.00  0.00    +0.000 C 
ATOM      9  O   UNL     1       1.875   7.640  19.561  0.00  0.00    +0.000 OA
ATOM     10  N   UNL     1       3.393   7.299  17.973  0.00  0.00    +0.000 N 
ATOM     11  C   UNL     1       3.677   6.066  18.702  0.00  0.00    +0.000 C 
ATOM     12  C   UNL     1       4.515   5.320  17.726  0.00  0.00    +0.000 A 
ATOM     13  C   UNL     1       4.304   4.066  17.187  0.00  0.00    +0.000 A 
ATOM     14  C   UNL     1       5.100   3.652  16.121  0.00  0.00    +0.000 A 
ATOM     15  C   UNL     1       6.180   4.441  15.728  0.00  0.00    +0.000 A 
ATOM     16  C   UNL     1       6.325   5.727  16.245  0.00  0.00    +0.000 A 
ATOM     17  C   UNL     1       5.337   6.238  17.075  0.00  0.00    +0.000 A 
ATOM     18  C   UNL     1       4.394   7.456  16.884  0.00  0.00    +0.000 C 
ATOM     19  H   UNL     1       1.933   8.995  16.752  0.00  0.00    +0.000 HD
BRANCH  16  20
ATOM     20  O   UNL     1       7.624   6.160  16.383  0.00  0.00    +0.000 OA
ATOM     21  H   UNL     1       8.000   5.655  17.120  0.00  0.00    +0.000 HD
ENDBRANCH  16  20
ENDBRANCH   5   7
BRANCH   1  23
ATOM     22  C   UNL     1      -3.176   9.804  16.196  0.00  0.00    +0.000 C 
ATOM     23  C   UNL     1      -3.172  10.212  17.668  0.00  0.00    +0.000 C 
BRANCH  23  24
ATOM     24  S   UNL     1      -4.041  11.798  17.990  0.00  0.00    +0.000 S 
BRANCH  24  25
ATOM     25  C   UNL     1      -5.409  11.387  18.968  0.00  0.00    +0.000 A 
ATOM     26  N   UNL     1      -6.371  10.532  18.706  0.00  0.00    +0.000 NA
ATOM     27  N   UNL     1      -7.301  10.632  19.714  0.00  0.00    +0.000 NA
ATOM     28  C   UNL     1      -6.877  11.535  20.573  0.00  0.00    +0.000 A 
ATOM     29  N   UNL     1      -5.665  12.010  20.153  0.00  0.00    +0.000 N 
ATOM     30  C   UNL     1      -4.859  12.971  20.847  0.00  0.00    +0.000 C 
ENDBRANCH  24  25
ENDBRANCH  23  24
ENDBRANCH   1  23
TORSDOF 5
ENDMDL
