MODEL 1
REMARK VINA RESULT:      -8.5      0.000      0.000
REMARK  Name = 
REMARK  8 active torsions:
REMARK  status: ('A' for Active; 'I' for Inactive)
REMARK    1  A    between atoms: C_1  and  C_2
REMARK    2  A    between atoms: C_4  and  C_5
REMARK    3  A    between atoms: C_10  and  C_11
REMARK    4  A    between atoms: C_11  and  C_12
REMARK    5  A    between atoms: C_11  and  S_13
REMARK    6  A    between atoms: S_13  and  C_14
REMARK    7  A    between atoms: N_18  and  C_19
REMARK    8  A    between atoms: C_24  and  C_25
REMARK                            x       y       z     vdW  Elec       q    Type
REMARK                         _______ _______ _______ _____ _____    ______ ____
ROOT
ATOM      1  C   UNL     1       2.289   6.724  19.729  0.00  0.00    +0.000 C 
ATOM      2  O   UNL     1       1.996   6.372  20.871  0.00  0.00    +0.000 OA
ATOM      3  N   UNL     1       1.979   7.936  19.127  0.00  0.00    +0.000 N 
ATOM      4  C   UNL     1       1.208   8.929  19.765  0.00  0.00    +0.000 A 
ATOM      5  C   UNL     1       0.761  10.035  19.040  0.00  0.00    +0.000 A 
ATOM      6  C   UNL     1      -0.100  10.968  19.656  0.00  0.00    +0.000 A 
ATOM      7  C   UNL     1      -0.415  10.777  21.008  0.00  0.00    +0.000 A 
ATOM      8  C   UNL     1       0.094   9.674  21.657  0.00  0.00    +0.000 A 
ATOM      9  N   UNL     1       0.883   8.767  21.060  0.00  0.00    +0.000 NA
ATOM     10  H   UNL     1       2.261   8.061  18.164  0.00  0.00    +0.000 HD
ENDROOT
BRANCH   1  14
ATOM     11  C   UNL     1       5.260   5.828  15.827  0.00  0.00    +0.000 C 
ATOM     12  C   UNL     1       4.468   5.332  17.000  0.00  0.00    +0.000 A 
ATOM     13  C   UNL     1       3.771   6.217  17.814  0.00  0.00    +0.000 A 
ATOM     14  C   UNL     1       3.035   5.729  18.895  0.00  0.00    +0.000 A 
ATOM     15  N   UNL     1       2.960   4.410  19.222  0.00  0.00    +0.000 NA
ATOM     16  C   UNL     1       3.643   3.542  18.407  0.00  0.00    +0.000 A 
ATOM     17  C   UNL     1       4.397   3.973  17.302  0.00  0.00    +0.000 A 
BRANCH  16  18
ATOM     18  C   UNL     1       3.599   2.039  18.674  0.00  0.00    +0.000 C 
ATOM     19  F   UNL     1       4.433   1.621  19.666  0.00  0.00    +0.000 F 
ATOM     20  F   UNL     1       2.351   1.610  19.028  0.00  0.00    +0.000 F 
ATOM     21  F   UNL     1       3.934   1.306  17.571  0.00  0.00    +0.000 F 
ENDBRANCH  16  18
ENDBRANCH   1  14
BRANCH   6  22
ATOM     22  C   UNL     1      -0.715  12.134  18.877  0.00  0.00    +0.000 C 
ATOM     23  C   UNL     1      -0.268  13.470  19.484  0.00  0.00    +0.000 C 
BRANCH  22  24
ATOM     24  S   UNL     1      -2.558  11.943  18.865  0.00  0.00    +0.000 S 
BRANCH  24  25
ATOM     25  C   UNL     1      -2.875  11.186  17.347  0.00  0.00    +0.000 A 
ATOM     26  N   UNL     1      -2.059  10.422  16.657  0.00  0.00    +0.000 NA
ATOM     27  N   UNL     1      -2.681  10.102  15.472  0.00  0.00    +0.000 NA
ATOM     28  C   UNL     1      -3.872  10.657  15.487  0.00  0.00    +0.000 A 
ATOM     29  N   UNL     1      -4.050  11.326  16.662  0.00  0.00    +0.000 N 
ATOM     30  C   UNL     1      -5.255  12.004  17.056  0.00  0.00    +0.000 C 
ENDBRANCH  24  25
ENDBRANCH  22  24
ENDBRANCH   6  22
TORSDOF 5
ENDMDL
MODEL 2
REMARK VINA RESULT:      -8.4      2.101      2.716
REMARK  Name = 
REMARK  8 active torsions:
REMARK  status: ('A' for Active; 'I' for Inactive)
REMARK    1  A    between atoms: C_1  and  C_2
REMARK    2  A    between atoms: C_4  and  C_5
REMARK    3  A    between atoms: C_10  and  C_11
REMARK    4  A    between atoms: C_11  and  C_12
REMARK    5  A    between atoms: C_11  and  S_13
REMARK    6  A    between atoms: S_13  and  C_14
REMARK    7  A    between atoms: N_18  and  C_19
REMARK    8  A    between atoms: C_24  and  C_25
REMARK                            x       y       z     vdW  Elec       q    Type
REMARK                         _______ _______ _______ _____ _____    ______ ____
ROOT
ATOM      1  C   UNL     1       2.270   6.461  19.691  0.00  0.00    +0.000 C 
ATOM      2  O   UNL     1       1.864   5.894  20.705  0.00  0.00    +0.000 OA
ATOM      3  N   UNL     1       2.084   7.794  19.353  0.00  0.00    +0.000 N 
ATOM      4  C   UNL     1       1.323   8.682  20.141  0.00  0.00    +0.000 A 
ATOM      5  C   UNL     1       1.004   9.948  19.650  0.00  0.00    +0.000 A 
ATOM      6  C   UNL     1       0.152  10.789  20.397  0.00  0.00    +0.000 A 
ATOM      7  C   UNL     1      -0.284  10.336  21.649  0.00  0.00    +0.000 A 
ATOM      8  C   UNL     1       0.103   9.083  22.071  0.00  0.00    +0.000 A 
ATOM      9  N   UNL     1       0.883   8.269  21.343  0.00  0.00    +0.000 NA
ATOM     10  H   UNL     1       2.451   8.102  18.462  0.00  0.00    +0.000 HD
ENDROOT
BRANCH   1  14
ATOM     11  C   UNL     1       3.394   1.912  17.989  0.00  0.00    +0.000 C 
ATOM     12  C   UNL     1       3.546   3.402  17.917  0.00  0.00    +0.000 A 
ATOM     13  C   UNL     1       2.858   4.231  18.794  0.00  0.00    +0.000 A 
ATOM     14  C   UNL     1       3.022   5.615  18.711  0.00  0.00    +0.000 A 
ATOM     15  N   UNL     1       3.825   6.225  17.797  0.00  0.00    +0.000 NA
ATOM     16  C   UNL     1       4.509   5.398  16.941  0.00  0.00    +0.000 A 
ATOM     17  C   UNL     1       4.389   3.998  16.980  0.00  0.00    +0.000 A 
BRANCH  16  18
ATOM     18  C   UNL     1       5.458   5.984  15.897  0.00  0.00    +0.000 C 
ATOM     19  F   UNL     1       5.926   5.078  14.995  0.00  0.00    +0.000 F 
ATOM     20  F   UNL     1       4.874   6.977  15.163  0.00  0.00    +0.000 F 
ATOM     21  F   UNL     1       6.563   6.554  16.462  0.00  0.00    +0.000 F 
ENDBRANCH  16  18
ENDBRANCH   1  14
BRANCH   6  22
ATOM     22  C   UNL     1      -0.327  12.139  19.855  0.00  0.00    +0.000 C 
ATOM     23  C   UNL     1       0.340  13.285  20.626  0.00  0.00    +0.000 C 
BRANCH  22  24
ATOM     24  S   UNL     1      -2.176  12.203  19.950  0.00  0.00    +0.000 S 
BRANCH  24  25
ATOM     25  C   UNL     1      -2.679  11.679  18.386  0.00  0.00    +0.000 A 
ATOM     26  N   UNL     1      -1.910  11.283  17.398  0.00  0.00    +0.000 NA
ATOM     27  N   UNL     1      -2.714  11.036  16.309  0.00  0.00    +0.000 NA
ATOM     28  C   UNL     1      -3.956  11.261  16.675  0.00  0.00    +0.000 A 
ATOM     29  N   UNL     1      -3.985  11.639  17.984  0.00  0.00    +0.000 N 
ATOM     30  C   UNL     1      -5.177  11.909  18.744  0.00  0.00    +0.000 C 
ENDBRANCH  24  25
ENDBRANCH  22  24
ENDBRANCH   6  22
TORSDOF 5
ENDMDL
MODEL 3
REMARK VINA RESULT:      -8.2      3.235      4.598
REMARK  Name = 
REMARK  8 active torsions:
REMARK  status: ('A' for Active; 'I' for Inactive)
REMARK    1  A    between atoms: C_1  and  C_2
REMARK    2  A    between atoms: C_4  and  C_5
REMARK    3  A    between atoms: C_10  and  C_11
REMARK    4  A    between atoms: C_11  and  C_12
REMARK    5  A    between atoms: C_11  and  S_13
REMARK    6  A    between atoms: S_13  and  C_14
REMARK    7  A    between atoms: N_18  and  C_19
REMARK    8  A    between atoms: C_24  and  C_25
REMARK                            x       y       z     vdW  Elec       q    Type
REMARK                         _______ _______ _______ _____ _____    ______ ____
ROOT
ATOM      1  C   UNL     1       2.410   6.275  19.635  0.00  0.00    +0.000 C 
ATOM      2  O   UNL     1       2.061   5.750  20.691  0.00  0.00    +0.000 OA
ATOM      3  N   UNL     1       2.195   7.590  19.250  0.00  0.00    +0.000 N 
ATOM      4  C   UNL     1       1.466   8.506  20.035  0.00  0.00    +0.000 A 
ATOM      5  C   UNL     1       1.110   9.748  19.506  0.00  0.00    +0.000 A 
ATOM      6  C   UNL     1       0.289  10.614  20.258  0.00  0.00    +0.000 A 
ATOM      7  C   UNL     1      -0.081  10.213  21.549  0.00  0.00    +0.000 A 
ATOM      8  C   UNL     1       0.339   8.983  22.004  0.00  0.00    +0.000 A 
ATOM      9  N   UNL     1       1.089   8.143  21.275  0.00  0.00    +0.000 NA
ATOM     10  H   UNL     1       2.515   7.862  18.329  0.00  0.00    +0.000 HD
ENDROOT
BRANCH   1  14
ATOM     11  C   UNL     1       3.550   1.664  18.119  0.00  0.00    +0.000 C 
ATOM     12  C   UNL     1       3.655   3.151  17.954  0.00  0.00    +0.000 A 
ATOM     13  C   UNL     1       3.002   4.012  18.827  0.00  0.00    +0.000 A 
ATOM     14  C   UNL     1       3.121   5.392  18.656  0.00  0.00    +0.000 A 
ATOM     15  N   UNL     1       3.846   5.969  17.658  0.00  0.00    +0.000 NA
ATOM     16  C   UNL     1       4.496   5.110  16.807  0.00  0.00    +0.000 A 
ATOM     17  C   UNL     1       4.418   3.713  16.932  0.00  0.00    +0.000 A 
BRANCH  16  18
ATOM     18  C   UNL     1       5.358   5.659  15.671  0.00  0.00    +0.000 C 
ATOM     19  F   UNL     1       4.979   6.888  15.224  0.00  0.00    +0.000 F 
ATOM     20  F   UNL     1       6.672   5.777  16.026  0.00  0.00    +0.000 F 
ATOM     21  F   UNL     1       5.352   4.844  14.575  0.00  0.00    +0.000 F 
ENDBRANCH  16  18
ENDBRANCH   1  14
BRANCH   6  22
ATOM     22  C   UNL     1      -0.229  11.935  19.683  0.00  0.00    +0.000 C 
ATOM     23  C   UNL     1      -1.363  11.669  18.684  0.00  0.00    +0.000 C 
BRANCH  22  24
ATOM     24  S   UNL     1       1.186  12.855  18.919  0.00  0.00    +0.000 S 
BRANCH  24  25
ATOM     25  C   UNL     1       1.803  13.801  20.224  0.00  0.00    +0.000 A 
ATOM     26  N   UNL     1       2.505  13.374  21.249  0.00  0.00    +0.000 NA
ATOM     27  N   UNL     1       2.715  14.442  22.090  0.00  0.00    +0.000 NA
ATOM     28  C   UNL     1       2.158  15.497  21.539  0.00  0.00    +0.000 A 
ATOM     29  N   UNL     1       1.597  15.147  20.347  0.00  0.00    +0.000 N 
ATOM     30  C   UNL     1       0.951  16.053  19.436  0.00  0.00    +0.000 C 
ENDBRANCH  24  25
ENDBRANCH  22  24
ENDBRANCH   6  22
TORSDOF 5
ENDMDL
MODEL 4
REMARK VINA RESULT:      -8.1      3.546      4.951
REMARK  Name = 
REMARK  8 active torsions:
REMARK  status: ('A' for Active; 'I' for Inactive)
REMARK    1  A    between atoms: C_1  and  C_2
REMARK    2  A    between atoms: C_4  and  C_5
REMARK    3  A    between atoms: C_10  and  C_11
REMARK    4  A    between atoms: C_11  and  C_12
REMARK    5  A    between atoms: C_11  and  S_13
REMARK    6  A    between atoms: S_13  and  C_14
REMARK    7  A    between atoms: N_18  and  C_19
REMARK    8  A    between atoms: C_24  and  C_25
REMARK                            x       y       z     vdW  Elec       q    Type
REMARK                         _______ _______ _______ _____ _____    ______ ____
ROOT
ATOM      1  C   UNL     1       2.741   7.763  17.992  0.00  0.00    +0.000 C 
ATOM      2  O   UNL     1       2.784   8.543  17.042  0.00  0.00    +0.000 OA
ATOM      3  N   UNL     1       2.050   7.940  19.183  0.00  0.00    +0.000 N 
ATOM      4  C   UNL     1       1.330   9.116  19.479  0.00  0.00    +0.000 A 
ATOM      5  C   UNL     1       0.828   9.318  20.766  0.00  0.00    +0.000 A 
ATOM      6  C   UNL     1       0.205  10.543  21.083  0.00  0.00    +0.000 A 
ATOM      7  C   UNL     1       0.052  11.487  20.059  0.00  0.00    +0.000 A 
ATOM      8  C   UNL     1       0.551  11.194  18.809  0.00  0.00    +0.000 A 
ATOM      9  N   UNL     1       1.177  10.044  18.517  0.00  0.00    +0.000 NA
ATOM     10  H   UNL     1       2.144   7.219  19.885  0.00  0.00    +0.000 HD
ENDROOT
BRANCH   1  14
ATOM     11  C   UNL     1       2.799   2.790  17.643  0.00  0.00    +0.000 C 
ATOM     12  C   UNL     1       3.529   4.099  17.694  0.00  0.00    +0.000 A 
ATOM     13  C   UNL     1       2.835   5.297  17.804  0.00  0.00    +0.000 A 
ATOM     14  C   UNL     1       3.538   6.502  17.856  0.00  0.00    +0.000 A 
ATOM     15  N   UNL     1       4.895   6.586  17.796  0.00  0.00    +0.000 NA
ATOM     16  C   UNL     1       5.573   5.397  17.698  0.00  0.00    +0.000 A 
ATOM     17  C   UNL     1       4.921   4.153  17.646  0.00  0.00    +0.000 A 
BRANCH  16  18
ATOM     18  C   UNL     1       7.100   5.382  17.653  0.00  0.00    +0.000 C 
ATOM     19  F   UNL     1       7.631   4.294  17.031  0.00  0.00    +0.000 F 
ATOM     20  F   UNL     1       7.611   6.471  17.005  0.00  0.00    +0.000 F 
ATOM     21  F   UNL     1       7.657   5.409  18.899  0.00  0.00    +0.000 F 
ENDBRANCH  16  18
ENDBRANCH   1  14
BRANCH   6  22
ATOM     22  C   UNL     1      -0.258  10.867  22.506  0.00  0.00    +0.000 C 
ATOM     23  C   UNL     1      -0.357   9.581  23.336  0.00  0.00    +0.000 C 
BRANCH  22  24
ATOM     24  S   UNL     1      -1.868  11.782  22.422  0.00  0.00    +0.000 S 
BRANCH  24  25
ATOM     25  C   UNL     1      -1.530  13.267  23.231  0.00  0.00    +0.000 A 
ATOM     26  N   UNL     1      -0.361  13.853  23.357  0.00  0.00    +0.000 NA
ATOM     27  N   UNL     1      -0.531  14.969  24.143  0.00  0.00    +0.000 NA
ATOM     28  C   UNL     1      -1.806  15.047  24.451  0.00  0.00    +0.000 A 
ATOM     29  N   UNL     1      -2.480  14.012  23.873  0.00  0.00    +0.000 N 
ATOM     30  C   UNL     1      -3.902  13.807  23.940  0.00  0.00    +0.000 C 
ENDBRANCH  24  25
ENDBRANCH  22  24
ENDBRANCH   6  22
TORSDOF 5
ENDMDL
MODEL 5
REMARK VINA RESULT:      -8.1      0.695      1.043
REMARK  Name = 
REMARK  8 active torsions:
REMARK  status: ('A' for Active; 'I' for Inactive)
REMARK    1  A    between atoms: C_1  and  C_2
REMARK    2  A    between atoms: C_4  and  C_5
REMARK    3  A    between atoms: C_10  and  C_11
REMARK    4  A    between atoms: C_11  and  C_12
REMARK    5  A    between atoms: C_11  and  S_13
REMARK    6  A    between atoms: S_13  and  C_14
REMARK    7  A    between atoms: N_18  and  C_19
REMARK    8  A    between atoms: C_24  and  C_25
REMARK                            x       y       z     vdW  Elec       q    Type
REMARK                         _______ _______ _______ _____ _____    ______ ____
ROOT
ATOM      1  C   UNL     1       2.120   6.777  19.865  0.00  0.00    +0.000 C 
ATOM      2  O   UNL     1       1.836   6.330  20.975  0.00  0.00    +0.000 OA
ATOM      3  N   UNL     1       1.853   8.053  19.389  0.00  0.00    +0.000 N 
ATOM      4  C   UNL     1       1.140   9.013  20.137  0.00  0.00    +0.000 A 
ATOM      5  C   UNL     1       0.728  10.201  19.531  0.00  0.00    +0.000 A 
ATOM      6  C   UNL     1      -0.077  11.106  20.254  0.00  0.00    +0.000 A 
ATOM      7  C   UNL     1      -0.372  10.801  21.590  0.00  0.00    +0.000 A 
ATOM      8  C   UNL     1       0.100   9.620  22.118  0.00  0.00    +0.000 A 
ATOM      9  N   UNL     1       0.835   8.741  21.419  0.00  0.00    +0.000 NA
ATOM     10  H   UNL     1       2.119   8.257  18.435  0.00  0.00    +0.000 HD
ENDROOT
BRANCH   1  14
ATOM     11  C   UNL     1       5.242   6.121  16.034  0.00  0.00    +0.000 C 
ATOM     12  C   UNL     1       4.314   5.555  17.067  0.00  0.00    +0.000 A 
ATOM     13  C   UNL     1       3.668   6.386  17.975  0.00  0.00    +0.000 A 
ATOM     14  C   UNL     1       2.803   5.835  18.922  0.00  0.00    +0.000 A 
ATOM     15  N   UNL     1       2.550   4.502  19.027  0.00  0.00    +0.000 NA
ATOM     16  C   UNL     1       3.185   3.690  18.120  0.00  0.00    +0.000 A 
ATOM     17  C   UNL     1       4.062   4.187  17.141  0.00  0.00    +0.000 A 
BRANCH  16  18
ATOM     18  C   UNL     1       2.944   2.182  18.137  0.00  0.00    +0.000 C 
ATOM     19  F   UNL     1       2.196   1.723  17.097  0.00  0.00    +0.000 F 
ATOM     20  F   UNL     1       4.110   1.469  18.103  0.00  0.00    +0.000 F 
ATOM     21  F   UNL     1       2.302   1.771  19.270  0.00  0.00    +0.000 F 
ENDBRANCH  16  18
ENDBRANCH   1  14
BRANCH   6  22
ATOM     22  C   UNL     1      -0.656  12.366  19.605  0.00  0.00    +0.000 C 
ATOM     23  C   UNL     1      -0.165  13.616  20.346  0.00  0.00    +0.000 C 
BRANCH  22  24
ATOM     24  S   UNL     1      -2.504  12.236  19.581  0.00  0.00    +0.000 S 
BRANCH  24  25
ATOM     25  C   UNL     1      -2.845  11.623  18.006  0.00  0.00    +0.000 A 
ATOM     26  N   UNL     1      -1.980  11.168  17.129  0.00  0.00    +0.000 NA
ATOM     27  N   UNL     1      -2.668  10.860  15.978  0.00  0.00    +0.000 NA
ATOM     28  C   UNL     1      -3.939  11.109  16.197  0.00  0.00    +0.000 A 
ATOM     29  N   UNL     1      -4.102  11.564  17.472  0.00  0.00    +0.000 N 
ATOM     30  C   UNL     1      -5.364  11.881  18.085  0.00  0.00    +0.000 C 
ENDBRANCH  24  25
ENDBRANCH  22  24
ENDBRANCH   6  22
TORSDOF 5
ENDMDL
MODEL 6
REMARK VINA RESULT:      -8.1      3.119      4.451
REMARK  Name = 
REMARK  8 active torsions:
REMARK  status: ('A' for Active; 'I' for Inactive)
REMARK    1  A    between atoms: C_1  and  C_2
REMARK    2  A    between atoms: C_4  and  C_5
REMARK    3  A    between atoms: C_10  and  C_11
REMARK    4  A    between atoms: C_11  and  C_12
REMARK    5  A    between atoms: C_11  and  S_13
REMARK    6  A    between atoms: S_13  and  C_14
REMARK    7  A    between atoms: N_18  and  C_19
REMARK    8  A    between atoms: C_24  and  C_25
REMARK                            x       y       z     vdW  Elec       q    Type
REMARK                         _______ _______ _______ _____ _____    ______ ____
ROOT
ATOM      1  C   UNL     1       2.644   7.431  18.377  0.00  0.00    +0.000 C 
ATOM      2  O   UNL     1       2.954   8.147  17.426  0.00  0.00    +0.000 OA
ATOM      3  N   UNL     1       1.837   7.779  19.451  0.00  0.00    +0.000 N 
ATOM      4  C   UNL     1       1.302   9.073  19.616  0.00  0.00    +0.000 A 
ATOM      5  C   UNL     1       0.671   9.418  20.812  0.00  0.00    +0.000 A 
ATOM      6  C   UNL     1       0.235  10.745  21.010  0.00  0.00    +0.000 A 
ATOM      7  C   UNL     1       0.394  11.653  19.954  0.00  0.00    +0.000 A 
ATOM      8  C   UNL     1       1.001  11.221  18.796  0.00  0.00    +0.000 A 
ATOM      9  N   UNL     1       1.449   9.968  18.622  0.00  0.00    +0.000 NA
ATOM     10  H   UNL     1       1.704   7.085  20.175  0.00  0.00    +0.000 HD
ENDROOT
BRANCH   1  14
ATOM     11  C   UNL     1       5.521   4.013  16.165  0.00  0.00    +0.000 C 
ATOM     12  C   UNL     1       4.612   4.419  17.286  0.00  0.00    +0.000 A 
ATOM     13  C   UNL     1       4.066   5.696  17.333  0.00  0.00    +0.000 A 
ATOM     14  C   UNL     1       3.217   6.048  18.384  0.00  0.00    +0.000 A 
ATOM     15  N   UNL     1       2.885   5.205  19.400  0.00  0.00    +0.000 NA
ATOM     16  C   UNL     1       3.421   3.942  19.340  0.00  0.00    +0.000 A 
ATOM     17  C   UNL     1       4.277   3.528  18.305  0.00  0.00    +0.000 A 
BRANCH  16  18
ATOM     18  C   UNL     1       3.086   2.912  20.418  0.00  0.00    +0.000 C 
ATOM     19  F   UNL     1       2.601   3.447  21.571  0.00  0.00    +0.000 F 
ATOM     20  F   UNL     1       2.151   2.008  20.001  0.00  0.00    +0.000 F 
ATOM     21  F   UNL     1       4.173   2.168  20.779  0.00  0.00    +0.000 F 
ENDBRANCH  16  18
ENDBRANCH   1  14
BRANCH   6  22
ATOM     22  C   UNL     1      -0.356  11.209  22.344  0.00  0.00    +0.000 C 
ATOM     23  C   UNL     1      -0.789   9.998  23.181  0.00  0.00    +0.000 C 
BRANCH  22  24
ATOM     24  S   UNL     1      -1.756  12.375  22.009  0.00  0.00    +0.000 S 
BRANCH  24  25
ATOM     25  C   UNL     1      -1.469  13.675  23.108  0.00  0.00    +0.000 A 
ATOM     26  N   UNL     1      -0.392  14.422  23.187  0.00  0.00    +0.000 NA
ATOM     27  N   UNL     1      -0.550  15.279  24.252  0.00  0.00    +0.000 NA
ATOM     28  C   UNL     1      -1.734  15.048  24.774  0.00  0.00    +0.000 A 
ATOM     29  N   UNL     1      -2.362  14.066  24.067  0.00  0.00    +0.000 N 
ATOM     30  C   UNL     1      -3.697  13.592  24.311  0.00  0.00    +0.000 C 
ENDBRANCH  24  25
ENDBRANCH  22  24
ENDBRANCH   6  22
TORSDOF 5
ENDMDL
MODEL 7
REMARK VINA RESULT:      -8.0      2.478      3.175
REMARK  Name = 
REMARK  8 active torsions:
REMARK  status: ('A' for Active; 'I' for Inactive)
REMARK    1  A    between atoms: C_1  and  C_2
REMARK    2  A    between atoms: C_4  and  C_5
REMARK    3  A    between atoms: C_10  and  C_11
REMARK    4  A    between atoms: C_11  and  C_12
REMARK    5  A    between atoms: C_11  and  S_13
REMARK    6  A    between atoms: S_13  and  C_14
REMARK    7  A    between atoms: N_18  and  C_19
REMARK    8  A    between atoms: C_24  and  C_25
REMARK                            x       y       z     vdW  Elec       q    Type
REMARK                         _______ _______ _______ _____ _____    ______ ____
ROOT
ATOM      1  C   UNL     1       2.310   6.358  19.641  0.00  0.00    +0.000 C 
ATOM      2  O   UNL     1       1.900   5.833  20.675  0.00  0.00    +0.000 OA
ATOM      3  N   UNL     1       2.137   7.680  19.255  0.00  0.00    +0.000 N 
ATOM      4  C   UNL     1       1.388   8.604  20.011  0.00  0.00    +0.000 A 
ATOM      5  C   UNL     1       1.081   9.856  19.474  0.00  0.00    +0.000 A 
ATOM      6  C   UNL     1       0.240  10.732  20.192  0.00  0.00    +0.000 A 
ATOM      7  C   UNL     1      -0.198  10.329  21.461  0.00  0.00    +0.000 A 
ATOM      8  C   UNL     1       0.176   9.089  21.927  0.00  0.00    +0.000 A 
ATOM      9  N   UNL     1       0.946   8.240  21.228  0.00  0.00    +0.000 NA
ATOM     10  H   UNL     1       2.505   7.951  18.352  0.00  0.00    +0.000 HD
ENDROOT
BRANCH   1  14
ATOM     11  C   UNL     1       3.427   1.737  18.141  0.00  0.00    +0.000 C 
ATOM     12  C   UNL     1       3.572   3.222  17.995  0.00  0.00    +0.000 A 
ATOM     13  C   UNL     1       2.893   4.090  18.842  0.00  0.00    +0.000 A 
ATOM     14  C   UNL     1       3.050   5.469  18.690  0.00  0.00    +0.000 A 
ATOM     15  N   UNL     1       3.837   6.038  17.736  0.00  0.00    +0.000 NA
ATOM     16  C   UNL     1       4.511   5.173  16.911  0.00  0.00    +0.000 A 
ATOM     17  C   UNL     1       4.397   3.776  17.018  0.00  0.00    +0.000 A 
BRANCH  16  18
ATOM     18  C   UNL     1       5.441   5.712  15.825  0.00  0.00    +0.000 C 
ATOM     19  F   UNL     1       6.670   6.085  16.277  0.00  0.00    +0.000 F 
ATOM     20  F   UNL     1       5.667   4.800  14.834  0.00  0.00    +0.000 F 
ATOM     21  F   UNL     1       4.925   6.809  15.197  0.00  0.00    +0.000 F 
ENDBRANCH  16  18
ENDBRANCH   1  14
BRANCH   6  22
ATOM     22  C   UNL     1      -0.226  12.066  19.602  0.00  0.00    +0.000 C 
ATOM     23  C   UNL     1       0.976  12.992  19.375  0.00  0.00    +0.000 C 
BRANCH  22  24
ATOM     24  S   UNL     1      -1.492  12.813  20.730  0.00  0.00    +0.000 S 
BRANCH  24  25
ATOM     25  C   UNL     1      -2.990  12.411  19.975  0.00  0.00    +0.000 A 
ATOM     26  N   UNL     1      -3.162  11.892  18.781  0.00  0.00    +0.000 NA
ATOM     27  N   UNL     1      -4.515  11.812  18.545  0.00  0.00    +0.000 NA
ATOM     28  C   UNL     1      -5.131  12.260  19.616  0.00  0.00    +0.000 A 
ATOM     29  N   UNL     1      -4.211  12.620  20.555  0.00  0.00    +0.000 N 
ATOM     30  C   UNL     1      -4.517  13.097  21.877  0.00  0.00    +0.000 C 
ENDBRANCH  24  25
ENDBRANCH  22  24
ENDBRANCH   6  22
TORSDOF 5
ENDMDL
MODEL 8
REMARK VINA RESULT:      -8.0      2.517      3.873
REMARK  Name = 
REMARK  8 active torsions:
REMARK  status: ('A' for Active; 'I' for Inactive)
REMARK    1  A    between atoms: C_1  and  C_2
REMARK    2  A    between atoms: C_4  and  C_5
REMARK    3  A    between atoms: C_10  and  C_11
REMARK    4  A    between atoms: C_11  and  C_12
REMARK    5  A    between atoms: C_11  and  S_13
REMARK    6  A    between atoms: S_13  and  C_14
REMARK    7  A    between atoms: N_18  and  C_19
REMARK    8  A    between atoms: C_24  and  C_25
REMARK                            x       y       z     vdW  Elec       q    Type
REMARK                         _______ _______ _______ _____ _____    ______ ____
ROOT
ATOM      1  C   UNL     1       2.122   6.539  19.868  0.00  0.00    +0.000 C 
ATOM      2  O   UNL     1       1.617   6.068  20.886  0.00  0.00    +0.000 OA
ATOM      3  N   UNL     1       2.020   7.847  19.418  0.00  0.00    +0.000 N 
ATOM      4  C   UNL     1       1.241   8.821  20.075  0.00  0.00    +0.000 A 
ATOM      5  C   UNL     1       1.014  10.057  19.467  0.00  0.00    +0.000 A 
ATOM      6  C   UNL     1       0.145  10.985  20.080  0.00  0.00    +0.000 A 
ATOM      7  C   UNL     1      -0.404  10.646  21.324  0.00  0.00    +0.000 A 
ATOM      8  C   UNL     1      -0.104   9.417  21.867  0.00  0.00    +0.000 A 
ATOM      9  N   UNL     1       0.693   8.520  21.266  0.00  0.00    +0.000 NA
ATOM     10  H   UNL     1       2.466   8.071  18.538  0.00  0.00    +0.000 HD
ENDROOT
BRANCH   1  14
ATOM     11  C   UNL     1       5.140   5.846  15.960  0.00  0.00    +0.000 C 
ATOM     12  C   UNL     1       4.363   5.293  17.118  0.00  0.00    +0.000 A 
ATOM     13  C   UNL     1       3.630   6.132  17.948  0.00  0.00    +0.000 A 
ATOM     14  C   UNL     1       2.909   5.592  19.015  0.00  0.00    +0.000 A 
ATOM     15  N   UNL     1       2.883   4.264  19.312  0.00  0.00    +0.000 NA
ATOM     16  C   UNL     1       3.603   3.442  18.480  0.00  0.00    +0.000 A 
ATOM     17  C   UNL     1       4.343   3.926  17.388  0.00  0.00    +0.000 A 
BRANCH  16  18
ATOM     18  C   UNL     1       3.615   1.932  18.712  0.00  0.00    +0.000 C 
ATOM     19  F   UNL     1       4.475   1.522  19.685  0.00  0.00    +0.000 F 
ATOM     20  F   UNL     1       2.387   1.451  19.071  0.00  0.00    +0.000 F 
ATOM     21  F   UNL     1       3.962   1.237  17.589  0.00  0.00    +0.000 F 
ENDBRANCH  16  18
ENDBRANCH   1  14
BRANCH   6  22
ATOM     22  C   UNL     1      -0.233  12.305  19.403  0.00  0.00    +0.000 C 
ATOM     23  C   UNL     1      -1.246  12.052  18.279  0.00  0.00    +0.000 C 
BRANCH  22  24
ATOM     24  S   UNL     1       1.309  13.132  18.794  0.00  0.00    +0.000 S 
BRANCH  24  25
ATOM     25  C   UNL     1       1.882  13.986  20.180  0.00  0.00    +0.000 A 
ATOM     26  N   UNL     1       2.436  13.472  21.254  0.00  0.00    +0.000 NA
ATOM     27  N   UNL     1       2.664  14.497  22.143  0.00  0.00    +0.000 NA
ATOM     28  C   UNL     1       2.268  15.613  21.572  0.00  0.00    +0.000 A 
ATOM     29  N   UNL     1       1.796  15.343  20.322  0.00  0.00    +0.000 N 
ATOM     30  C   UNL     1       1.333  16.326  19.379  0.00  0.00    +0.000 C 
ENDBRANCH  24  25
ENDBRANCH  22  24
ENDBRANCH   6  22
TORSDOF 5
ENDMDL
MODEL 9
REMARK VINA RESULT:      -8.0      3.537      4.976
REMARK  Name = 
REMARK  8 active torsions:
REMARK  status: ('A' for Active; 'I' for Inactive)
REMARK    1  A    between atoms: C_1  and  C_2
REMARK    2  A    between atoms: C_4  and  C_5
REMARK    3  A    between atoms: C_10  and  C_11
REMARK    4  A    between atoms: C_11  and  C_12
REMARK    5  A    between atoms: C_11  and  S_13
REMARK    6  A    between atoms: S_13  and  C_14
REMARK    7  A    between atoms: N_18  and  C_19
REMARK    8  A    between atoms: C_24  and  C_25
REMARK                            x       y       z     vdW  Elec       q    Type
REMARK                         _______ _______ _______ _____ _____    ______ ____
ROOT
ATOM      1  C   UNL     1       2.744   7.630  18.228  0.00  0.00    +0.000 C 
ATOM      2  O   UNL     1       2.789   8.306  17.202  0.00  0.00    +0.000 OA
ATOM      3  N   UNL     1       2.028   7.917  19.382  0.00  0.00    +0.000 N 
ATOM      4  C   UNL     1       1.281   9.101  19.542  0.00  0.00    +0.000 A 
ATOM      5  C   UNL     1       0.752   9.427  20.792  0.00  0.00    +0.000 A 
ATOM      6  C   UNL     1       0.099  10.665  20.969  0.00  0.00    +0.000 A 
ATOM      7  C   UNL     1      -0.053  11.493  19.848  0.00  0.00    +0.000 A 
ATOM      8  C   UNL     1       0.473  11.081  18.645  0.00  0.00    +0.000 A 
ATOM      9  N   UNL     1       1.127   9.920  18.485  0.00  0.00    +0.000 NA
ATOM     10  H   UNL     1       2.123   7.275  20.158  0.00  0.00    +0.000 HD
ENDROOT
BRANCH   1  14
ATOM     11  C   UNL     1       3.259   2.894  19.700  0.00  0.00    +0.000 C 
ATOM     12  C   UNL     1       3.785   4.094  18.971  0.00  0.00    +0.000 A 
ATOM     13  C   UNL     1       3.052   5.274  18.918  0.00  0.00    +0.000 A 
ATOM     14  C   UNL     1       3.567   6.379  18.239  0.00  0.00    +0.000 A 
ATOM     15  N   UNL     1       4.768   6.378  17.597  0.00  0.00    +0.000 NA
ATOM     16  C   UNL     1       5.489   5.212  17.663  0.00  0.00    +0.000 A 
ATOM     17  C   UNL     1       5.026   4.068  18.336  0.00  0.00    +0.000 A 
BRANCH  16  18
ATOM     18  C   UNL     1       6.862   5.118  16.999  0.00  0.00    +0.000 C 
ATOM     19  F   UNL     1       7.390   6.318  16.633  0.00  0.00    +0.000 F 
ATOM     20  F   UNL     1       7.793   4.530  17.809  0.00  0.00    +0.000 F 
ATOM     21  F   UNL     1       6.839   4.358  15.864  0.00  0.00    +0.000 F 
ENDBRANCH  16  18
ENDBRANCH   1  14
BRANCH   6  22
ATOM     22  C   UNL     1      -0.396  11.127  22.342  0.00  0.00    +0.000 C 
ATOM     23  C   UNL     1      -0.683   9.914  23.236  0.00  0.00    +0.000 C 
BRANCH  22  24
ATOM     24  S   UNL     1      -1.883  12.208  22.114  0.00  0.00    +0.000 S 
BRANCH  24  25
ATOM     25  C   UNL     1      -1.587  13.531  23.180  0.00  0.00    +0.000 A 
ATOM     26  N   UNL     1      -0.489  14.246  23.269  0.00  0.00    +0.000 NA
ATOM     27  N   UNL     1      -0.651  15.141  24.302  0.00  0.00    +0.000 NA
ATOM     28  C   UNL     1      -1.856  14.964  24.795  0.00  0.00    +0.000 A 
ATOM     29  N   UNL     1      -2.494  13.980  24.099  0.00  0.00    +0.000 N 
ATOM     30  C   UNL     1      -3.851  13.557  24.317  0.00  0.00    +0.000 C 
ENDBRANCH  24  25
ENDBRANCH  22  24
ENDBRANCH   6  22
TORSDOF 5
ENDMDL
