MODEL 1
REMARK VINA RESULT:      -8.0      0.000      0.000
REMARK  Name = 
REMARK  6 active torsions:
REMARK  status: ('A' for Active; 'I' for Inactive)
REMARK    1  A    between atoms: C_1  and  C_2
REMARK    2  A    between atoms: C_2  and  S_3
REMARK    3  A    between atoms: C_2  and  C_10
REMARK    4  A    between atoms: S_3  and  C_4
REMARK    5  A    between atoms: N_8  and  C_9
REMARK    6  A    between atoms: C_14  and  N_15
REMARK                            x       y       z     vdW  Elec       q    Type
REMARK                         _______ _______ _______ _____ _____    ______ ____
ROOT
ATOM      1  C   UNL     1      -0.429  10.702  20.200  0.00  0.00    +0.000 A 
ATOM      2  C   UNL     1      -0.803  11.205  21.453  0.00  0.00    +0.000 A 
ATOM      3  C   UNL     1      -0.452  10.533  22.622  0.00  0.00    +0.000 A 
ATOM      4  C   UNL     1       0.268   9.342  22.555  0.00  0.00    +0.000 A 
ATOM      5  C   UNL     1       0.640   8.801  21.325  0.00  0.00    +0.000 A 
ATOM      6  C   UNL     1       0.307   9.500  20.153  0.00  0.00    +0.000 A 
ENDROOT
BRANCH   5   7
ATOM      7  N   UNL     1       1.348   7.581  21.185  0.00  0.00    +0.000 N 
ATOM      8  C   UNL     1       2.132   7.215  20.114  0.00  0.00    +0.000 C 
ATOM      9  O   UNL     1       2.391   7.956  19.170  0.00  0.00    +0.000 OA
ATOM     10  N   UNL     1       2.626   5.915  20.137  0.00  0.00    +0.000 N 
ATOM     11  C   UNL     1       2.441   4.896  21.179  0.00  0.00    +0.000 C 
ATOM     12  C   UNL     1       1.467   3.830  20.695  0.00  0.00    +0.000 C 
ATOM     13  N   UNL     1       1.841   3.418  19.355  0.00  0.00    +0.000 N 
ATOM     14  N   UNL     1       1.370   2.277  18.825  0.00  0.00    +0.000 NA
ATOM     15  C   UNL     1       1.882   2.277  17.591  0.00  0.00    +0.000 A 
ATOM     16  C   UNL     1       2.682   3.407  17.339  0.00  0.00    +0.000 A 
ATOM     17  C   UNL     1       2.643   4.135  18.508  0.00  0.00    +0.000 A 
ATOM     18  C   UNL     1       3.274   5.422  18.918  0.00  0.00    +0.000 C 
ATOM     19  H   UNL     1       1.396   7.026  22.020  0.00  0.00    +0.000 HD
ENDBRANCH   5   7
BRANCH   1  21
ATOM     20  C   UNL     1      -0.076  12.787  18.730  0.00  0.00    +0.000 C 
ATOM     21  C   UNL     1      -0.821  11.470  18.947  0.00  0.00    +0.000 C 
BRANCH  21  22
ATOM     22  S   UNL     1      -2.631  11.644  18.761  0.00  0.00    +0.000 S 
BRANCH  22  23
ATOM     23  C   UNL     1      -2.918  11.064  17.164  0.00  0.00    +0.000 A 
ATOM     24  N   UNL     1      -2.093  10.373  16.411  0.00  0.00    +0.000 NA
ATOM     25  N   UNL     1      -2.743  10.095  15.227  0.00  0.00    +0.000 NA
ATOM     26  C   UNL     1      -3.947  10.615  15.304  0.00  0.00    +0.000 A 
ATOM     27  N   UNL     1      -4.095  11.248  16.502  0.00  0.00    +0.000 N 
ATOM     28  C   UNL     1      -5.253  11.983  16.936  0.00  0.00    +0.000 C 
ENDBRANCH  22  23
ENDBRANCH  21  22
ENDBRANCH   1  21
TORSDOF 4
ENDMDL
MODEL 2
REMARK VINA RESULT:      -7.9      3.204      8.600
REMARK  Name = 
REMARK  6 active torsions:
REMARK  status: ('A' for Active; 'I' for Inactive)
REMARK    1  A    between atoms: C_1  and  C_2
REMARK    2  A    between atoms: C_2  and  S_3
REMARK    3  A    between atoms: C_2  and  C_10
REMARK    4  A    between atoms: S_3  and  C_4
REMARK    5  A    between atoms: N_8  and  C_9
REMARK    6  A    between atoms: C_14  and  N_15
REMARK                            x       y       z     vdW  Elec       q    Type
REMARK                         _______ _______ _______ _____ _____    ______ ____
ROOT
ATOM      1  C   UNL     1       2.720   4.076  18.799  0.00  0.00    +0.000 A 
ATOM      2  C   UNL     1       2.545   3.499  20.064  0.00  0.00    +0.000 A 
ATOM      3  C   UNL     1       2.089   4.263  21.136  0.00  0.00    +0.000 A 
ATOM      4  C   UNL     1       1.813   5.618  20.963  0.00  0.00    +0.000 A 
ATOM      5  C   UNL     1       1.994   6.231  19.724  0.00  0.00    +0.000 A 
ATOM      6  C   UNL     1       2.427   5.447  18.641  0.00  0.00    +0.000 A 
ENDROOT
BRANCH   5   7
ATOM      7  N   UNL     1       1.759   7.607  19.486  0.00  0.00    +0.000 N 
ATOM      8  C   UNL     1       1.469   8.558  20.440  0.00  0.00    +0.000 C 
ATOM      9  O   UNL     1       1.468   8.339  21.647  0.00  0.00    +0.000 OA
ATOM     10  N   UNL     1       1.148   9.823  19.960  0.00  0.00    +0.000 N 
ATOM     11  C   UNL     1       1.114  10.279  18.564  0.00  0.00    +0.000 C 
ATOM     12  C   UNL     1      -0.330  10.448  18.109  0.00  0.00    +0.000 C 
ATOM     13  N   UNL     1      -1.063  11.189  19.118  0.00  0.00    +0.000 N 
ATOM     14  N   UNL     1      -2.245  11.761  18.835  0.00  0.00    +0.000 NA
ATOM     15  C   UNL     1      -2.620  12.287  20.004  0.00  0.00    +0.000 A 
ATOM     16  C   UNL     1      -1.679  12.058  21.025  0.00  0.00    +0.000 A 
ATOM     17  C   UNL     1      -0.668  11.343  20.420  0.00  0.00    +0.000 A 
ATOM     18  C   UNL     1       0.622  10.793  20.925  0.00  0.00    +0.000 C 
ATOM     19  H   UNL     1       1.989   7.919  18.561  0.00  0.00    +0.000 HD
ENDBRANCH   5   7
BRANCH   1  21
ATOM     20  C   UNL     1       3.512   1.754  18.016  0.00  0.00    +0.000 C 
ATOM     21  C   UNL     1       3.209   3.207  17.650  0.00  0.00    +0.000 C 
BRANCH  21  22
ATOM     22  S   UNL     1       4.556   3.990  16.694  0.00  0.00    +0.000 S 
BRANCH  22  23
ATOM     23  C   UNL     1       5.571   4.654  17.918  0.00  0.00    +0.000 A 
ATOM     24  N   UNL     1       5.970   4.066  19.022  0.00  0.00    +0.000 NA
ATOM     25  N   UNL     1       6.791   4.949  19.692  0.00  0.00    +0.000 NA
ATOM     26  C   UNL     1       6.873   6.041  18.966  0.00  0.00    +0.000 A 
ATOM     27  N   UNL     1       6.107   5.905  17.847  0.00  0.00    +0.000 N 
ATOM     28  C   UNL     1       5.898   6.905  16.836  0.00  0.00    +0.000 C 
ENDBRANCH  22  23
ENDBRANCH  21  22
ENDBRANCH   1  21
TORSDOF 4
ENDMDL
MODEL 3
REMARK VINA RESULT:      -7.8      4.636      9.030
REMARK  Name = 
REMARK  6 active torsions:
REMARK  status: ('A' for Active; 'I' for Inactive)
REMARK    1  A    between atoms: C_1  and  C_2
REMARK    2  A    between atoms: C_2  and  S_3
REMARK    3  A    between atoms: C_2  and  C_10
REMARK    4  A    between atoms: S_3  and  C_4
REMARK    5  A    between atoms: N_8  and  C_9
REMARK    6  A    between atoms: C_14  and  N_15
REMARK                            x       y       z     vdW  Elec       q    Type
REMARK                         _______ _______ _______ _____ _____    ______ ____
ROOT
ATOM      1  C   UNL     1       4.477   5.768  17.678  0.00  0.00    +0.000 A 
ATOM      2  C   UNL     1       4.509   4.601  18.453  0.00  0.00    +0.000 A 
ATOM      3  C   UNL     1       3.645   4.443  19.535  0.00  0.00    +0.000 A 
ATOM      4  C   UNL     1       2.745   5.454  19.866  0.00  0.00    +0.000 A 
ATOM      5  C   UNL     1       2.700   6.638  19.130  0.00  0.00    +0.000 A 
ATOM      6  C   UNL     1       3.554   6.777  18.023  0.00  0.00    +0.000 A 
ENDROOT
BRANCH   5   7
ATOM      7  N   UNL     1       1.830   7.715  19.429  0.00  0.00    +0.000 N 
ATOM      8  C   UNL     1       1.610   8.825  18.643  0.00  0.00    +0.000 C 
ATOM      9  O   UNL     1       2.085   8.974  17.521  0.00  0.00    +0.000 OA
ATOM     10  N   UNL     1       0.811   9.817  19.200  0.00  0.00    +0.000 N 
ATOM     11  C   UNL     1       0.145   9.813  20.509  0.00  0.00    +0.000 C 
ATOM     12  C   UNL     1       0.864  10.760  21.460  0.00  0.00    +0.000 C 
ATOM     13  N   UNL     1       1.099  12.023  20.786  0.00  0.00    +0.000 N 
ATOM     14  N   UNL     1       1.409  13.131  21.479  0.00  0.00    +0.000 NA
ATOM     15  C   UNL     1       1.600  14.047  20.525  0.00  0.00    +0.000 A 
ATOM     16  C   UNL     1       1.406  13.528  19.232  0.00  0.00    +0.000 A 
ATOM     17  C   UNL     1       1.075  12.204  19.428  0.00  0.00    +0.000 A 
ATOM     18  C   UNL     1       0.738  11.097  18.489  0.00  0.00    +0.000 C 
ATOM     19  H   UNL     1       1.213   7.554  20.205  0.00  0.00    +0.000 HD
ENDBRANCH   5   7
BRANCH   1  21
ATOM     20  C   UNL     1       5.021   6.931  15.445  0.00  0.00    +0.000 C 
ATOM     21  C   UNL     1       5.428   5.900  16.498  0.00  0.00    +0.000 C 
BRANCH  21  22
ATOM     22  S   UNL     1       5.878   4.286  15.768  0.00  0.00    +0.000 S 
BRANCH  22  23
ATOM     23  C   UNL     1       6.852   4.724  14.417  0.00  0.00    +0.000 A 
ATOM     24  N   UNL     1       7.892   5.526  14.417  0.00  0.00    +0.000 NA
ATOM     25  N   UNL     1       8.386   5.568  13.130  0.00  0.00    +0.000 NA
ATOM     26  C   UNL     1       7.637   4.780  12.392  0.00  0.00    +0.000 A 
ATOM     27  N   UNL     1       6.648   4.240  13.160  0.00  0.00    +0.000 N 
ATOM     28  C   UNL     1       5.599   3.370  12.702  0.00  0.00    +0.000 C 
ENDBRANCH  22  23
ENDBRANCH  21  22
ENDBRANCH   1  21
TORSDOF 4
ENDMDL
MODEL 4
REMARK VINA RESULT:      -7.8      3.588      8.798
REMARK  Name = 
REMARK  6 active torsions:
REMARK  status: ('A' for Active; 'I' for Inactive)
REMARK    1  A    between atoms: C_1  and  C_2
REMARK    2  A    between atoms: C_2  and  S_3
REMARK    3  A    between atoms: C_2  and  C_10
REMARK    4  A    between atoms: S_3  and  C_4
REMARK    5  A    between atoms: N_8  and  C_9
REMARK    6  A    between atoms: C_14  and  N_15
REMARK                            x       y       z     vdW  Elec       q    Type
REMARK                         _______ _______ _______ _____ _____    ______ ____
ROOT
ATOM      1  C   UNL     1       3.107   5.328  18.724  0.00  0.00    +0.000 A 
ATOM      2  C   UNL     1       2.744   4.504  19.798  0.00  0.00    +0.000 A 
ATOM      3  C   UNL     1       1.968   4.999  20.843  0.00  0.00    +0.000 A 
ATOM      4  C   UNL     1       1.554   6.330  20.839  0.00  0.00    +0.000 A 
ATOM      5  C   UNL     1       1.914   7.185  19.798  0.00  0.00    +0.000 A 
ATOM      6  C   UNL     1       2.672   6.670  18.733  0.00  0.00    +0.000 A 
ENDROOT
BRANCH   5   7
ATOM      7  N   UNL     1       1.550   8.553  19.745  0.00  0.00    +0.000 N 
ATOM      8  C   UNL     1       1.178   9.337  20.815  0.00  0.00    +0.000 C 
ATOM      9  O   UNL     1       1.205   8.959  21.982  0.00  0.00    +0.000 OA
ATOM     10  N   UNL     1       0.739  10.620  20.505  0.00  0.00    +0.000 N 
ATOM     11  C   UNL     1       0.655  11.253  19.182  0.00  0.00    +0.000 C 
ATOM     12  C   UNL     1      -0.801  11.346  18.744  0.00  0.00    +0.000 C 
ATOM     13  N   UNL     1      -1.594  11.875  19.838  0.00  0.00    +0.000 N 
ATOM     14  N   UNL     1      -2.826  12.367  19.625  0.00  0.00    +0.000 NA
ATOM     15  C   UNL     1      -3.242  12.695  20.852  0.00  0.00    +0.000 A 
ATOM     16  C   UNL     1      -2.278  12.421  21.840  0.00  0.00    +0.000 A 
ATOM     17  C   UNL     1      -1.208  11.890  21.152  0.00  0.00    +0.000 A 
ATOM     18  C   UNL     1       0.130  11.399  21.588  0.00  0.00    +0.000 C 
ATOM     19  H   UNL     1       1.746   9.006  18.870  0.00  0.00    +0.000 HD
ENDBRANCH   5   7
BRANCH   1  21
ATOM     20  C   UNL     1       3.296   3.597  16.827  0.00  0.00    +0.000 C 
ATOM     21  C   UNL     1       3.946   4.748  17.596  0.00  0.00    +0.000 C 
BRANCH  21  22
ATOM     22  S   UNL     1       5.661   4.377  18.107  0.00  0.00    +0.000 S 
BRANCH  22  23
ATOM     23  C   UNL     1       6.500   5.839  17.755  0.00  0.00    +0.000 A 
ATOM     24  N   UNL     1       6.279   6.660  16.754  0.00  0.00    +0.000 NA
ATOM     25  N   UNL     1       7.159   7.714  16.876  0.00  0.00    +0.000 NA
ATOM     26  C   UNL     1       7.879   7.506  17.955  0.00  0.00    +0.000 A 
ATOM     27  N   UNL     1       7.508   6.328  18.531  0.00  0.00    +0.000 N 
ATOM     28  C   UNL     1       8.101   5.730  19.697  0.00  0.00    +0.000 C 
ENDBRANCH  22  23
ENDBRANCH  21  22
ENDBRANCH   1  21
TORSDOF 4
ENDMDL
MODEL 5
REMARK VINA RESULT:      -7.7      2.266      3.231
REMARK  Name = 
REMARK  6 active torsions:
REMARK  status: ('A' for Active; 'I' for Inactive)
REMARK    1  A    between atoms: C_1  and  C_2
REMARK    2  A    between atoms: C_2  and  S_3
REMARK    3  A    between atoms: C_2  and  C_10
REMARK    4  A    between atoms: S_3  and  C_4
REMARK    5  A    between atoms: N_8  and  C_9
REMARK    6  A    between atoms: C_14  and  N_15
REMARK                            x       y       z     vdW  Elec       q    Type
REMARK                         _______ _______ _______ _____ _____    ______ ____
ROOT
ATOM      1  C   UNL     1      -1.890  11.037  18.142  0.00  0.00    +0.000 A 
ATOM      2  C   UNL     1      -1.413  12.351  18.233  0.00  0.00    +0.000 A 
ATOM      3  C   UNL     1      -0.106  12.606  18.641  0.00  0.00    +0.000 A 
ATOM      4  C   UNL     1       0.742  11.551  18.977  0.00  0.00    +0.000 A 
ATOM      5  C   UNL     1       0.295  10.232  18.918  0.00  0.00    +0.000 A 
ATOM      6  C   UNL     1      -1.015   9.982  18.478  0.00  0.00    +0.000 A 
ENDROOT
BRANCH   5   7
ATOM      7  N   UNL     1       1.094   9.116  19.272  0.00  0.00    +0.000 N 
ATOM      8  C   UNL     1       1.964   8.444  18.442  0.00  0.00    +0.000 C 
ATOM      9  O   UNL     1       2.224   8.794  17.295  0.00  0.00    +0.000 OA
ATOM     10  N   UNL     1       2.546   7.297  18.971  0.00  0.00    +0.000 N 
ATOM     11  C   UNL     1       2.373   6.734  20.317  0.00  0.00    +0.000 C 
ATOM     12  C   UNL     1       1.507   5.482  20.247  0.00  0.00    +0.000 C 
ATOM     13  N   UNL     1       1.987   4.631  19.176  0.00  0.00    +0.000 N 
ATOM     14  N   UNL     1       1.630   3.338  19.106  0.00  0.00    +0.000 NA
ATOM     15  C   UNL     1       2.212   2.918  17.979  0.00  0.00    +0.000 A 
ATOM     16  C   UNL     1       2.943   3.936  17.338  0.00  0.00    +0.000 A 
ATOM     17  C   UNL     1       2.785   5.044  18.142  0.00  0.00    +0.000 A 
ATOM     18  C   UNL     1       3.297   6.440  18.049  0.00  0.00    +0.000 C 
ATOM     19  H   UNL     1       1.132   8.922  20.256  0.00  0.00    +0.000 HD
ENDBRANCH   5   7
BRANCH   1  21
ATOM     20  C   UNL     1      -3.479  10.464  16.198  0.00  0.00    +0.000 C 
ATOM     21  C   UNL     1      -3.319  10.798  17.682  0.00  0.00    +0.000 C 
BRANCH  21  22
ATOM     22  S   UNL     1      -4.470  12.104  18.238  0.00  0.00    +0.000 S 
BRANCH  22  23
ATOM     23  C   UNL     1      -5.732  11.216  19.003  0.00  0.00    +0.000 A 
ATOM     24  N   UNL     1      -6.250  10.075  18.608  0.00  0.00    +0.000 NA
ATOM     25  N   UNL     1      -7.208   9.711  19.531  0.00  0.00    +0.000 NA
ATOM     26  C   UNL     1      -7.233  10.637  20.463  0.00  0.00    +0.000 A 
ATOM     27  N   UNL     1      -6.330  11.612  20.162  0.00  0.00    +0.000 N 
ATOM     28  C   UNL     1      -6.102  12.818  20.912  0.00  0.00    +0.000 C 
ENDBRANCH  22  23
ENDBRANCH  21  22
ENDBRANCH   1  21
TORSDOF 4
ENDMDL
MODEL 6
REMARK VINA RESULT:      -7.6      7.977      9.385
REMARK  Name = 
REMARK  6 active torsions:
REMARK  status: ('A' for Active; 'I' for Inactive)
REMARK    1  A    between atoms: C_1  and  C_2
REMARK    2  A    between atoms: C_2  and  S_3
REMARK    3  A    between atoms: C_2  and  C_10
REMARK    4  A    between atoms: S_3  and  C_4
REMARK    5  A    between atoms: N_8  and  C_9
REMARK    6  A    between atoms: C_14  and  N_15
REMARK                            x       y       z     vdW  Elec       q    Type
REMARK                         _______ _______ _______ _____ _____    ______ ____
ROOT
ATOM      1  C   UNL     1       9.905  12.491  18.660  0.00  0.00    +0.000 A 
ATOM      2  C   UNL     1      10.024  12.849  20.010  0.00  0.00    +0.000 A 
ATOM      3  C   UNL     1       9.785  11.916  21.016  0.00  0.00    +0.000 A 
ATOM      4  C   UNL     1       9.412  10.613  20.689  0.00  0.00    +0.000 A 
ATOM      5  C   UNL     1       9.264  10.227  19.357  0.00  0.00    +0.000 A 
ATOM      6  C   UNL     1       9.534  11.167  18.349  0.00  0.00    +0.000 A 
ENDROOT
BRANCH   5   7
ATOM      7  N   UNL     1       8.860   8.929  18.957  0.00  0.00    +0.000 N 
ATOM      8  C   UNL     1       7.955   8.630  17.962  0.00  0.00    +0.000 C 
ATOM      9  O   UNL     1       7.446   9.469  17.226  0.00  0.00    +0.000 OA
ATOM     10  N   UNL     1       7.617   7.288  17.831  0.00  0.00    +0.000 N 
ATOM     11  C   UNL     1       8.130   6.146  18.600  0.00  0.00    +0.000 C 
ATOM     12  C   UNL     1       7.065   5.654  19.570  0.00  0.00    +0.000 C 
ATOM     13  N   UNL     1       5.802   5.528  18.867  0.00  0.00    +0.000 N 
ATOM     14  N   UNL     1       4.790   4.811  19.383  0.00  0.00    +0.000 NA
ATOM     15  C   UNL     1       3.809   4.978  18.492  0.00  0.00    +0.000 A 
ATOM     16  C   UNL     1       4.195   5.792  17.411  0.00  0.00    +0.000 A 
ATOM     17  C   UNL     1       5.503   6.135  17.676  0.00  0.00    +0.000 A 
ATOM     18  C   UNL     1       6.500   6.962  16.939  0.00  0.00    +0.000 C 
ATOM     19  H   UNL     1       9.416   8.182  19.333  0.00  0.00    +0.000 HD
ENDBRANCH   5   7
BRANCH   1  21
ATOM     20  C   UNL     1      11.350  13.213  16.654  0.00  0.00    +0.000 C 
ATOM     21  C   UNL     1      10.184  13.535  17.590  0.00  0.00    +0.000 C 
BRANCH  21  22
ATOM     22  S   UNL     1      10.266  15.233  18.262  0.00  0.00    +0.000 S 
BRANCH  22  23
ATOM     23  C   UNL     1       8.613  15.712  18.320  0.00  0.00    +0.000 A 
ATOM     24  N   UNL     1       7.558  14.934  18.233  0.00  0.00    +0.000 NA
ATOM     25  N   UNL     1       6.440  15.732  18.359  0.00  0.00    +0.000 NA
ATOM     26  C   UNL     1       6.852  16.967  18.532  0.00  0.00    +0.000 A 
ATOM     27  N   UNL     1       8.214  17.003  18.498  0.00  0.00    +0.000 N 
ATOM     28  C   UNL     1       9.034  18.180  18.597  0.00  0.00    +0.000 C 
ENDBRANCH  22  23
ENDBRANCH  21  22
ENDBRANCH   1  21
TORSDOF 4
ENDMDL
MODEL 7
REMARK VINA RESULT:      -7.6      3.540      4.445
REMARK  Name = 
REMARK  6 active torsions:
REMARK  status: ('A' for Active; 'I' for Inactive)
REMARK    1  A    between atoms: C_1  and  C_2
REMARK    2  A    between atoms: C_2  and  S_3
REMARK    3  A    between atoms: C_2  and  C_10
REMARK    4  A    between atoms: S_3  and  C_4
REMARK    5  A    between atoms: N_8  and  C_9
REMARK    6  A    between atoms: C_14  and  N_15
REMARK                            x       y       z     vdW  Elec       q    Type
REMARK                         _______ _______ _______ _____ _____    ______ ____
ROOT
ATOM      1  C   UNL     1       0.525  12.691  19.019  0.00  0.00    +0.000 A 
ATOM      2  C   UNL     1      -0.721  12.649  18.379  0.00  0.00    +0.000 A 
ATOM      3  C   UNL     1      -1.323  11.430  18.075  0.00  0.00    +0.000 A 
ATOM      4  C   UNL     1      -0.683  10.234  18.395  0.00  0.00    +0.000 A 
ATOM      5  C   UNL     1       0.567  10.237  19.014  0.00  0.00    +0.000 A 
ATOM      6  C   UNL     1       1.153  11.471  19.343  0.00  0.00    +0.000 A 
ENDROOT
BRANCH   5   7
ATOM      7  N   UNL     1       1.284   9.060  19.342  0.00  0.00    +0.000 N 
ATOM      8  C   UNL     1       2.025   8.291  18.472  0.00  0.00    +0.000 C 
ATOM      9  O   UNL     1       2.232   8.591  17.300  0.00  0.00    +0.000 OA
ATOM     10  N   UNL     1       2.536   7.107  18.991  0.00  0.00    +0.000 N 
ATOM     11  C   UNL     1       2.412   6.591  20.361  0.00  0.00    +0.000 C 
ATOM     12  C   UNL     1       1.432   5.426  20.389  0.00  0.00    +0.000 C 
ATOM     13  N   UNL     1       1.752   4.510  19.310  0.00  0.00    +0.000 N 
ATOM     14  N   UNL     1       1.273   3.254  19.302  0.00  0.00    +0.000 NA
ATOM     15  C   UNL     1       1.731   2.758  18.150  0.00  0.00    +0.000 A 
ATOM     16  C   UNL     1       2.503   3.688  17.430  0.00  0.00    +0.000 A 
ATOM     17  C   UNL     1       2.506   4.824  18.211  0.00  0.00    +0.000 A 
ATOM     18  C   UNL     1       3.136   6.164  18.043  0.00  0.00    +0.000 C 
ATOM     19  H   UNL     1       1.376   8.885  20.326  0.00  0.00    +0.000 HD
ENDBRANCH   5   7
BRANCH   1  21
ATOM     20  C   UNL     1       2.048  14.064  20.578  0.00  0.00    +0.000 C 
ATOM     21  C   UNL     1       1.145  14.042  19.344  0.00  0.00    +0.000 C 
BRANCH  21  22
ATOM     22  S   UNL     1      -0.076  15.401  19.338  0.00  0.00    +0.000 S 
BRANCH  22  23
ATOM     23  C   UNL     1       0.691  16.614  18.386  0.00  0.00    +0.000 A 
ATOM     24  N   UNL     1       1.943  16.634  17.986  0.00  0.00    +0.000 NA
ATOM     25  N   UNL     1       2.118  17.770  17.223  0.00  0.00    +0.000 NA
ATOM     26  C   UNL     1       0.964  18.397  17.174  0.00  0.00    +0.000 A 
ATOM     27  N   UNL     1       0.041  17.711  17.906  0.00  0.00    +0.000 N 
ATOM     28  C   UNL     1      -1.322  18.107  18.137  0.00  0.00    +0.000 C 
ENDBRANCH  22  23
ENDBRANCH  21  22
ENDBRANCH   1  21
TORSDOF 4
ENDMDL
MODEL 8
REMARK VINA RESULT:      -7.6      7.850     10.919
REMARK  Name = 
REMARK  6 active torsions:
REMARK  status: ('A' for Active; 'I' for Inactive)
REMARK    1  A    between atoms: C_1  and  C_2
REMARK    2  A    between atoms: C_2  and  S_3
REMARK    3  A    between atoms: C_2  and  C_10
REMARK    4  A    between atoms: S_3  and  C_4
REMARK    5  A    between atoms: N_8  and  C_9
REMARK    6  A    between atoms: C_14  and  N_15
REMARK                            x       y       z     vdW  Elec       q    Type
REMARK                         _______ _______ _______ _____ _____    ______ ____
ROOT
ATOM      1  C   UNL     1       6.509   6.336  17.349  0.00  0.00    +0.000 A 
ATOM      2  C   UNL     1       7.140   5.542  18.315  0.00  0.00    +0.000 A 
ATOM      3  C   UNL     1       8.126   6.077  19.141  0.00  0.00    +0.000 A 
ATOM      4  C   UNL     1       8.505   7.412  19.006  0.00  0.00    +0.000 A 
ATOM      5  C   UNL     1       7.912   8.227  18.042  0.00  0.00    +0.000 A 
ATOM      6  C   UNL     1       6.899   7.686  17.233  0.00  0.00    +0.000 A 
ENDROOT
BRANCH   5   7
ATOM      7  N   UNL     1       8.269   9.582  17.833  0.00  0.00    +0.000 N 
ATOM      8  C   UNL     1       8.977  10.379  18.705  0.00  0.00    +0.000 C 
ATOM      9  O   UNL     1       9.473   9.976  19.752  0.00  0.00    +0.000 OA
ATOM     10  N   UNL     1       9.099  11.717  18.343  0.00  0.00    +0.000 N 
ATOM     11  C   UNL     1       8.594  12.376  17.131  0.00  0.00    +0.000 C 
ATOM     12  C   UNL     1       7.394  13.247  17.477  0.00  0.00    +0.000 C 
ATOM     13  N   UNL     1       7.708  14.049  18.644  0.00  0.00    +0.000 N 
ATOM     14  N   UNL     1       6.972  15.127  18.962  0.00  0.00    +0.000 NA
ATOM     15  C   UNL     1       7.526  15.552  20.101  0.00  0.00    +0.000 A 
ATOM     16  C   UNL     1       8.613  14.753  20.504  0.00  0.00    +0.000 A 
ATOM     17  C   UNL     1       8.715  13.780  19.533  0.00  0.00    +0.000 A 
ATOM     18  C   UNL     1       9.649  12.634  19.346  0.00  0.00    +0.000 C 
ATOM     19  H   UNL     1       8.124   9.915  16.897  0.00  0.00    +0.000 HD
ENDBRANCH   5   7
BRANCH   1  21
ATOM     20  C   UNL     1       4.047   5.612  17.120  0.00  0.00    +0.000 C 
ATOM     21  C   UNL     1       5.429   5.719  16.473  0.00  0.00    +0.000 C 
BRANCH  21  22
ATOM     22  S   UNL     1       5.962   4.158  15.687  0.00  0.00    +0.000 S 
BRANCH  22  23
ATOM     23  C   UNL     1       6.895   4.696  14.342  0.00  0.00    +0.000 A 
ATOM     24  N   UNL     1       7.910   5.530  14.363  0.00  0.00    +0.000 NA
ATOM     25  N   UNL     1       8.376   5.653  13.071  0.00  0.00    +0.000 NA
ATOM     26  C   UNL     1       7.636   4.880  12.308  0.00  0.00    +0.000 A 
ATOM     27  N   UNL     1       6.681   4.270  13.065  0.00  0.00    +0.000 N 
ATOM     28  C   UNL     1       5.650   3.391  12.583  0.00  0.00    +0.000 C 
ENDBRANCH  22  23
ENDBRANCH  21  22
ENDBRANCH   1  21
TORSDOF 4
ENDMDL
MODEL 9
REMARK VINA RESULT:      -7.6      3.419      8.858
REMARK  Name = 
REMARK  6 active torsions:
REMARK  status: ('A' for Active; 'I' for Inactive)
REMARK    1  A    between atoms: C_1  and  C_2
REMARK    2  A    between atoms: C_2  and  S_3
REMARK    3  A    between atoms: C_2  and  C_10
REMARK    4  A    between atoms: S_3  and  C_4
REMARK    5  A    between atoms: N_8  and  C_9
REMARK    6  A    between atoms: C_14  and  N_15
REMARK                            x       y       z     vdW  Elec       q    Type
REMARK                         _______ _______ _______ _____ _____    ______ ____
ROOT
ATOM      1  C   UNL     1       3.185   5.478  18.235  0.00  0.00    +0.000 A 
ATOM      2  C   UNL     1       2.923   4.611  19.304  0.00  0.00    +0.000 A 
ATOM      3  C   UNL     1       2.235   5.058  20.430  0.00  0.00    +0.000 A 
ATOM      4  C   UNL     1       1.809   6.383  20.510  0.00  0.00    +0.000 A 
ATOM      5  C   UNL     1       2.070   7.280  19.475  0.00  0.00    +0.000 A 
ATOM      6  C   UNL     1       2.739   6.813  18.331  0.00  0.00    +0.000 A 
ENDROOT
BRANCH   5   7
ATOM      7  N   UNL     1       1.690   8.644  19.504  0.00  0.00    +0.000 N 
ATOM      8  C   UNL     1       1.335   9.365  20.623  0.00  0.00    +0.000 C 
ATOM      9  O   UNL     1       1.395   8.926  21.767  0.00  0.00    +0.000 OA
ATOM     10  N   UNL     1       0.875  10.657  20.393  0.00  0.00    +0.000 N 
ATOM     11  C   UNL     1       0.751  11.358  19.109  0.00  0.00    +0.000 C 
ATOM     12  C   UNL     1      -0.716  11.456  18.711  0.00  0.00    +0.000 C 
ATOM     13  N   UNL     1      -1.488  11.916  19.850  0.00  0.00    +0.000 N 
ATOM     14  N   UNL     1      -2.730  12.403  19.694  0.00  0.00    +0.000 NA
ATOM     15  C   UNL     1      -3.120  12.661  20.946  0.00  0.00    +0.000 A 
ATOM     16  C   UNL     1      -2.128  12.346  21.894  0.00  0.00    +0.000 A 
ATOM     17  C   UNL     1      -1.070  11.866  21.153  0.00  0.00    +0.000 A 
ATOM     18  C   UNL     1       0.284  11.369  21.530  0.00  0.00    +0.000 C 
ATOM     19  H   UNL     1       1.858   9.145  18.651  0.00  0.00    +0.000 HD
ENDBRANCH   5   7
BRANCH   1  21
ATOM     20  C   UNL     1       4.318   3.473  17.083  0.00  0.00    +0.000 C 
ATOM     21  C   UNL     1       3.929   4.950  17.018  0.00  0.00    +0.000 C 
BRANCH  21  22
ATOM     22  S   UNL     1       5.321   6.025  16.518  0.00  0.00    +0.000 S 
BRANCH  22  23
ATOM     23  C   UNL     1       6.439   5.848  17.817  0.00  0.00    +0.000 A 
ATOM     24  N   UNL     1       6.532   4.838  18.652  0.00  0.00    +0.000 NA
ATOM     25  N   UNL     1       7.581   5.099  19.507  0.00  0.00    +0.000 NA
ATOM     26  C   UNL     1       8.100   6.255  19.157  0.00  0.00    +0.000 A 
ATOM     27  N   UNL     1       7.401   6.769  18.106  0.00  0.00    +0.000 N 
ATOM     28  C   UNL     1       7.631   8.041  17.476  0.00  0.00    +0.000 C 
ENDBRANCH  22  23
ENDBRANCH  21  22
ENDBRANCH   1  21
TORSDOF 4
ENDMDL
