MODEL 1
REMARK VINA RESULT:     -10.4      0.000      0.000
REMARK  Name = 
REMARK  9 active torsions:
REMARK  status: ('A' for Active; 'I' for Inactive)
REMARK    1  A    between atoms: C_1  and  C_2
REMARK    2  A    between atoms: C_6  and  C_7
REMARK    3  A    between atoms: C_7  and  C_8
REMARK    4  A    between atoms: C_8  and  C_9
REMARK    5  A    between atoms: C_8  and  C_10
REMARK    6  A    between atoms: C_14  and  N_15
REMARK    7  A    between atoms: C_20  and  C_21
REMARK    8  A    between atoms: C_26  and  O_27
REMARK    9  A    between atoms: C_30  and  C_31
REMARK                            x       y       z     vdW  Elec       q    Type
REMARK                         _______ _______ _______ _____ _____    ______ ____
ROOT
ATOM      1  N   UNL     1       2.156   7.786  19.137  0.00  0.00    +0.000 N 
ATOM      2  C   UNL     1       1.522   7.967  20.427  0.00  0.00    +0.000 C 
ATOM      3  C   UNL     1       0.915   9.328  20.321  0.00  0.00    +0.000 A 
ATOM      4  C   UNL     1       1.141   9.852  19.047  0.00  0.00    +0.000 A 
ATOM      5  C   UNL     1       0.722  11.128  18.682  0.00  0.00    +0.000 A 
ATOM      6  C   UNL     1       0.075  11.909  19.650  0.00  0.00    +0.000 A 
ATOM      7  C   UNL     1      -0.199  11.342  20.923  0.00  0.00    +0.000 A 
ATOM      8  C   UNL     1       0.205  10.040  21.275  0.00  0.00    +0.000 A 
ATOM      9  C   UNL     1       1.870   8.829  18.256  0.00  0.00    +0.000 C 
ATOM     10  O   UNL     1       2.170   8.975  17.091  0.00  0.00    +0.000 OA
ENDROOT
BRANCH   6  11
ATOM     11  C   UNL     1      -0.405  13.319  19.455  0.00  0.00    +0.000 C 
ATOM     12  O   UNL     1      -1.565  13.565  19.795  0.00  0.00    +0.000 OA
ATOM     13  N   UNL     1       0.428  14.331  19.005  0.00  0.00    +0.000 N 
ATOM     14  C   UNL     1      -0.026  15.716  19.088  0.00  0.00    +0.000 C 
ATOM     15  C   UNL     1       1.158  16.578  18.669  0.00  0.00    +0.000 C 
ATOM     16  C   UNL     1       2.365  15.667  18.858  0.00  0.00    +0.000 C 
ATOM     17  C   UNL     1       1.809  14.276  18.561  0.00  0.00    +0.000 C 
BRANCH  16  18
ATOM     18  O   UNL     1       3.433  16.029  18.000  0.00  0.00    +0.000 OA
ATOM     19  H   UNL     1       4.264  15.699  18.382  0.00  0.00    +0.000 HD
ENDBRANCH  16  18
ENDBRANCH   6  11
BRANCH   1  24
ATOM     20  C   UNL     1       4.452   5.196  17.730  0.00  0.00    +0.000 A 
ATOM     21  C   UNL     1       3.693   4.044  17.994  0.00  0.00    +0.000 A 
ATOM     22  C   UNL     1       2.477   4.132  18.663  0.00  0.00    +0.000 A 
ATOM     23  C   UNL     1       1.993   5.377  19.053  0.00  0.00    +0.000 A 
ATOM     24  C   UNL     1       2.745   6.538  18.841  0.00  0.00    +0.000 A 
ATOM     25  C   UNL     1       3.989   6.441  18.211  0.00  0.00    +0.000 A 
BRANCH  20  26
ATOM     26  C   UNL     1       5.720   5.123  16.885  0.00  0.00    +0.000 C 
ATOM     27  C   UNL     1       6.869   4.495  17.690  0.00  0.00    +0.000 C 
BRANCH  26  28
ATOM     28  C   UNL     1       5.547   4.332  15.566  0.00  0.00    +0.000 C 
BRANCH  28  34
ATOM     29  C   UNL     1       5.572   3.246  12.496  0.00  0.00    +0.000 C 
ATOM     30  C   UNL     1       6.504   4.211  13.123  0.00  0.00    +0.000 A 
ATOM     31  C   UNL     1       7.605   4.811  12.553  0.00  0.00    +0.000 A 
ATOM     32  N   UNL     1       8.162   5.590  13.521  0.00  0.00    +0.000 N 
ATOM     33  N   UNL     1       7.508   5.540  14.691  0.00  0.00    +0.000 NA
ATOM     34  C   UNL     1       6.486   4.707  14.460  0.00  0.00    +0.000 A 
ATOM     35  H   UNL     1       8.994   6.168  13.459  0.00  0.00    +0.000 HD
ENDBRANCH  28  34
ENDBRANCH  26  28
ENDBRANCH  20  26
ENDBRANCH   1  24
BRANCH   8  36
ATOM     36  C   UNL     1      -0.147   9.469  22.625  0.00  0.00    +0.000 C 
ATOM     37  F   UNL     1      -0.821   8.288  22.556  0.00  0.00    +0.000 F 
ATOM     38  F   UNL     1       0.950   9.222  23.389  0.00  0.00    +0.000 F 
ATOM     39  F   UNL     1      -0.940  10.302  23.351  0.00  0.00    +0.000 F 
ENDBRANCH   8  36
TORSDOF 7
ENDMDL
MODEL 2
REMARK VINA RESULT:     -10.2      1.471      2.359
REMARK  Name = 
REMARK  9 active torsions:
REMARK  status: ('A' for Active; 'I' for Inactive)
REMARK    1  A    between atoms: C_1  and  C_2
REMARK    2  A    between atoms: C_6  and  C_7
REMARK    3  A    between atoms: C_7  and  C_8
REMARK    4  A    between atoms: C_8  and  C_9
REMARK    5  A    between atoms: C_8  and  C_10
REMARK    6  A    between atoms: C_14  and  N_15
REMARK    7  A    between atoms: C_20  and  C_21
REMARK    8  A    between atoms: C_26  and  O_27
REMARK    9  A    between atoms: C_30  and  C_31
REMARK                            x       y       z     vdW  Elec       q    Type
REMARK                         _______ _______ _______ _____ _____    ______ ____
ROOT
ATOM      1  N   UNL     1       2.437   7.395  19.345  0.00  0.00    +0.000 N 
ATOM      2  C   UNL     1       1.689   7.704  20.547  0.00  0.00    +0.000 C 
ATOM      3  C   UNL     1       1.062   9.022  20.229  0.00  0.00    +0.000 A 
ATOM      4  C   UNL     1       1.386   9.401  18.926  0.00  0.00    +0.000 A 
ATOM      5  C   UNL     1       0.971  10.611  18.379  0.00  0.00    +0.000 A 
ATOM      6  C   UNL     1       0.223  11.477  19.189  0.00  0.00    +0.000 A 
ATOM      7  C   UNL     1      -0.149  11.053  20.493  0.00  0.00    +0.000 A 
ATOM      8  C   UNL     1       0.254   9.815  21.029  0.00  0.00    +0.000 A 
ATOM      9  C   UNL     1       2.206   8.319  18.326  0.00  0.00    +0.000 C 
ATOM     10  O   UNL     1       2.602   8.339  17.182  0.00  0.00    +0.000 OA
ENDROOT
BRANCH   6  11
ATOM     11  C   UNL     1      -0.272  12.838  18.789  0.00  0.00    +0.000 C 
ATOM     12  O   UNL     1      -1.429  12.910  18.368  0.00  0.00    +0.000 OA
ATOM     13  N   UNL     1       0.488  13.984  18.964  0.00  0.00    +0.000 N 
ATOM     14  C   UNL     1      -0.147  15.289  18.801  0.00  0.00    +0.000 C 
ATOM     15  C   UNL     1       0.896  16.323  19.209  0.00  0.00    +0.000 C 
ATOM     16  C   UNL     1       1.886  15.536  20.058  0.00  0.00    +0.000 C 
ATOM     17  C   UNL     1       1.850  14.140  19.442  0.00  0.00    +0.000 C 
BRANCH  16  18
ATOM     18  O   UNL     1       3.178  16.118  20.030  0.00  0.00    +0.000 OA
ATOM     19  H   UNL     1       3.644  15.804  19.235  0.00  0.00    +0.000 HD
ENDBRANCH  16  18
ENDBRANCH   6  11
BRANCH   1  24
ATOM     20  C   UNL     1       4.442   4.532  18.025  0.00  0.00    +0.000 A 
ATOM     21  C   UNL     1       4.057   3.537  18.940  0.00  0.00    +0.000 A 
ATOM     22  C   UNL     1       3.193   3.832  19.988  0.00  0.00    +0.000 A 
ATOM     23  C   UNL     1       2.683   5.120  20.120  0.00  0.00    +0.000 A 
ATOM     24  C   UNL     1       3.080   6.142  19.250  0.00  0.00    +0.000 A 
ATOM     25  C   UNL     1       3.986   5.854  18.225  0.00  0.00    +0.000 A 
BRANCH  20  26
ATOM     26  C   UNL     1       5.285   4.188  16.801  0.00  0.00    +0.000 C 
ATOM     27  C   UNL     1       4.906   5.086  15.614  0.00  0.00    +0.000 C 
BRANCH  26  28
ATOM     28  C   UNL     1       6.810   4.299  17.042  0.00  0.00    +0.000 C 
BRANCH  28  34
ATOM     29  C   UNL     1       7.730   5.526  19.914  0.00  0.00    +0.000 C 
ATOM     30  C   UNL     1       7.698   6.214  18.603  0.00  0.00    +0.000 A 
ATOM     31  C   UNL     1       8.005   7.530  18.335  0.00  0.00    +0.000 A 
ATOM     32  N   UNL     1       7.801   7.707  17.000  0.00  0.00    +0.000 N 
ATOM     33  N   UNL     1       7.377   6.601  16.371  0.00  0.00    +0.000 NA
ATOM     34  C   UNL     1       7.319   5.677  17.339  0.00  0.00    +0.000 A 
ATOM     35  H   UNL     1       7.917   8.556  16.456  0.00  0.00    +0.000 HD
ENDBRANCH  28  34
ENDBRANCH  26  28
ENDBRANCH  20  26
ENDBRANCH   1  24
BRANCH   8  36
ATOM     36  C   UNL     1      -0.202   9.393  22.403  0.00  0.00    +0.000 C 
ATOM     37  F   UNL     1      -0.901   8.224  22.407  0.00  0.00    +0.000 F 
ATOM     38  F   UNL     1       0.836   9.204  23.261  0.00  0.00    +0.000 F 
ATOM     39  F   UNL     1      -1.018  10.312  22.985  0.00  0.00    +0.000 F 
ENDBRANCH   8  36
TORSDOF 7
ENDMDL
MODEL 3
REMARK VINA RESULT:     -10.1      1.715      2.470
REMARK  Name = 
REMARK  9 active torsions:
REMARK  status: ('A' for Active; 'I' for Inactive)
REMARK    1  A    between atoms: C_1  and  C_2
REMARK    2  A    between atoms: C_6  and  C_7
REMARK    3  A    between atoms: C_7  and  C_8
REMARK    4  A    between atoms: C_8  and  C_9
REMARK    5  A    between atoms: C_8  and  C_10
REMARK    6  A    between atoms: C_14  and  N_15
REMARK    7  A    between atoms: C_20  and  C_21
REMARK    8  A    between atoms: C_26  and  O_27
REMARK    9  A    between atoms: C_30  and  C_31
REMARK                            x       y       z     vdW  Elec       q    Type
REMARK                         _______ _______ _______ _____ _____    ______ ____
ROOT
ATOM      1  N   UNL     1       2.153   8.015  19.231  0.00  0.00    +0.000 N 
ATOM      2  C   UNL     1       1.503   8.143  20.520  0.00  0.00    +0.000 C 
ATOM      3  C   UNL     1       0.798   9.456  20.419  0.00  0.00    +0.000 A 
ATOM      4  C   UNL     1       0.989  10.001  19.149  0.00  0.00    +0.000 A 
ATOM      5  C   UNL     1       0.479  11.245  18.789  0.00  0.00    +0.000 A 
ATOM      6  C   UNL     1      -0.227  11.971  19.758  0.00  0.00    +0.000 A 
ATOM      7  C   UNL     1      -0.464  11.379  21.027  0.00  0.00    +0.000 A 
ATOM      8  C   UNL     1       0.035  10.109  21.374  0.00  0.00    +0.000 A 
ATOM      9  C   UNL     1       1.794   9.039  18.355  0.00  0.00    +0.000 C 
ATOM     10  O   UNL     1       2.086   9.212  17.192  0.00  0.00    +0.000 OA
ENDROOT
BRANCH   6  11
ATOM     11  C   UNL     1      -0.809  13.343  19.569  0.00  0.00    +0.000 C 
ATOM     12  O   UNL     1      -1.992  13.496  19.885  0.00  0.00    +0.000 OA
ATOM     13  N   UNL     1      -0.046  14.421  19.148  0.00  0.00    +0.000 N 
ATOM     14  C   UNL     1      -0.606  15.766  19.237  0.00  0.00    +0.000 C 
ATOM     15  C   UNL     1       0.518  16.722  18.855  0.00  0.00    +0.000 C 
ATOM     16  C   UNL     1       1.786  15.902  19.060  0.00  0.00    +0.000 C 
ATOM     17  C   UNL     1       1.344  14.478  18.735  0.00  0.00    +0.000 C 
BRANCH  16  18
ATOM     18  O   UNL     1       2.842  16.355  18.231  0.00  0.00    +0.000 OA
ATOM     19  H   UNL     1       2.470  16.928  17.539  0.00  0.00    +0.000 HD
ENDBRANCH  16  18
ENDBRANCH   6  11
BRANCH   1  24
ATOM     20  C   UNL     1       4.255   5.479  17.469  0.00  0.00    +0.000 A 
ATOM     21  C   UNL     1       3.891   4.332  18.192  0.00  0.00    +0.000 A 
ATOM     22  C   UNL     1       3.008   4.417  19.262  0.00  0.00    +0.000 A 
ATOM     23  C   UNL     1       2.458   5.648  19.607  0.00  0.00    +0.000 A 
ATOM     24  C   UNL     1       2.833   6.816  18.932  0.00  0.00    +0.000 A 
ATOM     25  C   UNL     1       3.758   6.734  17.887  0.00  0.00    +0.000 A 
BRANCH  20  26
ATOM     26  C   UNL     1       5.121   5.375  16.217  0.00  0.00    +0.000 C 
ATOM     27  C   UNL     1       5.101   6.697  15.435  0.00  0.00    +0.000 C 
BRANCH  26  28
ATOM     28  C   UNL     1       6.592   4.990  16.505  0.00  0.00    +0.000 C 
BRANCH  28  34
ATOM     29  C   UNL     1       7.704   7.947  17.294  0.00  0.00    +0.000 C 
ATOM     30  C   UNL     1       7.641   6.744  18.155  0.00  0.00    +0.000 A 
ATOM     31  C   UNL     1       8.085   6.611  19.452  0.00  0.00    +0.000 A 
ATOM     32  N   UNL     1       7.841   5.321  19.811  0.00  0.00    +0.000 N 
ATOM     33  N   UNL     1       7.272   4.592  18.840  0.00  0.00    +0.000 NA
ATOM     34  C   UNL     1       7.135   5.453  17.823  0.00  0.00    +0.000 A 
ATOM     35  H   UNL     1       8.049   4.867  20.694  0.00  0.00    +0.000 HD
ENDBRANCH  28  34
ENDBRANCH  26  28
ENDBRANCH  20  26
ENDBRANCH   1  24
BRANCH   8  36
ATOM     36  C   UNL     1      -0.279   9.506  22.720  0.00  0.00    +0.000 C 
ATOM     37  F   UNL     1      -0.933   8.314  22.642  0.00  0.00    +0.000 F 
ATOM     38  F   UNL     1       0.838   9.265  23.457  0.00  0.00    +0.000 F 
ATOM     39  F   UNL     1      -1.072  10.310  23.477  0.00  0.00    +0.000 F 
ENDBRANCH   8  36
TORSDOF 7
ENDMDL
MODEL 4
REMARK VINA RESULT:     -10.0      1.229      1.746
REMARK  Name = 
REMARK  9 active torsions:
REMARK  status: ('A' for Active; 'I' for Inactive)
REMARK    1  A    between atoms: C_1  and  C_2
REMARK    2  A    between atoms: C_6  and  C_7
REMARK    3  A    between atoms: C_7  and  C_8
REMARK    4  A    between atoms: C_8  and  C_9
REMARK    5  A    between atoms: C_8  and  C_10
REMARK    6  A    between atoms: C_14  and  N_15
REMARK    7  A    between atoms: C_20  and  C_21
REMARK    8  A    between atoms: C_26  and  O_27
REMARK    9  A    between atoms: C_30  and  C_31
REMARK                            x       y       z     vdW  Elec       q    Type
REMARK                         _______ _______ _______ _____ _____    ______ ____
ROOT
ATOM      1  N   UNL     1       1.912   7.239  20.012  0.00  0.00    +0.000 N 
ATOM      2  C   UNL     1       1.219   7.754  21.175  0.00  0.00    +0.000 C 
ATOM      3  C   UNL     1       0.931   9.171  20.802  0.00  0.00    +0.000 A 
ATOM      4  C   UNL     1       1.378   9.421  19.504  0.00  0.00    +0.000 A 
ATOM      5  C   UNL     1       1.278  10.677  18.911  0.00  0.00    +0.000 A 
ATOM      6  C   UNL     1       0.730  11.720  19.670  0.00  0.00    +0.000 A 
ATOM      7  C   UNL     1       0.226  11.438  20.968  0.00  0.00    +0.000 A 
ATOM      8  C   UNL     1       0.307  10.158  21.550  0.00  0.00    +0.000 A 
ATOM      9  C   UNL     1       1.939   8.158  18.963  0.00  0.00    +0.000 C 
ATOM     10  O   UNL     1       2.367   8.046  17.835  0.00  0.00    +0.000 OA
ENDROOT
BRANCH   6  11
ATOM     11  C   UNL     1       0.584  13.145  19.218  0.00  0.00    +0.000 C 
ATOM     12  O   UNL     1      -0.499  13.693  19.442  0.00  0.00    +0.000 OA
ATOM     13  N   UNL     1       1.634  13.857  18.660  0.00  0.00    +0.000 N 
ATOM     14  C   UNL     1       1.501  15.301  18.488  0.00  0.00    +0.000 C 
ATOM     15  C   UNL     1       2.858  15.799  18.007  0.00  0.00    +0.000 C 
ATOM     16  C   UNL     1       3.824  14.694  18.415  0.00  0.00    +0.000 C 
ATOM     17  C   UNL     1       2.977  13.428  18.317  0.00  0.00    +0.000 C 
BRANCH  16  18
ATOM     18  O   UNL     1       4.966  14.660  17.577  0.00  0.00    +0.000 OA
ATOM     19  H   UNL     1       5.754  14.845  18.116  0.00  0.00    +0.000 HD
ENDBRANCH  16  18
ENDBRANCH   6  11
BRANCH   1  24
ATOM     20  C   UNL     1       3.329   3.967  18.897  0.00  0.00    +0.000 A 
ATOM     21  C   UNL     1       2.603   3.102  19.733  0.00  0.00    +0.000 A 
ATOM     22  C   UNL     1       1.706   3.605  20.668  0.00  0.00    +0.000 A 
ATOM     23  C   UNL     1       1.505   4.979  20.762  0.00  0.00    +0.000 A 
ATOM     24  C   UNL     1       2.244   5.868  19.972  0.00  0.00    +0.000 A 
ATOM     25  C   UNL     1       3.180   5.362  19.066  0.00  0.00    +0.000 A 
BRANCH  20  26
ATOM     26  C   UNL     1       4.217   3.419  17.784  0.00  0.00    +0.000 C 
ATOM     27  C   UNL     1       3.855   1.958  17.474  0.00  0.00    +0.000 C 
BRANCH  26  28
ATOM     28  C   UNL     1       4.149   4.237  16.471  0.00  0.00    +0.000 C 
BRANCH  28  34
ATOM     29  C   UNL     1       5.488   3.702  13.552  0.00  0.00    +0.000 C 
ATOM     30  C   UNL     1       6.054   4.478  14.680  0.00  0.00    +0.000 A 
ATOM     31  C   UNL     1       7.285   5.092  14.746  0.00  0.00    +0.000 A 
ATOM     32  N   UNL     1       7.368   5.652  15.984  0.00  0.00    +0.000 N 
ATOM     33  N   UNL     1       6.281   5.444  16.741  0.00  0.00    +0.000 NA
ATOM     34  C   UNL     1       5.464   4.735  15.951  0.00  0.00    +0.000 A 
ATOM     35  H   UNL     1       8.140   6.174  16.385  0.00  0.00    +0.000 HD
ENDBRANCH  28  34
ENDBRANCH  26  28
ENDBRANCH  20  26
ENDBRANCH   1  24
BRANCH   8  36
ATOM     36  C   UNL     1      -0.280   9.900  22.913  0.00  0.00    +0.000 C 
ATOM     37  F   UNL     1       0.650   9.571  23.853  0.00  0.00    +0.000 F 
ATOM     38  F   UNL     1      -0.939  10.980  23.410  0.00  0.00    +0.000 F 
ATOM     39  F   UNL     1      -1.174   8.875  22.908  0.00  0.00    +0.000 F 
ENDBRANCH   8  36
TORSDOF 7
ENDMDL
MODEL 5
REMARK VINA RESULT:      -9.9      0.802      1.006
REMARK  Name = 
REMARK  9 active torsions:
REMARK  status: ('A' for Active; 'I' for Inactive)
REMARK    1  A    between atoms: C_1  and  C_2
REMARK    2  A    between atoms: C_6  and  C_7
REMARK    3  A    between atoms: C_7  and  C_8
REMARK    4  A    between atoms: C_8  and  C_9
REMARK    5  A    between atoms: C_8  and  C_10
REMARK    6  A    between atoms: C_14  and  N_15
REMARK    7  A    between atoms: C_20  and  C_21
REMARK    8  A    between atoms: C_26  and  O_27
REMARK    9  A    between atoms: C_30  and  C_31
REMARK                            x       y       z     vdW  Elec       q    Type
REMARK                         _______ _______ _______ _____ _____    ______ ____
ROOT
ATOM      1  N   UNL     1       2.150   8.022  18.966  0.00  0.00    +0.000 N 
ATOM      2  C   UNL     1       1.522   8.090  20.270  0.00  0.00    +0.000 C 
ATOM      3  C   UNL     1       0.971   9.478  20.311  0.00  0.00    +0.000 A 
ATOM      4  C   UNL     1       1.220  10.125  19.100  0.00  0.00    +0.000 A 
ATOM      5  C   UNL     1       0.854  11.449  18.875  0.00  0.00    +0.000 A 
ATOM      6  C   UNL     1       0.237  12.147  19.922  0.00  0.00    +0.000 A 
ATOM      7  C   UNL     1      -0.063  11.459  21.128  0.00  0.00    +0.000 A 
ATOM      8  C   UNL     1       0.288  10.112  21.338  0.00  0.00    +0.000 A 
ATOM      9  C   UNL     1       1.909   9.164  18.203  0.00  0.00    +0.000 C 
ATOM     10  O   UNL     1       2.216   9.421  17.059  0.00  0.00    +0.000 OA
ENDROOT
BRANCH   6  11
ATOM     11  C   UNL     1      -0.185  13.588  19.880  0.00  0.00    +0.000 C 
ATOM     12  O   UNL     1      -1.397  13.813  19.827  0.00  0.00    +0.000 OA
ATOM     13  N   UNL     1       0.722  14.631  19.990  0.00  0.00    +0.000 N 
ATOM     14  C   UNL     1       0.225  15.987  20.205  0.00  0.00    +0.000 C 
ATOM     15  C   UNL     1       1.453  16.859  20.436  0.00  0.00    +0.000 C 
ATOM     16  C   UNL     1       2.538  15.870  20.841  0.00  0.00    +0.000 C 
ATOM     17  C   UNL     1       2.171  14.604  20.070  0.00  0.00    +0.000 C 
BRANCH  16  18
ATOM     18  O   UNL     1       3.832  16.353  20.523  0.00  0.00    +0.000 OA
ATOM     19  H   UNL     1       3.748  17.252  20.162  0.00  0.00    +0.000 HD
ENDBRANCH  16  18
ENDBRANCH   6  11
BRANCH   1  24
ATOM     20  C   UNL     1       4.452   5.494  17.461  0.00  0.00    +0.000 A 
ATOM     21  C   UNL     1       3.580   4.394  17.398  0.00  0.00    +0.000 A 
ATOM     22  C   UNL     1       2.283   4.487  17.887  0.00  0.00    +0.000 A 
ATOM     23  C   UNL     1       1.832   5.690  18.422  0.00  0.00    +0.000 A 
ATOM     24  C   UNL     1       2.689   6.790  18.537  0.00  0.00    +0.000 A 
ATOM     25  C   UNL     1       4.008   6.679  18.088  0.00  0.00    +0.000 A 
BRANCH  20  26
ATOM     26  C   UNL     1       5.831   5.439  16.811  0.00  0.00    +0.000 C 
ATOM     27  C   UNL     1       6.921   5.228  17.874  0.00  0.00    +0.000 C 
BRANCH  26  28
ATOM     28  C   UNL     1       5.970   4.338  15.731  0.00  0.00    +0.000 C 
BRANCH  28  34
ATOM     29  C   UNL     1       5.460   3.381  12.661  0.00  0.00    +0.000 C 
ATOM     30  C   UNL     1       6.516   4.291  13.163  0.00  0.00    +0.000 A 
ATOM     31  C   UNL     1       7.531   4.882  12.444  0.00  0.00    +0.000 A 
ATOM     32  N   UNL     1       8.264   5.603  13.336  0.00  0.00    +0.000 N 
ATOM     33  N   UNL     1       7.806   5.524  14.594  0.00  0.00    +0.000 NA
ATOM     34  C   UNL     1       6.731   4.732  14.501  0.00  0.00    +0.000 A 
ATOM     35  H   UNL     1       9.095   6.158  13.160  0.00  0.00    +0.000 HD
ENDBRANCH  28  34
ENDBRANCH  26  28
ENDBRANCH  20  26
ENDBRANCH   1  24
BRANCH   8  36
ATOM     36  C   UNL     1      -0.090   9.415  22.619  0.00  0.00    +0.000 C 
ATOM     37  F   UNL     1       0.982   9.046  23.375  0.00  0.00    +0.000 F 
ATOM     38  F   UNL     1      -0.860  10.191  23.428  0.00  0.00    +0.000 F 
ATOM     39  F   UNL     1      -0.795   8.272  22.401  0.00  0.00    +0.000 F 
ENDBRANCH   8  36
TORSDOF 7
ENDMDL
MODEL 6
REMARK VINA RESULT:      -9.8      1.421      2.018
REMARK  Name = 
REMARK  9 active torsions:
REMARK  status: ('A' for Active; 'I' for Inactive)
REMARK    1  A    between atoms: C_1  and  C_2
REMARK    2  A    between atoms: C_6  and  C_7
REMARK    3  A    between atoms: C_7  and  C_8
REMARK    4  A    between atoms: C_8  and  C_9
REMARK    5  A    between atoms: C_8  and  C_10
REMARK    6  A    between atoms: C_14  and  N_15
REMARK    7  A    between atoms: C_20  and  C_21
REMARK    8  A    between atoms: C_26  and  O_27
REMARK    9  A    between atoms: C_30  and  C_31
REMARK                            x       y       z     vdW  Elec       q    Type
REMARK                         _______ _______ _______ _____ _____    ______ ____
ROOT
ATOM      1  N   UNL     1       1.841   7.297  20.143  0.00  0.00    +0.000 N 
ATOM      2  C   UNL     1       1.138   7.816  21.299  0.00  0.00    +0.000 C 
ATOM      3  C   UNL     1       0.847   9.230  20.915  0.00  0.00    +0.000 A 
ATOM      4  C   UNL     1       1.302   9.474  19.619  0.00  0.00    +0.000 A 
ATOM      5  C   UNL     1       1.201  10.726  19.019  0.00  0.00    +0.000 A 
ATOM      6  C   UNL     1       0.644  11.771  19.768  0.00  0.00    +0.000 A 
ATOM      7  C   UNL     1       0.132  11.495  21.064  0.00  0.00    +0.000 A 
ATOM      8  C   UNL     1       0.215  10.219  21.653  0.00  0.00    +0.000 A 
ATOM      9  C   UNL     1       1.872   8.210  19.089  0.00  0.00    +0.000 C 
ATOM     10  O   UNL     1       2.307   8.094  17.965  0.00  0.00    +0.000 OA
ENDROOT
BRANCH   6  11
ATOM     11  C   UNL     1       0.495  13.193  19.307  0.00  0.00    +0.000 C 
ATOM     12  O   UNL     1      -0.580  13.749  19.549  0.00  0.00    +0.000 OA
ATOM     13  N   UNL     1       1.537  13.896  18.721  0.00  0.00    +0.000 N 
ATOM     14  C   UNL     1       1.407  15.339  18.539  0.00  0.00    +0.000 C 
ATOM     15  C   UNL     1       2.757  15.825  18.025  0.00  0.00    +0.000 C 
ATOM     16  C   UNL     1       3.725  14.719  18.422  0.00  0.00    +0.000 C 
ATOM     17  C   UNL     1       2.870  13.456  18.353  0.00  0.00    +0.000 C 
BRANCH  16  18
ATOM     18  O   UNL     1       4.849  14.672  17.560  0.00  0.00    +0.000 OA
ATOM     19  H   UNL     1       5.252  13.788  17.622  0.00  0.00    +0.000 HD
ENDBRANCH  16  18
ENDBRANCH   6  11
BRANCH   1  24
ATOM     20  C   UNL     1       3.612   4.100  19.371  0.00  0.00    +0.000 A 
ATOM     21  C   UNL     1       2.633   3.184  19.789  0.00  0.00    +0.000 A 
ATOM     22  C   UNL     1       1.442   3.627  20.353  0.00  0.00    +0.000 A 
ATOM     23  C   UNL     1       1.205   4.992  20.482  0.00  0.00    +0.000 A 
ATOM     24  C   UNL     1       2.178   5.928  20.114  0.00  0.00    +0.000 A 
ATOM     25  C   UNL     1       3.395   5.479  19.591  0.00  0.00    +0.000 A 
BRANCH  20  26
ATOM     26  C   UNL     1       4.863   3.628  18.635  0.00  0.00    +0.000 C 
ATOM     27  C   UNL     1       4.508   3.145  17.221  0.00  0.00    +0.000 C 
BRANCH  26  28
ATOM     28  C   UNL     1       5.969   4.706  18.529  0.00  0.00    +0.000 C 
BRANCH  28  34
ATOM     29  C   UNL     1       4.763   6.662  16.222  0.00  0.00    +0.000 C 
ATOM     30  C   UNL     1       5.958   5.791  16.138  0.00  0.00    +0.000 A 
ATOM     31  C   UNL     1       6.779   5.589  15.050  0.00  0.00    +0.000 A 
ATOM     32  N   UNL     1       7.720   4.686  15.442  0.00  0.00    +0.000 N 
ATOM     33  N   UNL     1       7.574   4.275  16.709  0.00  0.00    +0.000 NA
ATOM     34  C   UNL     1       6.504   4.950  17.151  0.00  0.00    +0.000 A 
ATOM     35  H   UNL     1       8.480   4.296  14.894  0.00  0.00    +0.000 HD
ENDBRANCH  28  34
ENDBRANCH  26  28
ENDBRANCH  20  26
ENDBRANCH   1  24
BRANCH   8  36
ATOM     36  C   UNL     1      -0.382   9.966  23.015  0.00  0.00    +0.000 C 
ATOM     37  F   UNL     1      -1.050  11.038  23.523  0.00  0.00    +0.000 F 
ATOM     38  F   UNL     1      -1.278   8.943  23.009  0.00  0.00    +0.000 F 
ATOM     39  F   UNL     1       0.559   9.646  23.942  0.00  0.00    +0.000 F 
ENDBRANCH   8  36
TORSDOF 7
ENDMDL
MODEL 7
REMARK VINA RESULT:      -9.8      1.609      2.651
REMARK  Name = 
REMARK  9 active torsions:
REMARK  status: ('A' for Active; 'I' for Inactive)
REMARK    1  A    between atoms: C_1  and  C_2
REMARK    2  A    between atoms: C_6  and  C_7
REMARK    3  A    between atoms: C_7  and  C_8
REMARK    4  A    between atoms: C_8  and  C_9
REMARK    5  A    between atoms: C_8  and  C_10
REMARK    6  A    between atoms: C_14  and  N_15
REMARK    7  A    between atoms: C_20  and  C_21
REMARK    8  A    between atoms: C_26  and  O_27
REMARK    9  A    between atoms: C_30  and  C_31
REMARK                            x       y       z     vdW  Elec       q    Type
REMARK                         _______ _______ _______ _____ _____    ______ ____
ROOT
ATOM      1  N   UNL     1       2.540   7.253  18.648  0.00  0.00    +0.000 N 
ATOM      2  C   UNL     1       1.800   7.445  19.878  0.00  0.00    +0.000 C 
ATOM      3  C   UNL     1       1.364   8.872  19.795  0.00  0.00    +0.000 A 
ATOM      4  C   UNL     1       1.779   9.426  18.584  0.00  0.00    +0.000 A 
ATOM      5  C   UNL     1       1.546  10.759  18.257  0.00  0.00    +0.000 A 
ATOM      6  C   UNL     1       0.893  11.563  19.202  0.00  0.00    +0.000 A 
ATOM      7  C   UNL     1       0.425  10.972  20.405  0.00  0.00    +0.000 A 
ATOM      8  C   UNL     1       0.643   9.616  20.716  0.00  0.00    +0.000 A 
ATOM      9  C   UNL     1       2.467   8.364  17.808  0.00  0.00    +0.000 C 
ATOM     10  O   UNL     1       2.900   8.530  16.689  0.00  0.00    +0.000 OA
ENDROOT
BRANCH   6  11
ATOM     11  C   UNL     1       0.597  13.027  19.046  0.00  0.00    +0.000 C 
ATOM     12  O   UNL     1      -0.544  13.399  19.331  0.00  0.00    +0.000 OA
ATOM     13  N   UNL     1       1.572  13.947  18.691  0.00  0.00    +0.000 N 
ATOM     14  C   UNL     1       1.281  15.373  18.813  0.00  0.00    +0.000 C 
ATOM     15  C   UNL     1       2.584  16.101  18.502  0.00  0.00    +0.000 C 
ATOM     16  C   UNL     1       3.659  15.043  18.716  0.00  0.00    +0.000 C 
ATOM     17  C   UNL     1       2.961  13.743  18.324  0.00  0.00    +0.000 C 
BRANCH  16  18
ATOM     18  O   UNL     1       4.814  15.305  17.938  0.00  0.00    +0.000 OA
ATOM     19  H   UNL     1       5.474  15.748  18.499  0.00  0.00    +0.000 HD
ENDBRANCH  16  18
ENDBRANCH   6  11
BRANCH   1  24
ATOM     20  C   UNL     1       4.488   4.473  17.088  0.00  0.00    +0.000 A 
ATOM     21  C   UNL     1       3.699   3.382  17.489  0.00  0.00    +0.000 A 
ATOM     22  C   UNL     1       2.581   3.572  18.293  0.00  0.00    +0.000 A 
ATOM     23  C   UNL     1       2.223   4.858  18.685  0.00  0.00    +0.000 A 
ATOM     24  C   UNL     1       3.013   5.961  18.337  0.00  0.00    +0.000 A 
ATOM     25  C   UNL     1       4.164   5.762  17.568  0.00  0.00    +0.000 A 
BRANCH  20  26
ATOM     26  C   UNL     1       5.639   4.289  16.103  0.00  0.00    +0.000 C 
ATOM     27  C   UNL     1       5.114   4.252  14.660  0.00  0.00    +0.000 C 
BRANCH  26  28
ATOM     28  C   UNL     1       6.731   5.381  16.207  0.00  0.00    +0.000 C 
BRANCH  28  34
ATOM     29  C   UNL     1       7.677   8.173  17.590  0.00  0.00    +0.000 C 
ATOM     30  C   UNL     1       7.744   6.809  18.164  0.00  0.00    +0.000 A 
ATOM     31  C   UNL     1       8.266   6.432  19.382  0.00  0.00    +0.000 A 
ATOM     32  N   UNL     1       8.131   5.079  19.456  0.00  0.00    +0.000 N 
ATOM     33  N   UNL     1       7.562   4.538  18.369  0.00  0.00    +0.000 NA
ATOM     34  C   UNL     1       7.311   5.586  17.574  0.00  0.00    +0.000 A 
ATOM     35  H   UNL     1       8.417   4.461  20.208  0.00  0.00    +0.000 HD
ENDBRANCH  28  34
ENDBRANCH  26  28
ENDBRANCH  20  26
ENDBRANCH   1  24
BRANCH   8  36
ATOM     36  C   UNL     1       0.089   9.025  21.988  0.00  0.00    +0.000 C 
ATOM     37  F   UNL     1      -0.643   9.908  22.723  0.00  0.00    +0.000 F 
ATOM     38  F   UNL     1      -0.734   7.968  21.757  0.00  0.00    +0.000 F 
ATOM     39  F   UNL     1       1.066   8.576  22.820  0.00  0.00    +0.000 F 
ENDBRANCH   8  36
TORSDOF 7
ENDMDL
MODEL 8
REMARK VINA RESULT:      -9.7      1.496      2.169
REMARK  Name = 
REMARK  9 active torsions:
REMARK  status: ('A' for Active; 'I' for Inactive)
REMARK    1  A    between atoms: C_1  and  C_2
REMARK    2  A    between atoms: C_6  and  C_7
REMARK    3  A    between atoms: C_7  and  C_8
REMARK    4  A    between atoms: C_8  and  C_9
REMARK    5  A    between atoms: C_8  and  C_10
REMARK    6  A    between atoms: C_14  and  N_15
REMARK    7  A    between atoms: C_20  and  C_21
REMARK    8  A    between atoms: C_26  and  O_27
REMARK    9  A    between atoms: C_30  and  C_31
REMARK                            x       y       z     vdW  Elec       q    Type
REMARK                         _______ _______ _______ _____ _____    ______ ____
ROOT
ATOM      1  N   UNL     1       1.818   7.144  20.081  0.00  0.00    +0.000 N 
ATOM      2  C   UNL     1       1.145   7.712  21.231  0.00  0.00    +0.000 C 
ATOM      3  C   UNL     1       0.897   9.126  20.817  0.00  0.00    +0.000 A 
ATOM      4  C   UNL     1       1.347   9.326  19.511  0.00  0.00    +0.000 A 
ATOM      5  C   UNL     1       1.281  10.566  18.883  0.00  0.00    +0.000 A 
ATOM      6  C   UNL     1       0.766  11.646  19.613  0.00  0.00    +0.000 A 
ATOM      7  C   UNL     1       0.259  11.417  20.920  0.00  0.00    +0.000 A 
ATOM      8  C   UNL     1       0.305  10.152  21.538  0.00  0.00    +0.000 A 
ATOM      9  C   UNL     1       1.868   8.031  19.006  0.00  0.00    +0.000 C 
ATOM     10  O   UNL     1       2.288   7.874  17.880  0.00  0.00    +0.000 OA
ENDROOT
BRANCH   6  11
ATOM     11  C   UNL     1       0.660  13.061  19.121  0.00  0.00    +0.000 C 
ATOM     12  O   UNL     1      -0.423  13.629  19.283  0.00  0.00    +0.000 OA
ATOM     13  N   UNL     1       1.744  13.745  18.592  0.00  0.00    +0.000 N 
ATOM     14  C   UNL     1       1.639  15.186  18.378  0.00  0.00    +0.000 C 
ATOM     15  C   UNL     1       3.023  15.654  17.946  0.00  0.00    +0.000 C 
ATOM     16  C   UNL     1       3.954  14.547  18.423  0.00  0.00    +0.000 C 
ATOM     17  C   UNL     1       3.094  13.290  18.318  0.00  0.00    +0.000 C 
BRANCH  16  18
ATOM     18  O   UNL     1       5.131  14.477  17.636  0.00  0.00    +0.000 OA
ATOM     19  H   UNL     1       5.422  13.550  17.594  0.00  0.00    +0.000 HD
ENDBRANCH  16  18
ENDBRANCH   6  11
BRANCH   1  24
ATOM     20  C   UNL     1       3.183   3.811  19.089  0.00  0.00    +0.000 A 
ATOM     21  C   UNL     1       2.394   2.984  19.905  0.00  0.00    +0.000 A 
ATOM     22  C   UNL     1       1.472   3.531  20.790  0.00  0.00    +0.000 A 
ATOM     23  C   UNL     1       1.309   4.912  20.850  0.00  0.00    +0.000 A 
ATOM     24  C   UNL     1       2.109   5.764  20.080  0.00  0.00    +0.000 A 
ATOM     25  C   UNL     1       3.070   5.213  19.227  0.00  0.00    +0.000 A 
BRANCH  20  26
ATOM     26  C   UNL     1       4.103   3.217  18.027  0.00  0.00    +0.000 C 
ATOM     27  C   UNL     1       3.828   1.716  17.852  0.00  0.00    +0.000 C 
BRANCH  26  28
ATOM     28  C   UNL     1       3.990   3.907  16.645  0.00  0.00    +0.000 C 
BRANCH  28  34
ATOM     29  C   UNL     1       5.571   6.704  17.177  0.00  0.00    +0.000 C 
ATOM     30  C   UNL     1       5.959   5.603  16.265  0.00  0.00    +0.000 A 
ATOM     31  C   UNL     1       7.043   5.554  15.416  0.00  0.00    +0.000 A 
ATOM     32  N   UNL     1       6.966   4.361  14.763  0.00  0.00    +0.000 N 
ATOM     33  N   UNL     1       5.904   3.623  15.119  0.00  0.00    +0.000 NA
ATOM     34  C   UNL     1       5.284   4.367  16.045  0.00  0.00    +0.000 A 
ATOM     35  H   UNL     1       7.592   3.994  14.055  0.00  0.00    +0.000 HD
ENDBRANCH  28  34
ENDBRANCH  26  28
ENDBRANCH  20  26
ENDBRANCH   1  24
BRANCH   8  36
ATOM     36  C   UNL     1      -0.284   9.951  22.911  0.00  0.00    +0.000 C 
ATOM     37  F   UNL     1       0.639   9.616  23.855  0.00  0.00    +0.000 F 
ATOM     38  F   UNL     1      -0.904  11.066  23.381  0.00  0.00    +0.000 F 
ATOM     39  F   UNL     1      -1.213   8.957  22.936  0.00  0.00    +0.000 F 
ENDBRANCH   8  36
TORSDOF 7
ENDMDL
MODEL 9
REMARK VINA RESULT:      -9.6      1.290      2.317
REMARK  Name = 
REMARK  9 active torsions:
REMARK  status: ('A' for Active; 'I' for Inactive)
REMARK    1  A    between atoms: C_1  and  C_2
REMARK    2  A    between atoms: C_6  and  C_7
REMARK    3  A    between atoms: C_7  and  C_8
REMARK    4  A    between atoms: C_8  and  C_9
REMARK    5  A    between atoms: C_8  and  C_10
REMARK    6  A    between atoms: C_14  and  N_15
REMARK    7  A    between atoms: C_20  and  C_21
REMARK    8  A    between atoms: C_26  and  O_27
REMARK    9  A    between atoms: C_30  and  C_31
REMARK                            x       y       z     vdW  Elec       q    Type
REMARK                         _______ _______ _______ _____ _____    ______ ____
ROOT
ATOM      1  N   UNL     1       2.126   7.934  18.972  0.00  0.00    +0.000 N 
ATOM      2  C   UNL     1       1.505   8.026  20.278  0.00  0.00    +0.000 C 
ATOM      3  C   UNL     1       1.024   9.439  20.328  0.00  0.00    +0.000 A 
ATOM      4  C   UNL     1       1.302  10.080  19.119  0.00  0.00    +0.000 A 
ATOM      5  C   UNL     1       1.001  11.421  18.901  0.00  0.00    +0.000 A 
ATOM      6  C   UNL     1       0.423  12.144  19.954  0.00  0.00    +0.000 A 
ATOM      7  C   UNL     1       0.092  11.466  21.157  0.00  0.00    +0.000 A 
ATOM      8  C   UNL     1       0.376  10.102  21.359  0.00  0.00    +0.000 A 
ATOM      9  C   UNL     1       1.940   9.091  18.215  0.00  0.00    +0.000 C 
ATOM     10  O   UNL     1       2.257   9.338  17.072  0.00  0.00    +0.000 OA
ENDROOT
BRANCH   6  11
ATOM     11  C   UNL     1       0.072  13.604  19.920  0.00  0.00    +0.000 C 
ATOM     12  O   UNL     1       0.826  14.345  19.284  0.00  0.00    +0.000 OA
ATOM     13  N   UNL     1      -1.089  14.102  20.492  0.00  0.00    +0.000 N 
ATOM     14  C   UNL     1      -1.495  15.473  20.198  0.00  0.00    +0.000 C 
ATOM     15  C   UNL     1      -2.866  15.657  20.837  0.00  0.00    +0.000 C 
ATOM     16  C   UNL     1      -3.382  14.236  21.023  0.00  0.00    +0.000 C 
ATOM     17  C   UNL     1      -2.111  13.426  21.270  0.00  0.00    +0.000 C 
BRANCH  16  18
ATOM     18  O   UNL     1      -4.307  14.151  22.093  0.00  0.00    +0.000 OA
ATOM     19  H   UNL     1      -4.912  13.408  21.923  0.00  0.00    +0.000 HD
ENDBRANCH  16  18
ENDBRANCH   6  11
BRANCH   1  24
ATOM     20  C   UNL     1       4.318   5.295  17.492  0.00  0.00    +0.000 A 
ATOM     21  C   UNL     1       3.383   4.253  17.377  0.00  0.00    +0.000 A 
ATOM     22  C   UNL     1       2.077   4.418  17.824  0.00  0.00    +0.000 A 
ATOM     23  C   UNL     1       1.683   5.637  18.369  0.00  0.00    +0.000 A 
ATOM     24  C   UNL     1       2.602   6.679  18.536  0.00  0.00    +0.000 A 
ATOM     25  C   UNL     1       3.927   6.494  18.129  0.00  0.00    +0.000 A 
BRANCH  20  26
ATOM     26  C   UNL     1       5.713   5.167  16.889  0.00  0.00    +0.000 C 
ATOM     27  C   UNL     1       6.720   4.697  17.950  0.00  0.00    +0.000 C 
BRANCH  26  28
ATOM     28  C   UNL     1       5.783   4.205  15.677  0.00  0.00    +0.000 C 
BRANCH  28  34
ATOM     29  C   UNL     1       5.591   3.325  12.548  0.00  0.00    +0.000 C 
ATOM     30  C   UNL     1       6.557   4.262  13.168  0.00  0.00    +0.000 A 
ATOM     31  C   UNL     1       7.604   4.917  12.560  0.00  0.00    +0.000 A 
ATOM     32  N   UNL     1       8.223   5.640  13.534  0.00  0.00    +0.000 N 
ATOM     33  N   UNL     1       7.659   5.502  14.743  0.00  0.00    +0.000 NA
ATOM     34  C   UNL     1       6.632   4.669  14.532  0.00  0.00    +0.000 A 
ATOM     35  H   UNL     1       9.040   6.235  13.449  0.00  0.00    +0.000 HD
ENDBRANCH  28  34
ENDBRANCH  26  28
ENDBRANCH  20  26
ENDBRANCH   1  24
BRANCH   8  36
ATOM     36  C   UNL     1      -0.034   9.417  22.638  0.00  0.00    +0.000 C 
ATOM     37  F   UNL     1      -0.801  10.196  23.450  0.00  0.00    +0.000 F 
ATOM     38  F   UNL     1      -0.760   8.289  22.416  0.00  0.00    +0.000 F 
ATOM     39  F   UNL     1       1.034   9.043  23.392  0.00  0.00    +0.000 F 
ENDBRANCH   8  36
TORSDOF 7
ENDMDL
