MODEL 1
REMARK VINA RESULT:      -8.4      0.000      0.000
REMARK  Name = 
REMARK  8 active torsions:
REMARK  status: ('A' for Active; 'I' for Inactive)
REMARK    1  A    between atoms: C_1  and  C_2
REMARK    2  A    between atoms: C_2  and  S_3
REMARK    3  A    between atoms: C_2  and  C_10
REMARK    4  A    between atoms: S_3  and  C_4
REMARK    5  A    between atoms: N_8  and  C_9
REMARK    6  A    between atoms: C_14  and  N_15
REMARK    7  A    between atoms: C_16  and  C_18
REMARK    8  A    between atoms: C_22  and  C_23
REMARK                            x       y       z     vdW  Elec       q    Type
REMARK                         _______ _______ _______ _____ _____    ______ ____
ROOT
ATOM      1  C   UNL     1       4.613   5.272  17.135  0.00  0.00    +0.000 A 
ATOM      2  C   UNL     1       4.064   4.026  17.427  0.00  0.00    +0.000 A 
ATOM      3  N   UNL     1       2.991   3.833  18.217  0.00  0.00    +0.000 NA
ATOM      4  C   UNL     1       2.425   4.940  18.758  0.00  0.00    +0.000 A 
ATOM      5  C   UNL     1       2.860   6.243  18.524  0.00  0.00    +0.000 A 
ATOM      6  C   UNL     1       3.960   6.397  17.675  0.00  0.00    +0.000 A 
ENDROOT
BRANCH   5   7
ATOM      7  N   UNL     1       2.292   7.394  19.123  0.00  0.00    +0.000 N 
ATOM      8  C   UNL     1       1.978   8.574  18.476  0.00  0.00    +0.000 C 
ATOM      9  O   UNL     1       2.216   8.846  17.305  0.00  0.00    +0.000 OA
ATOM     10  H   UNL     1       2.039   7.344  20.108  0.00  0.00    +0.000 HD
BRANCH   8  11
ATOM     11  C   UNL     1       1.252   9.586  19.314  0.00  0.00    +0.000 A 
ATOM     12  C   UNL     1       0.937  10.820  18.756  0.00  0.00    +0.000 A 
ATOM     13  C   UNL     1       0.237  11.736  19.526  0.00  0.00    +0.000 A 
ATOM     14  C   UNL     1      -0.132  11.391  20.823  0.00  0.00    +0.000 A 
ATOM     15  C   UNL     1       0.212  10.130  21.325  0.00  0.00    +0.000 A 
ATOM     16  N   UNL     1       0.908   9.217  20.579  0.00  0.00    +0.000 NA
BRANCH  15  17
ATOM     17  C   UNL     1      -0.213   9.755  22.744  0.00  0.00    +0.000 C 
ATOM     18  F   UNL     1      -0.871  10.762  23.394  0.00  0.00    +0.000 F 
ATOM     19  F   UNL     1      -1.060   8.687  22.778  0.00  0.00    +0.000 F 
ATOM     20  F   UNL     1       0.840   9.433  23.544  0.00  0.00    +0.000 F 
ENDBRANCH  15  17
ENDBRANCH   8  11
ENDBRANCH   5   7
BRANCH   1  22
ATOM     21  C   UNL     1       7.099   5.695  17.246  0.00  0.00    +0.000 C 
ATOM     22  C   UNL     1       5.893   5.416  16.333  0.00  0.00    +0.000 C 
BRANCH  22  23
ATOM     23  S   UNL     1       6.295   3.933  15.343  0.00  0.00    +0.000 S 
BRANCH  23  24
ATOM     24  C   UNL     1       7.059   4.612  13.954  0.00  0.00    +0.000 A 
ATOM     25  N   UNL     1       7.987   5.540  13.928  0.00  0.00    +0.000 NA
ATOM     26  N   UNL     1       8.241   5.838  12.605  0.00  0.00    +0.000 NA
ATOM     27  C   UNL     1       7.475   5.065  11.870  0.00  0.00    +0.000 A 
ATOM     28  N   UNL     1       6.748   4.242  12.677  0.00  0.00    +0.000 N 
ATOM     29  C   UNL     1       5.843   3.213  12.241  0.00  0.00    +0.000 C 
ENDBRANCH  23  24
ENDBRANCH  22  23
ENDBRANCH   1  22
TORSDOF 6
ENDMDL
MODEL 2
REMARK VINA RESULT:      -8.1      4.962      9.383
REMARK  Name = 
REMARK  8 active torsions:
REMARK  status: ('A' for Active; 'I' for Inactive)
REMARK    1  A    between atoms: C_1  and  C_2
REMARK    2  A    between atoms: C_2  and  S_3
REMARK    3  A    between atoms: C_2  and  C_10
REMARK    4  A    between atoms: S_3  and  C_4
REMARK    5  A    between atoms: N_8  and  C_9
REMARK    6  A    between atoms: C_14  and  N_15
REMARK    7  A    between atoms: C_16  and  C_18
REMARK    8  A    between atoms: C_22  and  C_23
REMARK                            x       y       z     vdW  Elec       q    Type
REMARK                         _______ _______ _______ _____ _____    ______ ____
ROOT
ATOM      1  C   UNL     1      -0.290  10.528  20.825  0.00  0.00    +0.000 A 
ATOM      2  C   UNL     1      -0.233  10.560  22.215  0.00  0.00    +0.000 A 
ATOM      3  N   UNL     1       0.541   9.752  22.964  0.00  0.00    +0.000 NA
ATOM      4  C   UNL     1       1.306   8.851  22.298  0.00  0.00    +0.000 A 
ATOM      5  C   UNL     1       1.360   8.736  20.911  0.00  0.00    +0.000 A 
ATOM      6  C   UNL     1       0.561   9.614  20.173  0.00  0.00    +0.000 A 
ENDROOT
BRANCH   5   7
ATOM      7  N   UNL     1       2.128   7.766  20.221  0.00  0.00    +0.000 N 
ATOM      8  C   UNL     1       1.925   6.400  20.249  0.00  0.00    +0.000 C 
ATOM      9  O   UNL     1       1.108   5.801  20.939  0.00  0.00    +0.000 OA
ATOM     10  H   UNL     1       2.867   8.094  19.602  0.00  0.00    +0.000 HD
BRANCH   8  11
ATOM     11  C   UNL     1       2.790   5.607  19.313  0.00  0.00    +0.000 A 
ATOM     12  C   UNL     1       2.186   4.745  18.406  0.00  0.00    +0.000 A 
ATOM     13  C   UNL     1       2.991   4.043  17.521  0.00  0.00    +0.000 A 
ATOM     14  C   UNL     1       4.370   4.227  17.566  0.00  0.00    +0.000 A 
ATOM     15  C   UNL     1       4.917   5.113  18.502  0.00  0.00    +0.000 A 
ATOM     16  N   UNL     1       4.136   5.810  19.385  0.00  0.00    +0.000 NA
BRANCH  15  17
ATOM     17  C   UNL     1       6.430   5.322  18.530  0.00  0.00    +0.000 C 
ATOM     18  F   UNL     1       6.833   6.442  17.857  0.00  0.00    +0.000 F 
ATOM     19  F   UNL     1       6.922   5.462  19.794  0.00  0.00    +0.000 F 
ATOM     20  F   UNL     1       7.117   4.291  17.966  0.00  0.00    +0.000 F 
ENDBRANCH  15  17
ENDBRANCH   8  11
ENDBRANCH   5   7
BRANCH   1  22
ATOM     21  C   UNL     1      -0.859  12.867  20.065  0.00  0.00    +0.000 C 
ATOM     22  C   UNL     1      -1.269  11.384  20.043  0.00  0.00    +0.000 C 
BRANCH  22  23
ATOM     23  S   UNL     1      -1.419  10.890  18.289  0.00  0.00    +0.000 S 
BRANCH  23  24
ATOM     24  C   UNL     1      -3.042  11.336  17.916  0.00  0.00    +0.000 A 
ATOM     25  N   UNL     1      -3.948  11.807  18.741  0.00  0.00    +0.000 NA
ATOM     26  N   UNL     1      -5.126  11.940  18.034  0.00  0.00    +0.000 NA
ATOM     27  C   UNL     1      -4.890  11.566  16.797  0.00  0.00    +0.000 A 
ATOM     28  N   UNL     1      -3.578  11.222  16.666  0.00  0.00    +0.000 N 
ATOM     29  C   UNL     1      -2.926  10.821  15.448  0.00  0.00    +0.000 C 
ENDBRANCH  23  24
ENDBRANCH  22  23
ENDBRANCH   1  22
TORSDOF 6
ENDMDL
MODEL 3
REMARK VINA RESULT:      -8.0      5.153      9.466
REMARK  Name = 
REMARK  8 active torsions:
REMARK  status: ('A' for Active; 'I' for Inactive)
REMARK    1  A    between atoms: C_1  and  C_2
REMARK    2  A    between atoms: C_2  and  S_3
REMARK    3  A    between atoms: C_2  and  C_10
REMARK    4  A    between atoms: S_3  and  C_4
REMARK    5  A    between atoms: N_8  and  C_9
REMARK    6  A    between atoms: C_14  and  N_15
REMARK    7  A    between atoms: C_16  and  C_18
REMARK    8  A    between atoms: C_22  and  C_23
REMARK                            x       y       z     vdW  Elec       q    Type
REMARK                         _______ _______ _______ _____ _____    ______ ____
ROOT
ATOM      1  C   UNL     1      -0.182  10.577  20.563  0.00  0.00    +0.000 A 
ATOM      2  C   UNL     1      -0.118  10.622  21.953  0.00  0.00    +0.000 A 
ATOM      3  N   UNL     1       0.633   9.798  22.707  0.00  0.00    +0.000 NA
ATOM      4  C   UNL     1       1.364   8.864  22.049  0.00  0.00    +0.000 A 
ATOM      5  C   UNL     1       1.409   8.731  20.663  0.00  0.00    +0.000 A 
ATOM      6  C   UNL     1       0.635   9.628  19.919  0.00  0.00    +0.000 A 
ENDROOT
BRANCH   5   7
ATOM      7  N   UNL     1       2.141   7.729  19.981  0.00  0.00    +0.000 N 
ATOM      8  C   UNL     1       1.972   6.365  20.121  0.00  0.00    +0.000 C 
ATOM      9  O   UNL     1       1.228   5.802  20.914  0.00  0.00    +0.000 OA
ATOM     10  H   UNL     1       2.819   8.025  19.283  0.00  0.00    +0.000 HD
BRANCH   8  11
ATOM     11  C   UNL     1       2.777   5.523  19.173  0.00  0.00    +0.000 A 
ATOM     12  C   UNL     1       3.503   6.150  18.167  0.00  0.00    +0.000 A 
ATOM     13  C   UNL     1       4.271   5.368  17.318  0.00  0.00    +0.000 A 
ATOM     14  C   UNL     1       4.296   3.988  17.503  0.00  0.00    +0.000 A 
ATOM     15  C   UNL     1       3.546   3.418  18.539  0.00  0.00    +0.000 A 
ATOM     16  N   UNL     1       2.778   4.177  19.382  0.00  0.00    +0.000 NA
BRANCH  15  17
ATOM     17  C   UNL     1       3.595   1.905  18.745  0.00  0.00    +0.000 C 
ATOM     18  F   UNL     1       2.398   1.376  19.143  0.00  0.00    +0.000 F 
ATOM     19  F   UNL     1       3.931   1.227  17.611  0.00  0.00    +0.000 F 
ATOM     20  F   UNL     1       4.494   1.529  19.695  0.00  0.00    +0.000 F 
ENDBRANCH  15  17
ENDBRANCH   8  11
ENDBRANCH   5   7
BRANCH   1  22
ATOM     21  C   UNL     1      -0.545  12.859  19.547  0.00  0.00    +0.000 C 
ATOM     22  C   UNL     1      -1.135  11.456  19.775  0.00  0.00    +0.000 C 
BRANCH  22  23
ATOM     23  S   UNL     1      -1.557  10.773  18.134  0.00  0.00    +0.000 S 
BRANCH  23  24
ATOM     24  C   UNL     1      -3.170  11.338  17.901  0.00  0.00    +0.000 A 
ATOM     25  N   UNL     1      -3.977  11.839  18.807  0.00  0.00    +0.000 NA
ATOM     26  N   UNL     1      -5.192  12.075  18.197  0.00  0.00    +0.000 NA
ATOM     27  C   UNL     1      -5.076  11.729  16.935  0.00  0.00    +0.000 A 
ATOM     28  N   UNL     1      -3.804  11.304  16.692  0.00  0.00    +0.000 N 
ATOM     29  C   UNL     1      -3.275  10.904  15.417  0.00  0.00    +0.000 C 
ENDBRANCH  23  24
ENDBRANCH  22  23
ENDBRANCH   1  22
TORSDOF 6
ENDMDL
MODEL 4
REMARK VINA RESULT:      -7.9      4.828      9.457
REMARK  Name = 
REMARK  8 active torsions:
REMARK  status: ('A' for Active; 'I' for Inactive)
REMARK    1  A    between atoms: C_1  and  C_2
REMARK    2  A    between atoms: C_2  and  S_3
REMARK    3  A    between atoms: C_2  and  C_10
REMARK    4  A    between atoms: S_3  and  C_4
REMARK    5  A    between atoms: N_8  and  C_9
REMARK    6  A    between atoms: C_14  and  N_15
REMARK    7  A    between atoms: C_16  and  C_18
REMARK    8  A    between atoms: C_22  and  C_23
REMARK                            x       y       z     vdW  Elec       q    Type
REMARK                         _______ _______ _______ _____ _____    ______ ____
ROOT
ATOM      1  C   UNL     1      -0.204  10.294  20.413  0.00  0.00    +0.000 A 
ATOM      2  C   UNL     1      -0.255  10.235  21.802  0.00  0.00    +0.000 A 
ATOM      3  N   UNL     1       0.465   9.381  22.554  0.00  0.00    +0.000 NA
ATOM      4  C   UNL     1       1.285   8.527  21.893  0.00  0.00    +0.000 A 
ATOM      5  C   UNL     1       1.447   8.503  20.510  0.00  0.00    +0.000 A 
ATOM      6  C   UNL     1       0.701   9.426  19.771  0.00  0.00    +0.000 A 
ENDROOT
BRANCH   5   7
ATOM      7  N   UNL     1       2.273   7.582  19.819  0.00  0.00    +0.000 N 
ATOM      8  C   UNL     1       2.214   6.205  19.921  0.00  0.00    +0.000 C 
ATOM      9  O   UNL     1       1.502   5.563  20.684  0.00  0.00    +0.000 OA
ATOM     10  H   UNL     1       2.939   7.951  19.144  0.00  0.00    +0.000 HD
BRANCH   8  11
ATOM     11  C   UNL     1       3.104   5.457  18.972  0.00  0.00    +0.000 A 
ATOM     12  C   UNL     1       3.067   4.068  18.967  0.00  0.00    +0.000 A 
ATOM     13  C   UNL     1       3.867   3.386  18.063  0.00  0.00    +0.000 A 
ATOM     14  C   UNL     1       4.674   4.111  17.190  0.00  0.00    +0.000 A 
ATOM     15  C   UNL     1       4.663   5.510  17.242  0.00  0.00    +0.000 A 
ATOM     16  N   UNL     1       3.882   6.197  18.133  0.00  0.00    +0.000 NA
BRANCH  15  17
ATOM     17  C   UNL     1       5.539   6.296  16.268  0.00  0.00    +0.000 C 
ATOM     18  F   UNL     1       6.296   7.257  16.877  0.00  0.00    +0.000 F 
ATOM     19  F   UNL     1       6.426   5.506  15.597  0.00  0.00    +0.000 F 
ATOM     20  F   UNL     1       4.816   6.950  15.317  0.00  0.00    +0.000 F 
ENDBRANCH  15  17
ENDBRANCH   8  11
ENDBRANCH   5   7
BRANCH   1  22
ATOM     21  C   UNL     1      -0.425  12.514  19.232  0.00  0.00    +0.000 C 
ATOM     22  C   UNL     1      -1.125  11.198  19.614  0.00  0.00    +0.000 C 
BRANCH  22  23
ATOM     23  S   UNL     1      -1.722  10.434  18.066  0.00  0.00    +0.000 S 
BRANCH  23  24
ATOM     24  C   UNL     1      -3.250  11.201  17.839  0.00  0.00    +0.000 A 
ATOM     25  N   UNL     1      -3.990  11.787  18.751  0.00  0.00    +0.000 NA
ATOM     26  N   UNL     1      -5.164  12.183  18.144  0.00  0.00    +0.000 NA
ATOM     27  C   UNL     1      -5.088  11.844  16.877  0.00  0.00    +0.000 A 
ATOM     28  N   UNL     1      -3.880  11.265  16.629  0.00  0.00    +0.000 N 
ATOM     29  C   UNL     1      -3.402  10.819  15.349  0.00  0.00    +0.000 C 
ENDBRANCH  23  24
ENDBRANCH  22  23
ENDBRANCH   1  22
TORSDOF 6
ENDMDL
MODEL 5
REMARK VINA RESULT:      -7.9      1.992      2.943
REMARK  Name = 
REMARK  8 active torsions:
REMARK  status: ('A' for Active; 'I' for Inactive)
REMARK    1  A    between atoms: C_1  and  C_2
REMARK    2  A    between atoms: C_2  and  S_3
REMARK    3  A    between atoms: C_2  and  C_10
REMARK    4  A    between atoms: S_3  and  C_4
REMARK    5  A    between atoms: N_8  and  C_9
REMARK    6  A    between atoms: C_14  and  N_15
REMARK    7  A    between atoms: C_16  and  C_18
REMARK    8  A    between atoms: C_22  and  C_23
REMARK                            x       y       z     vdW  Elec       q    Type
REMARK                         _______ _______ _______ _____ _____    ______ ____
ROOT
ATOM      1  C   UNL     1       4.461   4.606  17.585  0.00  0.00    +0.000 A 
ATOM      2  C   UNL     1       4.418   3.500  18.429  0.00  0.00    +0.000 A 
ATOM      3  N   UNL     1       3.754   3.462  19.599  0.00  0.00    +0.000 NA
ATOM      4  C   UNL     1       3.093   4.589  19.964  0.00  0.00    +0.000 A 
ATOM      5  C   UNL     1       3.035   5.751  19.198  0.00  0.00    +0.000 A 
ATOM      6  C   UNL     1       3.716   5.736  17.976  0.00  0.00    +0.000 A 
ENDROOT
BRANCH   5   7
ATOM      7  N   UNL     1       2.379   6.940  19.600  0.00  0.00    +0.000 N 
ATOM      8  C   UNL     1       2.174   8.058  18.814  0.00  0.00    +0.000 C 
ATOM      9  O   UNL     1       2.599   8.237  17.680  0.00  0.00    +0.000 OA
ATOM     10  H   UNL     1       1.969   6.968  20.531  0.00  0.00    +0.000 HD
BRANCH   8  11
ATOM     11  C   UNL     1       1.323   9.127  19.437  0.00  0.00    +0.000 A 
ATOM     12  C   UNL     1       0.931  10.212  18.662  0.00  0.00    +0.000 A 
ATOM     13  C   UNL     1       0.117  11.177  19.236  0.00  0.00    +0.000 A 
ATOM     14  C   UNL     1      -0.284  11.026  20.560  0.00  0.00    +0.000 A 
ATOM     15  C   UNL     1       0.141   9.907  21.286  0.00  0.00    +0.000 A 
ATOM     16  N   UNL     1       0.950   8.949  20.736  0.00  0.00    +0.000 NA
BRANCH  15  17
ATOM     17  C   UNL     1      -0.320   9.742  22.733  0.00  0.00    +0.000 C 
ATOM     18  F   UNL     1       0.714   9.605  23.617  0.00  0.00    +0.000 F 
ATOM     19  F   UNL     1      -1.043  10.807  23.184  0.00  0.00    +0.000 F 
ATOM     20  F   UNL     1      -1.104   8.644  22.916  0.00  0.00    +0.000 F 
ENDBRANCH  15  17
ENDBRANCH   8  11
ENDBRANCH   5   7
BRANCH   1  22
ATOM     21  C   UNL     1       5.111   5.923  15.531  0.00  0.00    +0.000 C 
ATOM     22  C   UNL     1       5.322   4.629  16.335  0.00  0.00    +0.000 C 
BRANCH  22  23
ATOM     23  S   UNL     1       7.111   4.498  16.689  0.00  0.00    +0.000 S 
BRANCH  23  24
ATOM     24  C   UNL     1       7.495   6.084  17.246  0.00  0.00    +0.000 A 
ATOM     25  N   UNL     1       7.637   7.170  16.522  0.00  0.00    +0.000 NA
ATOM     26  N   UNL     1       8.028   8.186  17.369  0.00  0.00    +0.000 NA
ATOM     27  C   UNL     1       8.089   7.689  18.583  0.00  0.00    +0.000 A 
ATOM     28  N   UNL     1       7.714   6.380  18.561  0.00  0.00    +0.000 N 
ATOM     29  C   UNL     1       7.593   5.515  19.702  0.00  0.00    +0.000 C 
ENDBRANCH  23  24
ENDBRANCH  22  23
ENDBRANCH   1  22
TORSDOF 6
ENDMDL
MODEL 6
REMARK VINA RESULT:      -7.8      4.989      9.617
REMARK  Name = 
REMARK  8 active torsions:
REMARK  status: ('A' for Active; 'I' for Inactive)
REMARK    1  A    between atoms: C_1  and  C_2
REMARK    2  A    between atoms: C_2  and  S_3
REMARK    3  A    between atoms: C_2  and  C_10
REMARK    4  A    between atoms: S_3  and  C_4
REMARK    5  A    between atoms: N_8  and  C_9
REMARK    6  A    between atoms: C_14  and  N_15
REMARK    7  A    between atoms: C_16  and  C_18
REMARK    8  A    between atoms: C_22  and  C_23
REMARK                            x       y       z     vdW  Elec       q    Type
REMARK                         _______ _______ _______ _____ _____    ______ ____
ROOT
ATOM      1  C   UNL     1      -0.139  10.513  20.492  0.00  0.00    +0.000 A 
ATOM      2  C   UNL     1       0.153  10.633  21.848  0.00  0.00    +0.000 A 
ATOM      3  N   UNL     1       0.943   9.785  22.534  0.00  0.00    +0.000 NA
ATOM      4  C   UNL     1       1.477   8.750  21.839  0.00  0.00    +0.000 A 
ATOM      5  C   UNL     1       1.285   8.533  20.476  0.00  0.00    +0.000 A 
ATOM      6  C   UNL     1       0.480   9.454  19.798  0.00  0.00    +0.000 A 
ENDROOT
BRANCH   5   7
ATOM      7  N   UNL     1       1.809   7.428  19.762  0.00  0.00    +0.000 N 
ATOM      8  C   UNL     1       2.577   7.495  18.615  0.00  0.00    +0.000 C 
ATOM      9  O   UNL     1       2.855   8.508  17.985  0.00  0.00    +0.000 OA
ATOM     10  H   UNL     1       1.660   6.497  20.145  0.00  0.00    +0.000 HD
BRANCH   8  11
ATOM     11  C   UNL     1       3.127   6.181  18.140  0.00  0.00    +0.000 A 
ATOM     12  C   UNL     1       2.498   5.006  18.534  0.00  0.00    +0.000 A 
ATOM     13  C   UNL     1       2.992   3.799  18.063  0.00  0.00    +0.000 A 
ATOM     14  C   UNL     1       4.092   3.803  17.210  0.00  0.00    +0.000 A 
ATOM     15  C   UNL     1       4.678   5.021  16.846  0.00  0.00    +0.000 A 
ATOM     16  N   UNL     1       4.205   6.221  17.308  0.00  0.00    +0.000 NA
BRANCH  15  17
ATOM     17  C   UNL     1       5.873   5.015  15.895  0.00  0.00    +0.000 C 
ATOM     18  F   UNL     1       7.011   5.526  16.455  0.00  0.00    +0.000 F 
ATOM     19  F   UNL     1       6.209   3.763  15.473  0.00  0.00    +0.000 F 
ATOM     20  F   UNL     1       5.659   5.751  14.770  0.00  0.00    +0.000 F 
ENDBRANCH  15  17
ENDBRANCH   8  11
ENDBRANCH   5   7
BRANCH   1  22
ATOM     21  C   UNL     1      -0.587  12.868  19.702  0.00  0.00    +0.000 C 
ATOM     22  C   UNL     1      -1.130  11.431  19.801  0.00  0.00    +0.000 C 
BRANCH  22  23
ATOM     23  S   UNL     1      -1.550  10.894  18.105  0.00  0.00    +0.000 S 
BRANCH  23  24
ATOM     24  C   UNL     1      -3.186  11.416  17.947  0.00  0.00    +0.000 A 
ATOM     25  N   UNL     1      -3.964  11.897  18.888  0.00  0.00    +0.000 NA
ATOM     26  N   UNL     1      -5.211  12.098  18.336  0.00  0.00    +0.000 NA
ATOM     27  C   UNL     1      -5.145  11.753  17.070  0.00  0.00    +0.000 A 
ATOM     28  N   UNL     1      -3.875  11.362  16.769  0.00  0.00    +0.000 N 
ATOM     29  C   UNL     1      -3.395  10.973  15.471  0.00  0.00    +0.000 C 
ENDBRANCH  23  24
ENDBRANCH  22  23
ENDBRANCH   1  22
TORSDOF 6
ENDMDL
MODEL 7
REMARK VINA RESULT:      -7.8      4.724      9.341
REMARK  Name = 
REMARK  8 active torsions:
REMARK  status: ('A' for Active; 'I' for Inactive)
REMARK    1  A    between atoms: C_1  and  C_2
REMARK    2  A    between atoms: C_2  and  S_3
REMARK    3  A    between atoms: C_2  and  C_10
REMARK    4  A    between atoms: S_3  and  C_4
REMARK    5  A    between atoms: N_8  and  C_9
REMARK    6  A    between atoms: C_14  and  N_15
REMARK    7  A    between atoms: C_16  and  C_18
REMARK    8  A    between atoms: C_22  and  C_23
REMARK                            x       y       z     vdW  Elec       q    Type
REMARK                         _______ _______ _______ _____ _____    ______ ____
ROOT
ATOM      1  C   UNL     1      -0.173  10.611  20.390  0.00  0.00    +0.000 A 
ATOM      2  C   UNL     1       0.153  10.862  21.720  0.00  0.00    +0.000 A 
ATOM      3  N   UNL     1       0.965  10.087  22.463  0.00  0.00    +0.000 NA
ATOM      4  C   UNL     1       1.488   8.992  21.857  0.00  0.00    +0.000 A 
ATOM      5  C   UNL     1       1.263   8.646  20.527  0.00  0.00    +0.000 A 
ATOM      6  C   UNL     1       0.435   9.494  19.785  0.00  0.00    +0.000 A 
ENDROOT
BRANCH   5   7
ATOM      7  N   UNL     1       1.776   7.479  19.909  0.00  0.00    +0.000 N 
ATOM      8  C   UNL     1       2.482   7.435  18.722  0.00  0.00    +0.000 C 
ATOM      9  O   UNL     1       2.704   8.378  17.972  0.00  0.00    +0.000 OA
ATOM     10  H   UNL     1       1.669   6.593  20.397  0.00  0.00    +0.000 HD
BRANCH   8  11
ATOM     11  C   UNL     1       3.038   6.087  18.361  0.00  0.00    +0.000 A 
ATOM     12  C   UNL     1       4.238   6.019  17.663  0.00  0.00    +0.000 A 
ATOM     13  C   UNL     1       4.761   4.771  17.364  0.00  0.00    +0.000 A 
ATOM     14  C   UNL     1       4.075   3.631  17.776  0.00  0.00    +0.000 A 
ATOM     15  C   UNL     1       2.873   3.767  18.480  0.00  0.00    +0.000 A 
ATOM     16  N   UNL     1       2.340   4.994  18.778  0.00  0.00    +0.000 NA
BRANCH  15  17
ATOM     17  C   UNL     1       2.137   2.511  18.942  0.00  0.00    +0.000 C 
ATOM     18  F   UNL     1       0.858   2.428  18.466  0.00  0.00    +0.000 F 
ATOM     19  F   UNL     1       2.748   1.361  18.540  0.00  0.00    +0.000 F 
ATOM     20  F   UNL     1       2.028   2.430  20.297  0.00  0.00    +0.000 F 
ENDBRANCH  15  17
ENDBRANCH   8  11
ENDBRANCH   5   7
BRANCH   1  22
ATOM     21  C   UNL     1      -0.566  12.777  19.154  0.00  0.00    +0.000 C 
ATOM     22  C   UNL     1      -1.187  11.456  19.640  0.00  0.00    +0.000 C 
BRANCH  22  23
ATOM     23  S   UNL     1      -1.884  10.614  18.175  0.00  0.00    +0.000 S 
BRANCH  23  24
ATOM     24  C   UNL     1      -3.427  11.368  18.015  0.00  0.00    +0.000 A 
ATOM     25  N   UNL     1      -4.113  11.984  18.949  0.00  0.00    +0.000 NA
ATOM     26  N   UNL     1      -5.324  12.353  18.401  0.00  0.00    +0.000 NA
ATOM     27  C   UNL     1      -5.324  11.969  17.145  0.00  0.00    +0.000 A 
ATOM     28  N   UNL     1      -4.130  11.385  16.845  0.00  0.00    +0.000 N 
ATOM     29  C   UNL     1      -3.728  10.895  15.555  0.00  0.00    +0.000 C 
ENDBRANCH  23  24
ENDBRANCH  22  23
ENDBRANCH   1  22
TORSDOF 6
ENDMDL
MODEL 8
REMARK VINA RESULT:      -7.8      5.233      9.506
REMARK  Name = 
REMARK  8 active torsions:
REMARK  status: ('A' for Active; 'I' for Inactive)
REMARK    1  A    between atoms: C_1  and  C_2
REMARK    2  A    between atoms: C_2  and  S_3
REMARK    3  A    between atoms: C_2  and  C_10
REMARK    4  A    between atoms: S_3  and  C_4
REMARK    5  A    between atoms: N_8  and  C_9
REMARK    6  A    between atoms: C_14  and  N_15
REMARK    7  A    between atoms: C_16  and  C_18
REMARK    8  A    between atoms: C_22  and  C_23
REMARK                            x       y       z     vdW  Elec       q    Type
REMARK                         _______ _______ _______ _____ _____    ______ ____
ROOT
ATOM      1  C   UNL     1      -0.407  10.881  20.709  0.00  0.00    +0.000 A 
ATOM      2  C   UNL     1      -0.238  11.291  22.029  0.00  0.00    +0.000 A 
ATOM      3  N   UNL     1       0.286  10.524  23.003  0.00  0.00    +0.000 NA
ATOM      4  C   UNL     1       0.666   9.269  22.655  0.00  0.00    +0.000 A 
ATOM      5  C   UNL     1       0.576   8.748  21.366  0.00  0.00    +0.000 A 
ATOM      6  C   UNL     1       0.051   9.590  20.381  0.00  0.00    +0.000 A 
ENDROOT
BRANCH   5   7
ATOM      7  N   UNL     1       0.935   7.424  21.014  0.00  0.00    +0.000 N 
ATOM      8  C   UNL     1       1.876   7.063  20.069  0.00  0.00    +0.000 C 
ATOM      9  O   UNL     1       2.488   7.821  19.326  0.00  0.00    +0.000 OA
ATOM     10  H   UNL     1       0.507   6.659  21.532  0.00  0.00    +0.000 HD
BRANCH   8  11
ATOM     11  C   UNL     1       2.170   5.592  19.992  0.00  0.00    +0.000 A 
ATOM     12  C   UNL     1       1.650   4.751  20.968  0.00  0.00    +0.000 A 
ATOM     13  C   UNL     1       1.897   3.390  20.870  0.00  0.00    +0.000 A 
ATOM     14  C   UNL     1       2.649   2.912  19.800  0.00  0.00    +0.000 A 
ATOM     15  C   UNL     1       3.141   3.812  18.848  0.00  0.00    +0.000 A 
ATOM     16  N   UNL     1       2.910   5.159  18.933  0.00  0.00    +0.000 NA
BRANCH  15  17
ATOM     17  C   UNL     1       3.950   3.275  17.668  0.00  0.00    +0.000 C 
ATOM     18  F   UNL     1       5.261   3.662  17.691  0.00  0.00    +0.000 F 
ATOM     19  F   UNL     1       3.975   1.913  17.618  0.00  0.00    +0.000 F 
ATOM     20  F   UNL     1       3.469   3.691  16.464  0.00  0.00    +0.000 F 
ENDBRANCH  15  17
ENDBRANCH   8  11
ENDBRANCH   5   7
BRANCH   1  22
ATOM     21  C   UNL     1      -0.242  12.950  19.273  0.00  0.00    +0.000 C 
ATOM     22  C   UNL     1      -1.111  11.749  19.683  0.00  0.00    +0.000 C 
BRANCH  22  23
ATOM     23  S   UNL     1      -1.547  10.849  18.154  0.00  0.00    +0.000 S 
BRANCH  23  24
ATOM     24  C   UNL     1      -3.167  11.367  17.868  0.00  0.00    +0.000 A 
ATOM     25  N   UNL     1      -4.009  11.867  18.742  0.00  0.00    +0.000 NA
ATOM     26  N   UNL     1      -5.214  12.057  18.097  0.00  0.00    +0.000 NA
ATOM     27  C   UNL     1      -5.057  11.687  16.846  0.00  0.00    +0.000 A 
ATOM     28  N   UNL     1      -3.769  11.290  16.645  0.00  0.00    +0.000 N 
ATOM     29  C   UNL     1      -3.198  10.875  15.393  0.00  0.00    +0.000 C 
ENDBRANCH  23  24
ENDBRANCH  22  23
ENDBRANCH   1  22
TORSDOF 6
ENDMDL
MODEL 9
REMARK VINA RESULT:      -7.7      2.739      3.989
REMARK  Name = 
REMARK  8 active torsions:
REMARK  status: ('A' for Active; 'I' for Inactive)
REMARK    1  A    between atoms: C_1  and  C_2
REMARK    2  A    between atoms: C_2  and  S_3
REMARK    3  A    between atoms: C_2  and  C_10
REMARK    4  A    between atoms: S_3  and  C_4
REMARK    5  A    between atoms: N_8  and  C_9
REMARK    6  A    between atoms: C_14  and  N_15
REMARK    7  A    between atoms: C_16  and  C_18
REMARK    8  A    between atoms: C_22  and  C_23
REMARK                            x       y       z     vdW  Elec       q    Type
REMARK                         _______ _______ _______ _____ _____    ______ ____
ROOT
ATOM      1  C   UNL     1       2.866   6.803  19.104  0.00  0.00    +0.000 A 
ATOM      2  C   UNL     1       3.439   7.050  17.860  0.00  0.00    +0.000 A 
ATOM      3  N   UNL     1       3.184   8.137  17.107  0.00  0.00    +0.000 NA
ATOM      4  C   UNL     1       2.303   9.036  17.611  0.00  0.00    +0.000 A 
ATOM      5  C   UNL     1       1.683   8.920  18.853  0.00  0.00    +0.000 A 
ATOM      6  C   UNL     1       1.999   7.790  19.613  0.00  0.00    +0.000 A 
ENDROOT
BRANCH   5   7
ATOM      7  N   UNL     1       0.732   9.840  19.359  0.00  0.00    +0.000 N 
ATOM      8  C   UNL     1      -0.432  10.234  18.725  0.00  0.00    +0.000 C 
ATOM      9  O   UNL     1      -0.786   9.921  17.595  0.00  0.00    +0.000 OA
ATOM     10  H   UNL     1       0.878  10.213  20.294  0.00  0.00    +0.000 HD
BRANCH   8  11
ATOM     11  C   UNL     1      -1.336  11.110  19.543  0.00  0.00    +0.000 A 
ATOM     12  C   UNL     1      -2.367  11.792  18.907  0.00  0.00    +0.000 A 
ATOM     13  C   UNL     1      -3.219  12.572  19.675  0.00  0.00    +0.000 A 
ATOM     14  C   UNL     1      -3.019  12.641  21.051  0.00  0.00    +0.000 A 
ATOM     15  C   UNL     1      -1.965  11.927  21.632  0.00  0.00    +0.000 A 
ATOM     16  N   UNL     1      -1.112  11.157  20.886  0.00  0.00    +0.000 NA
BRANCH  15  17
ATOM     17  C   UNL     1      -1.766  11.996  23.144  0.00  0.00    +0.000 C 
ATOM     18  F   UNL     1      -1.028  13.077  23.543  0.00  0.00    +0.000 F 
ATOM     19  F   UNL     1      -2.941  12.087  23.830  0.00  0.00    +0.000 F 
ATOM     20  F   UNL     1      -1.116  10.908  23.643  0.00  0.00    +0.000 F 
ENDBRANCH  15  17
ENDBRANCH   8  11
ENDBRANCH   5   7
BRANCH   1  22
ATOM     21  C   UNL     1       1.851   5.071  20.633  0.00  0.00    +0.000 C 
ATOM     22  C   UNL     1       3.104   5.505  19.853  0.00  0.00    +0.000 C 
BRANCH  22  23
ATOM     23  S   UNL     1       3.569   4.116  18.760  0.00  0.00    +0.000 S 
BRANCH  23  24
ATOM     24  C   UNL     1       5.259   4.371  18.535  0.00  0.00    +0.000 A 
ATOM     25  N   UNL     1       6.158   4.613  19.461  0.00  0.00    +0.000 NA
ATOM     26  N   UNL     1       7.361   4.837  18.824  0.00  0.00    +0.000 NA
ATOM     27  C   UNL     1       7.158   4.702  17.533  0.00  0.00    +0.000 A 
ATOM     28  N   UNL     1       5.858   4.361  17.308  0.00  0.00    +0.000 N 
ATOM     29  C   UNL     1       5.270   4.066  16.030  0.00  0.00    +0.000 C 
ENDBRANCH  23  24
ENDBRANCH  22  23
ENDBRANCH   1  22
TORSDOF 6
ENDMDL
