MODEL 1
REMARK VINA RESULT:     -10.0      0.000      0.000
REMARK  Name = 
REMARK  9 active torsions:
REMARK  status: ('A' for Active; 'I' for Inactive)
REMARK    1  A    between atoms: C_1  and  N_2
REMARK    2  A    between atoms: C_6  and  C_7
REMARK    3  A    between atoms: C_7  and  C_10
REMARK    4  A    between atoms: C_10  and  C_11
REMARK    5  A    between atoms: C_10  and  C_13
REMARK    6  A    between atoms: C_17  and  N_18
REMARK    7  A    between atoms: C_23  and  C_24
REMARK    8  A    between atoms: C_24  and  N_25
REMARK    9  A    between atoms: C_33  and  C_34
REMARK                            x       y       z     vdW  Elec       q    Type
REMARK                         _______ _______ _______ _____ _____    ______ ____
ROOT
ATOM      1  N   UNL     1       2.023   7.808  19.349  0.00  0.00    +0.000 N 
ATOM      2  C   UNL     1       1.356   8.135  20.575  0.00  0.00    +0.000 C 
ATOM      3  C   UNL     1       0.822   9.497  20.391  0.00  0.00    +0.000 A 
ATOM      4  C   UNL     1       1.100   9.957  19.105  0.00  0.00    +0.000 A 
ATOM      5  C   UNL     1       0.622  11.212  18.715  0.00  0.00    +0.000 A 
ATOM      6  C   UNL     1      -0.091  12.006  19.663  0.00  0.00    +0.000 A 
ATOM      7  C   UNL     1      -0.276  11.515  20.979  0.00  0.00    +0.000 A 
ATOM      8  C   UNL     1       0.143  10.236  21.350  0.00  0.00    +0.000 A 
ATOM      9  C   UNL     1       1.893   8.866  18.408  0.00  0.00    +0.000 C 
ATOM     10  O   UNL     1       2.324   8.950  17.280  0.00  0.00    +0.000 OA
ENDROOT
BRANCH   1  15
ATOM     11  C   UNL     1       4.418   5.200  18.014  0.00  0.00    +0.000 A 
ATOM     12  C   UNL     1       4.166   4.143  18.890  0.00  0.00    +0.000 A 
ATOM     13  C   UNL     1       3.258   4.309  19.959  0.00  0.00    +0.000 A 
ATOM     14  C   UNL     1       2.547   5.502  20.154  0.00  0.00    +0.000 A 
ATOM     15  C   UNL     1       2.774   6.583  19.319  0.00  0.00    +0.000 A 
ATOM     16  C   UNL     1       3.764   6.415  18.300  0.00  0.00    +0.000 A 
BRANCH  11  17
ATOM     17  C   UNL     1       5.169   5.053  16.660  0.00  0.00    +0.000 C 
ATOM     18  C   UNL     1       4.570   3.817  15.961  0.00  0.00    +0.000 C 
ATOM     19  F   UNL     1       4.856   6.120  15.833  0.00  0.00    +0.000 F 
BRANCH  17  20
ATOM     20  C   UNL     1       6.738   4.999  16.738  0.00  0.00    +0.000 C 
ATOM     21  F   UNL     1       7.249   4.759  15.495  0.00  0.00    +0.000 F 
ATOM     22  F   UNL     1       7.108   3.921  17.493  0.00  0.00    +0.000 F 
BRANCH  20  28
ATOM     23  C   UNL     1       7.957   5.634  19.688  0.00  0.00    +0.000 C 
ATOM     24  N   UNL     1       7.792   6.522  18.568  0.00  0.00    +0.000 N 
ATOM     25  C   UNL     1       8.146   7.842  18.596  0.00  0.00    +0.000 A 
ATOM     26  N   UNL     1       8.076   8.340  17.388  0.00  0.00    +0.000 NA
ATOM     27  N   UNL     1       7.630   7.346  16.561  0.00  0.00    +0.000 NA
ATOM     28  C   UNL     1       7.361   6.267  17.283  0.00  0.00    +0.000 A 
ENDBRANCH  20  28
ENDBRANCH  17  20
ENDBRANCH  11  17
ENDBRANCH   1  15
BRANCH   8  29
ATOM     29  C   UNL     1      -0.175   9.678  22.714  0.00  0.00    +0.000 C 
ATOM     30  F   UNL     1      -0.915   8.533  22.685  0.00  0.00    +0.000 F 
ATOM     31  F   UNL     1       0.939   9.372  23.429  0.00  0.00    +0.000 F 
ATOM     32  F   UNL     1      -0.894  10.549  23.472  0.00  0.00    +0.000 F 
ENDBRANCH   8  29
BRANCH   6  33
ATOM     33  C   UNL     1      -0.807  13.314  19.313  0.00  0.00    +0.000 C 
BRANCH  33  34
ATOM     34  N   UNL     1      -0.213  14.510  19.935  0.00  0.00    +0.000 NA
ATOM     35  C   UNL     1       1.219  14.690  19.665  0.00  0.00    +0.000 C 
ATOM     36  C   UNL     1       1.378  15.827  18.669  0.00  0.00    +0.000 C 
ATOM     37  C   UNL     1       0.160  16.683  18.884  0.00  0.00    +0.000 C 
ATOM     38  F   UNL     1      -0.278  17.195  17.711  0.00  0.00    +0.000 F 
ATOM     39  F   UNL     1       0.453  17.729  19.692  0.00  0.00    +0.000 F 
ATOM     40  C   UNL     1      -0.880  15.771  19.526  0.00  0.00    +0.000 C 
ENDBRANCH  33  34
ENDBRANCH   6  33
TORSDOF 7
ENDMDL
MODEL 2
REMARK VINA RESULT:      -9.9      2.420      9.277
REMARK  Name = 
REMARK  9 active torsions:
REMARK  status: ('A' for Active; 'I' for Inactive)
REMARK    1  A    between atoms: C_1  and  N_2
REMARK    2  A    between atoms: C_6  and  C_7
REMARK    3  A    between atoms: C_7  and  C_10
REMARK    4  A    between atoms: C_10  and  C_11
REMARK    5  A    between atoms: C_10  and  C_13
REMARK    6  A    between atoms: C_17  and  N_18
REMARK    7  A    between atoms: C_23  and  C_24
REMARK    8  A    between atoms: C_24  and  N_25
REMARK    9  A    between atoms: C_33  and  C_34
REMARK                            x       y       z     vdW  Elec       q    Type
REMARK                         _______ _______ _______ _____ _____    ______ ____
ROOT
ATOM      1  N   UNL     1       1.546   7.971  20.117  0.00  0.00    +0.000 N 
ATOM      2  C   UNL     1       1.590   6.601  20.541  0.00  0.00    +0.000 C 
ATOM      3  C   UNL     1       2.323   5.878  19.487  0.00  0.00    +0.000 A 
ATOM      4  C   UNL     1       2.753   6.763  18.499  0.00  0.00    +0.000 A 
ATOM      5  C   UNL     1       3.521   6.275  17.438  0.00  0.00    +0.000 A 
ATOM      6  C   UNL     1       3.799   4.877  17.370  0.00  0.00    +0.000 A 
ATOM      7  C   UNL     1       3.271   4.016  18.364  0.00  0.00    +0.000 A 
ATOM      8  C   UNL     1       2.560   4.510  19.458  0.00  0.00    +0.000 A 
ATOM      9  C   UNL     1       2.246   8.140  18.891  0.00  0.00    +0.000 C 
ATOM     10  O   UNL     1       2.417   9.142  18.235  0.00  0.00    +0.000 OA
ENDROOT
BRANCH   1  15
ATOM     11  C   UNL     1      -0.682  10.941  20.842  0.00  0.00    +0.000 A 
ATOM     12  C   UNL     1      -0.680  10.934  22.238  0.00  0.00    +0.000 A 
ATOM     13  C   UNL     1      -0.001   9.914  22.940  0.00  0.00    +0.000 A 
ATOM     14  C   UNL     1       0.727   8.912  22.281  0.00  0.00    +0.000 A 
ATOM     15  C   UNL     1       0.743   8.872  20.896  0.00  0.00    +0.000 A 
ATOM     16  C   UNL     1      -0.026   9.864  20.212  0.00  0.00    +0.000 A 
BRANCH  11  17
ATOM     17  C   UNL     1      -1.149  12.145  19.976  0.00  0.00    +0.000 C 
ATOM     18  C   UNL     1      -2.010  11.558  18.840  0.00  0.00    +0.000 C 
ATOM     19  F   UNL     1      -2.016  12.941  20.708  0.00  0.00    +0.000 F 
BRANCH  17  20
ATOM     20  C   UNL     1      -0.018  13.098  19.443  0.00  0.00    +0.000 C 
ATOM     21  F   UNL     1      -0.562  14.031  18.607  0.00  0.00    +0.000 F 
ATOM     22  F   UNL     1       0.842  12.375  18.663  0.00  0.00    +0.000 F 
BRANCH  20  28
ATOM     23  C   UNL     1      -0.756  15.819  21.068  0.00  0.00    +0.000 C 
ATOM     24  N   UNL     1       0.432  15.012  21.149  0.00  0.00    +0.000 N 
ATOM     25  C   UNL     1       1.483  15.302  21.975  0.00  0.00    +0.000 A 
ATOM     26  N   UNL     1       2.318  14.295  21.990  0.00  0.00    +0.000 NA
ATOM     27  N   UNL     1       1.832  13.348  21.131  0.00  0.00    +0.000 NA
ATOM     28  C   UNL     1       0.739  13.813  20.543  0.00  0.00    +0.000 A 
ENDBRANCH  20  28
ENDBRANCH  17  20
ENDBRANCH  11  17
ENDBRANCH   1  15
BRANCH   8  29
ATOM     29  C   UNL     1       2.116   3.598  20.574  0.00  0.00    +0.000 C 
ATOM     30  F   UNL     1       2.550   3.981  21.808  0.00  0.00    +0.000 F 
ATOM     31  F   UNL     1       0.763   3.512  20.675  0.00  0.00    +0.000 F 
ATOM     32  F   UNL     1       2.573   2.326  20.412  0.00  0.00    +0.000 F 
ENDBRANCH   8  29
BRANCH   6  33
ATOM     33  C   UNL     1       4.764   4.247  16.360  0.00  0.00    +0.000 C 
BRANCH  33  34
ATOM     34  N   UNL     1       6.184   4.361  16.734  0.00  0.00    +0.000 NA
ATOM     35  C   UNL     1       6.824   5.617  16.324  0.00  0.00    +0.000 C 
ATOM     36  C   UNL     1       7.017   6.481  17.560  0.00  0.00    +0.000 C 
ATOM     37  C   UNL     1       7.103   5.494  18.692  0.00  0.00    +0.000 C 
ATOM     38  F   UNL     1       6.505   5.987  19.801  0.00  0.00    +0.000 F 
ATOM     39  F   UNL     1       8.396   5.250  19.010  0.00  0.00    +0.000 F 
ATOM     40  C   UNL     1       6.414   4.229  18.194  0.00  0.00    +0.000 C 
ENDBRANCH  33  34
ENDBRANCH   6  33
TORSDOF 7
ENDMDL
MODEL 3
REMARK VINA RESULT:      -9.9      1.647      2.675
REMARK  Name = 
REMARK  9 active torsions:
REMARK  status: ('A' for Active; 'I' for Inactive)
REMARK    1  A    between atoms: C_1  and  N_2
REMARK    2  A    between atoms: C_6  and  C_7
REMARK    3  A    between atoms: C_7  and  C_10
REMARK    4  A    between atoms: C_10  and  C_11
REMARK    5  A    between atoms: C_10  and  C_13
REMARK    6  A    between atoms: C_17  and  N_18
REMARK    7  A    between atoms: C_23  and  C_24
REMARK    8  A    between atoms: C_24  and  N_25
REMARK    9  A    between atoms: C_33  and  C_34
REMARK                            x       y       z     vdW  Elec       q    Type
REMARK                         _______ _______ _______ _____ _____    ______ ____
ROOT
ATOM      1  N   UNL     1       2.261   7.357  19.409  0.00  0.00    +0.000 N 
ATOM      2  C   UNL     1       1.544   7.793  20.572  0.00  0.00    +0.000 C 
ATOM      3  C   UNL     1       0.960   9.100  20.217  0.00  0.00    +0.000 A 
ATOM      4  C   UNL     1       1.258   9.421  18.893  0.00  0.00    +0.000 A 
ATOM      5  C   UNL     1       0.742  10.600  18.347  0.00  0.00    +0.000 A 
ATOM      6  C   UNL     1      -0.032  11.465  19.177  0.00  0.00    +0.000 A 
ATOM      7  C   UNL     1      -0.238  11.121  20.536  0.00  0.00    +0.000 A 
ATOM      8  C   UNL     1       0.221   9.913  21.064  0.00  0.00    +0.000 A 
ATOM      9  C   UNL     1       2.118   8.293  18.349  0.00  0.00    +0.000 C 
ATOM     10  O   UNL     1       2.579   8.266  17.230  0.00  0.00    +0.000 OA
ENDROOT
BRANCH   1  15
ATOM     11  C   UNL     1       5.308   5.136  19.093  0.00  0.00    +0.000 A 
ATOM     12  C   UNL     1       4.767   3.900  19.449  0.00  0.00    +0.000 A 
ATOM     13  C   UNL     1       3.419   3.807  19.857  0.00  0.00    +0.000 A 
ATOM     14  C   UNL     1       2.567   4.922  19.875  0.00  0.00    +0.000 A 
ATOM     15  C   UNL     1       3.063   6.172  19.542  0.00  0.00    +0.000 A 
ATOM     16  C   UNL     1       4.454   6.250  19.218  0.00  0.00    +0.000 A 
BRANCH  11  17
ATOM     17  C   UNL     1       6.674   5.317  18.371  0.00  0.00    +0.000 C 
ATOM     18  C   UNL     1       7.671   5.807  19.440  0.00  0.00    +0.000 C 
ATOM     19  F   UNL     1       7.158   4.082  17.969  0.00  0.00    +0.000 F 
BRANCH  17  20
ATOM     20  C   UNL     1       6.669   6.228  17.090  0.00  0.00    +0.000 C 
ATOM     21  F   UNL     1       7.787   7.011  17.081  0.00  0.00    +0.000 F 
ATOM     22  F   UNL     1       5.620   7.102  17.171  0.00  0.00    +0.000 F 
BRANCH  20  28
ATOM     23  C   UNL     1       4.342   4.275  15.922  0.00  0.00    +0.000 C 
ATOM     24  N   UNL     1       5.639   4.565  15.372  0.00  0.00    +0.000 N 
ATOM     25  C   UNL     1       6.101   4.019  14.206  0.00  0.00    +0.000 A 
ATOM     26  N   UNL     1       7.210   4.618  13.851  0.00  0.00    +0.000 NA
ATOM     27  N   UNL     1       7.504   5.540  14.818  0.00  0.00    +0.000 NA
ATOM     28  C   UNL     1       6.610   5.449  15.793  0.00  0.00    +0.000 A 
ENDBRANCH  20  28
ENDBRANCH  17  20
ENDBRANCH  11  17
ENDBRANCH   1  15
BRANCH   8  29
ATOM     29  C   UNL     1      -0.116   9.502  22.475  0.00  0.00    +0.000 C 
ATOM     30  F   UNL     1       0.973   9.219  23.245  0.00  0.00    +0.000 F 
ATOM     31  F   UNL     1      -0.800  10.462  23.153  0.00  0.00    +0.000 F 
ATOM     32  F   UNL     1      -0.884   8.380  22.515  0.00  0.00    +0.000 F 
ENDBRANCH   8  29
BRANCH   6  33
ATOM     33  C   UNL     1      -0.791  12.691  18.658  0.00  0.00    +0.000 C 
BRANCH  33  34
ATOM     34  N   UNL     1       0.009  13.928  18.638  0.00  0.00    +0.000 NA
ATOM     35  C   UNL     1      -0.254  14.843  19.755  0.00  0.00    +0.000 C 
ATOM     36  C   UNL     1       0.921  14.773  20.717  0.00  0.00    +0.000 C 
ATOM     37  C   UNL     1       2.082  14.359  19.853  0.00  0.00    +0.000 C 
ATOM     38  F   UNL     1       2.909  13.530  20.531  0.00  0.00    +0.000 F 
ATOM     39  F   UNL     1       2.811  15.441  19.489  0.00  0.00    +0.000 F 
ATOM     40  C   UNL     1       1.471  13.676  18.635  0.00  0.00    +0.000 C 
ENDBRANCH  33  34
ENDBRANCH   6  33
TORSDOF 7
ENDMDL
MODEL 4
REMARK VINA RESULT:      -9.8      2.480      8.966
REMARK  Name = 
REMARK  9 active torsions:
REMARK  status: ('A' for Active; 'I' for Inactive)
REMARK    1  A    between atoms: C_1  and  N_2
REMARK    2  A    between atoms: C_6  and  C_7
REMARK    3  A    between atoms: C_7  and  C_10
REMARK    4  A    between atoms: C_10  and  C_11
REMARK    5  A    between atoms: C_10  and  C_13
REMARK    6  A    between atoms: C_17  and  N_18
REMARK    7  A    between atoms: C_23  and  C_24
REMARK    8  A    between atoms: C_24  and  N_25
REMARK    9  A    between atoms: C_33  and  C_34
REMARK                            x       y       z     vdW  Elec       q    Type
REMARK                         _______ _______ _______ _____ _____    ______ ____
ROOT
ATOM      1  N   UNL     1       1.535   8.033  20.127  0.00  0.00    +0.000 N 
ATOM      2  C   UNL     1       1.572   6.665  20.554  0.00  0.00    +0.000 C 
ATOM      3  C   UNL     1       2.297   5.934  19.498  0.00  0.00    +0.000 A 
ATOM      4  C   UNL     1       2.727   6.815  18.507  0.00  0.00    +0.000 A 
ATOM      5  C   UNL     1       3.488   6.321  17.443  0.00  0.00    +0.000 A 
ATOM      6  C   UNL     1       3.758   4.922  17.376  0.00  0.00    +0.000 A 
ATOM      7  C   UNL     1       3.230   4.066  18.375  0.00  0.00    +0.000 A 
ATOM      8  C   UNL     1       2.526   4.566  19.471  0.00  0.00    +0.000 A 
ATOM      9  C   UNL     1       2.230   8.196  18.898  0.00  0.00    +0.000 C 
ATOM     10  O   UNL     1       2.404   9.196  18.238  0.00  0.00    +0.000 OA
ENDROOT
BRANCH   1  15
ATOM     11  C   UNL     1      -0.528  11.110  20.897  0.00  0.00    +0.000 A 
ATOM     12  C   UNL     1      -0.632  11.013  22.285  0.00  0.00    +0.000 A 
ATOM     13  C   UNL     1      -0.083   9.902  22.961  0.00  0.00    +0.000 A 
ATOM     14  C   UNL     1       0.622   8.893  22.287  0.00  0.00    +0.000 A 
ATOM     15  C   UNL     1       0.740   8.940  20.908  0.00  0.00    +0.000 A 
ATOM     16  C   UNL     1       0.097  10.030  20.242  0.00  0.00    +0.000 A 
BRANCH  11  17
ATOM     17  C   UNL     1      -0.841  12.400  20.086  0.00  0.00    +0.000 C 
ATOM     18  C   UNL     1      -2.060  12.074  19.201  0.00  0.00    +0.000 C 
ATOM     19  F   UNL     1      -1.276  13.398  20.943  0.00  0.00    +0.000 F 
BRANCH  17  20
ATOM     20  C   UNL     1       0.353  13.011  19.265  0.00  0.00    +0.000 C 
ATOM     21  F   UNL     1      -0.103  14.045  18.498  0.00  0.00    +0.000 F 
ATOM     22  F   UNL     1       0.805  12.077  18.375  0.00  0.00    +0.000 F 
BRANCH  20  28
ATOM     23  C   UNL     1       3.303  14.100  18.426  0.00  0.00    +0.000 C 
ATOM     24  N   UNL     1       2.757  13.888  19.741  0.00  0.00    +0.000 N 
ATOM     25  C   UNL     1       3.454  14.130  20.892  0.00  0.00    +0.000 A 
ATOM     26  N   UNL     1       2.647  14.048  21.918  0.00  0.00    +0.000 NA
ATOM     27  N   UNL     1       1.411  13.707  21.440  0.00  0.00    +0.000 NA
ATOM     28  C   UNL     1       1.490  13.512  20.131  0.00  0.00    +0.000 A 
ENDBRANCH  20  28
ENDBRANCH  17  20
ENDBRANCH  11  17
ENDBRANCH   1  15
BRANCH   8  29
ATOM     29  C   UNL     1       2.082   3.658  20.591  0.00  0.00    +0.000 C 
ATOM     30  F   UNL     1       0.729   3.578  20.734  0.00  0.00    +0.000 F 
ATOM     31  F   UNL     1       2.506   2.377  20.428  0.00  0.00    +0.000 F 
ATOM     32  F   UNL     1       2.546   4.069  21.802  0.00  0.00    +0.000 F 
ENDBRANCH   8  29
BRANCH   6  33
ATOM     33  C   UNL     1       4.715   4.284  16.363  0.00  0.00    +0.000 C 
BRANCH  33  34
ATOM     34  N   UNL     1       6.136   4.369  16.743  0.00  0.00    +0.000 NA
ATOM     35  C   UNL     1       6.808   5.603  16.320  0.00  0.00    +0.000 C 
ATOM     36  C   UNL     1       7.015   6.479  17.546  0.00  0.00    +0.000 C 
ATOM     37  C   UNL     1       7.072   5.505  18.691  0.00  0.00    +0.000 C 
ATOM     38  F   UNL     1       6.481   6.027  19.791  0.00  0.00    +0.000 F 
ATOM     39  F   UNL     1       8.358   5.234  19.019  0.00  0.00    +0.000 F 
ATOM     40  C   UNL     1       6.355   4.250  18.206  0.00  0.00    +0.000 C 
ENDBRANCH  33  34
ENDBRANCH   6  33
TORSDOF 7
ENDMDL
MODEL 5
REMARK VINA RESULT:      -9.8      1.252      2.286
REMARK  Name = 
REMARK  9 active torsions:
REMARK  status: ('A' for Active; 'I' for Inactive)
REMARK    1  A    between atoms: C_1  and  N_2
REMARK    2  A    between atoms: C_6  and  C_7
REMARK    3  A    between atoms: C_7  and  C_10
REMARK    4  A    between atoms: C_10  and  C_11
REMARK    5  A    between atoms: C_10  and  C_13
REMARK    6  A    between atoms: C_17  and  N_18
REMARK    7  A    between atoms: C_23  and  C_24
REMARK    8  A    between atoms: C_24  and  N_25
REMARK    9  A    between atoms: C_33  and  C_34
REMARK                            x       y       z     vdW  Elec       q    Type
REMARK                         _______ _______ _______ _____ _____    ______ ____
ROOT
ATOM      1  N   UNL     1       2.178   7.459  19.474  0.00  0.00    +0.000 N 
ATOM      2  C   UNL     1       1.469   7.853  20.657  0.00  0.00    +0.000 C 
ATOM      3  C   UNL     1       0.957   9.209  20.386  0.00  0.00    +0.000 A 
ATOM      4  C   UNL     1       1.287   9.602  19.090  0.00  0.00    +0.000 A 
ATOM      5  C   UNL     1       0.837  10.840  18.621  0.00  0.00    +0.000 A 
ATOM      6  C   UNL     1       0.098  11.686  19.501  0.00  0.00    +0.000 A 
ATOM      7  C   UNL     1      -0.141  11.263  20.832  0.00  0.00    +0.000 A 
ATOM      8  C   UNL     1       0.251  10.000  21.281  0.00  0.00    +0.000 A 
ATOM      9  C   UNL     1       2.094   8.471  18.478  0.00  0.00    +0.000 C 
ATOM     10  O   UNL     1       2.567   8.495  17.364  0.00  0.00    +0.000 OA
ENDROOT
BRANCH   1  15
ATOM     11  C   UNL     1       5.125   5.121  19.072  0.00  0.00    +0.000 A 
ATOM     12  C   UNL     1       4.513   3.889  19.305  0.00  0.00    +0.000 A 
ATOM     13  C   UNL     1       3.147   3.831  19.659  0.00  0.00    +0.000 A 
ATOM     14  C   UNL     1       2.350   4.982  19.743  0.00  0.00    +0.000 A 
ATOM     15  C   UNL     1       2.916   6.228  19.533  0.00  0.00    +0.000 A 
ATOM     16  C   UNL     1       4.320   6.263  19.263  0.00  0.00    +0.000 A 
BRANCH  11  17
ATOM     17  C   UNL     1       6.523   5.291  18.413  0.00  0.00    +0.000 C 
ATOM     18  C   UNL     1       7.476   5.767  19.528  0.00  0.00    +0.000 C 
ATOM     19  F   UNL     1       7.013   4.054  18.027  0.00  0.00    +0.000 F 
BRANCH  17  20
ATOM     20  C   UNL     1       6.584   6.208  17.137  0.00  0.00    +0.000 C 
ATOM     21  F   UNL     1       7.708   6.984  17.185  0.00  0.00    +0.000 F 
ATOM     22  F   UNL     1       5.539   7.089  17.173  0.00  0.00    +0.000 F 
BRANCH  20  28
ATOM     23  C   UNL     1       4.330   4.226  15.882  0.00  0.00    +0.000 C 
ATOM     24  N   UNL     1       5.641   4.538  15.377  0.00  0.00    +0.000 N 
ATOM     25  C   UNL     1       6.150   4.006  14.225  0.00  0.00    +0.000 A 
ATOM     26  N   UNL     1       7.261   4.623  13.912  0.00  0.00    +0.000 NA
ATOM     27  N   UNL     1       7.507   5.545  14.892  0.00  0.00    +0.000 NA
ATOM     28  C   UNL     1       6.582   5.435  15.835  0.00  0.00    +0.000 A 
ENDBRANCH  20  28
ENDBRANCH  17  20
ENDBRANCH  11  17
ENDBRANCH   1  15
BRANCH   8  29
ATOM     29  C   UNL     1      -0.124   9.513  22.658  0.00  0.00    +0.000 C 
ATOM     30  F   UNL     1      -0.835  10.416  23.390  0.00  0.00    +0.000 F 
ATOM     31  F   UNL     1      -0.886   8.388  22.628  0.00  0.00    +0.000 F 
ATOM     32  F   UNL     1       0.968   9.220  23.415  0.00  0.00    +0.000 F 
ENDBRANCH   8  29
BRANCH   6  33
ATOM     33  C   UNL     1      -0.591  12.982  19.060  0.00  0.00    +0.000 C 
BRANCH  33  34
ATOM     34  N   UNL     1      -0.126  14.183  19.775  0.00  0.00    +0.000 NA
ATOM     35  C   UNL     1       1.288  14.512  19.559  0.00  0.00    +0.000 C 
ATOM     36  C   UNL     1       1.363  15.723  18.643  0.00  0.00    +0.000 C 
ATOM     37  C   UNL     1       0.065  16.446  18.878  0.00  0.00    +0.000 C 
ATOM     38  F   UNL     1      -0.392  16.993  17.727  0.00  0.00    +0.000 F 
ATOM     39  F   UNL     1       0.240  17.459  19.760  0.00  0.00    +0.000 F 
ATOM     40  C   UNL     1      -0.899  15.402  19.429  0.00  0.00    +0.000 C 
ENDBRANCH  33  34
ENDBRANCH   6  33
TORSDOF 7
ENDMDL
MODEL 6
REMARK VINA RESULT:      -9.8      1.815      2.784
REMARK  Name = 
REMARK  9 active torsions:
REMARK  status: ('A' for Active; 'I' for Inactive)
REMARK    1  A    between atoms: C_1  and  N_2
REMARK    2  A    between atoms: C_6  and  C_7
REMARK    3  A    between atoms: C_7  and  C_10
REMARK    4  A    between atoms: C_10  and  C_11
REMARK    5  A    between atoms: C_10  and  C_13
REMARK    6  A    between atoms: C_17  and  N_18
REMARK    7  A    between atoms: C_23  and  C_24
REMARK    8  A    between atoms: C_24  and  N_25
REMARK    9  A    between atoms: C_33  and  C_34
REMARK                            x       y       z     vdW  Elec       q    Type
REMARK                         _______ _______ _______ _____ _____    ______ ____
ROOT
ATOM      1  N   UNL     1       2.273   7.424  19.265  0.00  0.00    +0.000 N 
ATOM      2  C   UNL     1       1.551   7.797  20.446  0.00  0.00    +0.000 C 
ATOM      3  C   UNL     1       1.008   9.141  20.177  0.00  0.00    +0.000 A 
ATOM      4  C   UNL     1       1.332   9.546  18.883  0.00  0.00    +0.000 A 
ATOM      5  C   UNL     1       0.855  10.774  18.415  0.00  0.00    +0.000 A 
ATOM      6  C   UNL     1       0.093  11.600  19.295  0.00  0.00    +0.000 A 
ATOM      7  C   UNL     1      -0.141  11.167  20.624  0.00  0.00    +0.000 A 
ATOM      8  C   UNL     1       0.279   9.914  21.071  0.00  0.00    +0.000 A 
ATOM      9  C   UNL     1       2.169   8.435  18.272  0.00  0.00    +0.000 C 
ATOM     10  O   UNL     1       2.645   8.474  17.159  0.00  0.00    +0.000 OA
ENDROOT
BRANCH   1  15
ATOM     11  C   UNL     1       5.029   4.979  18.404  0.00  0.00    +0.000 A 
ATOM     12  C   UNL     1       4.574   3.833  19.058  0.00  0.00    +0.000 A 
ATOM     13  C   UNL     1       3.397   3.882  19.837  0.00  0.00    +0.000 A 
ATOM     14  C   UNL     1       2.622   5.046  19.945  0.00  0.00    +0.000 A 
ATOM     15  C   UNL     1       3.041   6.211  19.324  0.00  0.00    +0.000 A 
ATOM     16  C   UNL     1       4.282   6.155  18.615  0.00  0.00    +0.000 A 
BRANCH  11  17
ATOM     17  C   UNL     1       6.135   4.979  17.311  0.00  0.00    +0.000 C 
ATOM     18  C   UNL     1       6.555   6.449  17.115  0.00  0.00    +0.000 C 
ATOM     19  F   UNL     1       7.269   4.343  17.792  0.00  0.00    +0.000 F 
BRANCH  17  20
ATOM     20  C   UNL     1       5.773   4.271  15.955  0.00  0.00    +0.000 C 
ATOM     21  F   UNL     1       4.471   4.532  15.636  0.00  0.00    +0.000 F 
ATOM     22  F   UNL     1       5.834   2.916  16.131  0.00  0.00    +0.000 F 
BRANCH  20  28
ATOM     23  C   UNL     1       5.581   3.518  12.794  0.00  0.00    +0.000 C 
ATOM     24  N   UNL     1       6.585   4.286  13.481  0.00  0.00    +0.000 N 
ATOM     25  C   UNL     1       7.668   4.838  12.856  0.00  0.00    +0.000 A 
ATOM     26  N   UNL     1       8.288   5.643  13.681  0.00  0.00    +0.000 NA
ATOM     27  N   UNL     1       7.627   5.588  14.878  0.00  0.00    +0.000 NA
ATOM     28  C   UNL     1       6.651   4.695  14.796  0.00  0.00    +0.000 A 
ENDBRANCH  20  28
ENDBRANCH  17  20
ENDBRANCH  11  17
ENDBRANCH   1  15
BRANCH   8  29
ATOM     29  C   UNL     1      -0.088   9.414  22.446  0.00  0.00    +0.000 C 
ATOM     30  F   UNL     1       0.984   9.152  23.245  0.00  0.00    +0.000 F 
ATOM     31  F   UNL     1      -0.850  10.300  23.140  0.00  0.00    +0.000 F 
ATOM     32  F   UNL     1      -0.793   8.251  22.400  0.00  0.00    +0.000 F 
ENDBRANCH   8  29
BRANCH   6  33
ATOM     33  C   UNL     1      -0.626  12.879  18.854  0.00  0.00    +0.000 C 
BRANCH  33  34
ATOM     34  N   UNL     1       0.138  14.114  19.105  0.00  0.00    +0.000 NA
ATOM     35  C   UNL     1      -0.116  14.733  20.411  0.00  0.00    +0.000 C 
ATOM     36  C   UNL     1       1.091  14.482  21.301  0.00  0.00    +0.000 C 
ATOM     37  C   UNL     1       2.235  14.321  20.337  0.00  0.00    +0.000 C 
ATOM     38  F   UNL     1       3.106  13.386  20.783  0.00  0.00    +0.000 F 
ATOM     39  F   UNL     1       2.922  15.482  20.219  0.00  0.00    +0.000 F 
ATOM     40  C   UNL     1       1.606  13.920  19.008  0.00  0.00    +0.000 C 
ENDBRANCH  33  34
ENDBRANCH   6  33
TORSDOF 7
ENDMDL
MODEL 7
REMARK VINA RESULT:      -9.8      2.574      9.533
REMARK  Name = 
REMARK  9 active torsions:
REMARK  status: ('A' for Active; 'I' for Inactive)
REMARK    1  A    between atoms: C_1  and  N_2
REMARK    2  A    between atoms: C_6  and  C_7
REMARK    3  A    between atoms: C_7  and  C_10
REMARK    4  A    between atoms: C_10  and  C_11
REMARK    5  A    between atoms: C_10  and  C_13
REMARK    6  A    between atoms: C_17  and  N_18
REMARK    7  A    between atoms: C_23  and  C_24
REMARK    8  A    between atoms: C_24  and  N_25
REMARK    9  A    between atoms: C_33  and  C_34
REMARK                            x       y       z     vdW  Elec       q    Type
REMARK                         _______ _______ _______ _____ _____    ______ ____
ROOT
ATOM      1  N   UNL     1       1.557   8.074  20.093  0.00  0.00    +0.000 N 
ATOM      2  C   UNL     1       1.604   6.711  20.536  0.00  0.00    +0.000 C 
ATOM      3  C   UNL     1       2.322   5.971  19.482  0.00  0.00    +0.000 A 
ATOM      4  C   UNL     1       2.738   6.841  18.475  0.00  0.00    +0.000 A 
ATOM      5  C   UNL     1       3.490   6.337  17.410  0.00  0.00    +0.000 A 
ATOM      6  C   UNL     1       3.765   4.938  17.358  0.00  0.00    +0.000 A 
ATOM      7  C   UNL     1       3.251   4.092  18.373  0.00  0.00    +0.000 A 
ATOM      8  C   UNL     1       2.556   4.603  19.470  0.00  0.00    +0.000 A 
ATOM      9  C   UNL     1       2.238   8.224  18.855  0.00  0.00    +0.000 C 
ATOM     10  O   UNL     1       2.401   9.217  18.181  0.00  0.00    +0.000 OA
ENDROOT
BRANCH   1  15
ATOM     11  C   UNL     1       0.048  11.380  21.146  0.00  0.00    +0.000 A 
ATOM     12  C   UNL     1      -0.502  11.034  22.381  0.00  0.00    +0.000 A 
ATOM     13  C   UNL     1      -0.435   9.699  22.837  0.00  0.00    +0.000 A 
ATOM     14  C   UNL     1       0.217   8.694  22.108  0.00  0.00    +0.000 A 
ATOM     15  C   UNL     1       0.766   8.988  20.871  0.00  0.00    +0.000 A 
ATOM     16  C   UNL     1       0.605  10.327  20.394  0.00  0.00    +0.000 A 
BRANCH  11  17
ATOM     17  C   UNL     1       0.280  12.843  20.672  0.00  0.00    +0.000 C 
ATOM     18  C   UNL     1       0.053  13.742  21.904  0.00  0.00    +0.000 C 
ATOM     19  F   UNL     1       1.613  13.022  20.338  0.00  0.00    +0.000 F 
BRANCH  17  20
ATOM     20  C   UNL     1      -0.555  13.311  19.425  0.00  0.00    +0.000 C 
ATOM     21  F   UNL     1       0.092  12.945  18.279  0.00  0.00    +0.000 F 
ATOM     22  F   UNL     1      -0.586  14.678  19.398  0.00  0.00    +0.000 F 
BRANCH  20  28
ATOM     23  C   UNL     1      -1.799  10.887  17.644  0.00  0.00    +0.000 C 
ATOM     24  N   UNL     1      -2.469  11.772  18.560  0.00  0.00    +0.000 N 
ATOM     25  C   UNL     1      -3.810  11.711  18.820  0.00  0.00    +0.000 A 
ATOM     26  N   UNL     1      -4.095  12.489  19.833  0.00  0.00    +0.000 NA
ATOM     27  N   UNL     1      -2.934  13.102  20.218  0.00  0.00    +0.000 NA
ATOM     28  C   UNL     1      -1.961  12.748  19.391  0.00  0.00    +0.000 A 
ENDBRANCH  20  28
ENDBRANCH  17  20
ENDBRANCH  11  17
ENDBRANCH   1  15
BRANCH   8  29
ATOM     29  C   UNL     1       2.128   3.708  20.606  0.00  0.00    +0.000 C 
ATOM     30  F   UNL     1       0.776   3.592  20.739  0.00  0.00    +0.000 F 
ATOM     31  F   UNL     1       2.590   2.436  20.475  0.00  0.00    +0.000 F 
ATOM     32  F   UNL     1       2.569   4.158  21.811  0.00  0.00    +0.000 F 
ENDBRANCH   8  29
BRANCH   6  33
ATOM     33  C   UNL     1       4.714   4.292  16.344  0.00  0.00    +0.000 C 
BRANCH  33  34
ATOM     34  N   UNL     1       6.131   4.316  16.746  0.00  0.00    +0.000 NA
ATOM     35  C   UNL     1       6.872   5.501  16.297  0.00  0.00    +0.000 C 
ATOM     36  C   UNL     1       7.104   6.403  17.499  0.00  0.00    +0.000 C 
ATOM     37  C   UNL     1       7.093   5.464  18.674  0.00  0.00    +0.000 C 
ATOM     38  F   UNL     1       6.511   6.049  19.747  0.00  0.00    +0.000 F 
ATOM     39  F   UNL     1       8.357   5.139  19.033  0.00  0.00    +0.000 F 
ATOM     40  C   UNL     1       6.320   4.233  18.215  0.00  0.00    +0.000 C 
ENDBRANCH  33  34
ENDBRANCH   6  33
TORSDOF 7
ENDMDL
MODEL 8
REMARK VINA RESULT:      -9.7      1.159      1.674
REMARK  Name = 
REMARK  9 active torsions:
REMARK  status: ('A' for Active; 'I' for Inactive)
REMARK    1  A    between atoms: C_1  and  N_2
REMARK    2  A    between atoms: C_6  and  C_7
REMARK    3  A    between atoms: C_7  and  C_10
REMARK    4  A    between atoms: C_10  and  C_11
REMARK    5  A    between atoms: C_10  and  C_13
REMARK    6  A    between atoms: C_17  and  N_18
REMARK    7  A    between atoms: C_23  and  C_24
REMARK    8  A    between atoms: C_24  and  N_25
REMARK    9  A    between atoms: C_33  and  C_34
REMARK                            x       y       z     vdW  Elec       q    Type
REMARK                         _______ _______ _______ _____ _____    ______ ____
ROOT
ATOM      1  N   UNL     1       2.026   7.890  19.047  0.00  0.00    +0.000 N 
ATOM      2  C   UNL     1       1.388   8.111  20.312  0.00  0.00    +0.000 C 
ATOM      3  C   UNL     1       0.936   9.514  20.294  0.00  0.00    +0.000 A 
ATOM      4  C   UNL     1       1.232  10.104  19.066  0.00  0.00    +0.000 A 
ATOM      5  C   UNL     1       0.829  11.422  18.830  0.00  0.00    +0.000 A 
ATOM      6  C   UNL     1       0.171  12.141  19.873  0.00  0.00    +0.000 A 
ATOM      7  C   UNL     1      -0.035  11.511  21.126  0.00  0.00    +0.000 A 
ATOM      8  C   UNL     1       0.308  10.176  21.340  0.00  0.00    +0.000 A 
ATOM      9  C   UNL     1       1.954   9.056  18.237  0.00  0.00    +0.000 C 
ATOM     10  O   UNL     1       2.382   9.246  17.120  0.00  0.00    +0.000 OA
ENDROOT
BRANCH   1  15
ATOM     11  C   UNL     1       4.357   5.365  17.465  0.00  0.00    +0.000 A 
ATOM     12  C   UNL     1       3.973   4.201  18.133  0.00  0.00    +0.000 A 
ATOM     13  C   UNL     1       2.994   4.258  19.150  0.00  0.00    +0.000 A 
ATOM     14  C   UNL     1       2.343   5.453  19.492  0.00  0.00    +0.000 A 
ATOM     15  C   UNL     1       2.701   6.635  18.865  0.00  0.00    +0.000 A 
ATOM     16  C   UNL     1       3.757   6.562  17.903  0.00  0.00    +0.000 A 
BRANCH  11  17
ATOM     17  C   UNL     1       5.204   5.384  16.161  0.00  0.00    +0.000 C 
ATOM     18  C   UNL     1       4.499   4.438  15.169  0.00  0.00    +0.000 C 
ATOM     19  F   UNL     1       5.132   6.637  15.574  0.00  0.00    +0.000 F 
BRANCH  17  20
ATOM     20  C   UNL     1       6.734   5.058  16.320  0.00  0.00    +0.000 C 
ATOM     21  F   UNL     1       7.442   5.702  15.347  0.00  0.00    +0.000 F 
ATOM     22  F   UNL     1       6.930   3.725  16.084  0.00  0.00    +0.000 F 
BRANCH  20  28
ATOM     23  C   UNL     1       7.480   7.992  17.514  0.00  0.00    +0.000 C 
ATOM     24  N   UNL     1       7.679   6.697  18.108  0.00  0.00    +0.000 N 
ATOM     25  C   UNL     1       8.250   6.513  19.337  0.00  0.00    +0.000 A 
ATOM     26  N   UNL     1       8.112   5.263  19.701  0.00  0.00    +0.000 NA
ATOM     27  N   UNL     1       7.478   4.607  18.681  0.00  0.00    +0.000 NA
ATOM     28  C   UNL     1       7.299   5.446  17.671  0.00  0.00    +0.000 A 
ENDBRANCH  20  28
ENDBRANCH  17  20
ENDBRANCH  11  17
ENDBRANCH   1  15
BRANCH   8  29
ATOM     29  C   UNL     1      -0.034   9.482  22.635  0.00  0.00    +0.000 C 
ATOM     30  F   UNL     1       1.052   9.053  23.338  0.00  0.00    +0.000 F 
ATOM     31  F   UNL     1      -0.728  10.279  23.490  0.00  0.00    +0.000 F 
ATOM     32  F   UNL     1      -0.795   8.371  22.439  0.00  0.00    +0.000 F 
ENDBRANCH   8  29
BRANCH   6  33
ATOM     33  C   UNL     1      -0.468  13.521  19.686  0.00  0.00    +0.000 C 
BRANCH  33  34
ATOM     34  N   UNL     1       0.450  14.646  19.936  0.00  0.00    +0.000 NA
ATOM     35  C   UNL     1       1.581  14.327  20.815  0.00  0.00    +0.000 C 
ATOM     36  C   UNL     1       2.837  14.234  19.962  0.00  0.00    +0.000 C 
ATOM     37  C   UNL     1       2.548  15.118  18.779  0.00  0.00    +0.000 C 
ATOM     38  F   UNL     1       3.083  14.595  17.652  0.00  0.00    +0.000 F 
ATOM     39  F   UNL     1       3.101  16.341  18.955  0.00  0.00    +0.000 F 
ATOM     40  C   UNL     1       1.029  15.212  18.692  0.00  0.00    +0.000 C 
ENDBRANCH  33  34
ENDBRANCH   6  33
TORSDOF 7
ENDMDL
MODEL 9
REMARK VINA RESULT:      -9.7      0.783      1.083
REMARK  Name = 
REMARK  9 active torsions:
REMARK  status: ('A' for Active; 'I' for Inactive)
REMARK    1  A    between atoms: C_1  and  N_2
REMARK    2  A    between atoms: C_6  and  C_7
REMARK    3  A    between atoms: C_7  and  C_10
REMARK    4  A    between atoms: C_10  and  C_11
REMARK    5  A    between atoms: C_10  and  C_13
REMARK    6  A    between atoms: C_17  and  N_18
REMARK    7  A    between atoms: C_23  and  C_24
REMARK    8  A    between atoms: C_24  and  N_25
REMARK    9  A    between atoms: C_33  and  C_34
REMARK                            x       y       z     vdW  Elec       q    Type
REMARK                         _______ _______ _______ _____ _____    ______ ____
ROOT
ATOM      1  N   UNL     1       1.987   7.804  19.417  0.00  0.00    +0.000 N 
ATOM      2  C   UNL     1       1.309   8.146  20.633  0.00  0.00    +0.000 C 
ATOM      3  C   UNL     1       0.873   9.545  20.470  0.00  0.00    +0.000 A 
ATOM      4  C   UNL     1       1.217  10.016  19.204  0.00  0.00    +0.000 A 
ATOM      5  C   UNL     1       0.836  11.310  18.834  0.00  0.00    +0.000 A 
ATOM      6  C   UNL     1       0.151  12.127  19.782  0.00  0.00    +0.000 A 
ATOM      7  C   UNL     1      -0.104  11.618  21.080  0.00  0.00    +0.000 A 
ATOM      8  C   UNL     1       0.218  10.305  21.429  0.00  0.00    +0.000 A 
ATOM      9  C   UNL     1       1.955   8.891  18.501  0.00  0.00    +0.000 C 
ATOM     10  O   UNL     1       2.422   8.972  17.387  0.00  0.00    +0.000 OA
ENDROOT
BRANCH   1  15
ATOM     11  C   UNL     1       4.278   5.092  18.107  0.00  0.00    +0.000 A 
ATOM     12  C   UNL     1       3.903   4.021  18.918  0.00  0.00    +0.000 A 
ATOM     13  C   UNL     1       2.945   4.206  19.940  0.00  0.00    +0.000 A 
ATOM     14  C   UNL     1       2.305   5.437  20.147  0.00  0.00    +0.000 A 
ATOM     15  C   UNL     1       2.654   6.532  19.375  0.00  0.00    +0.000 A 
ATOM     16  C   UNL     1       3.690   6.338  18.408  0.00  0.00    +0.000 A 
BRANCH  11  17
ATOM     17  C   UNL     1       5.098   4.949  16.793  0.00  0.00    +0.000 C 
ATOM     18  C   UNL     1       4.510   3.737  16.043  0.00  0.00    +0.000 C 
ATOM     19  F   UNL     1       4.853   6.035  15.968  0.00  0.00    +0.000 F 
BRANCH  17  20
ATOM     20  C   UNL     1       6.659   4.858  16.955  0.00  0.00    +0.000 C 
ATOM     21  F   UNL     1       7.218   4.459  15.774  0.00  0.00    +0.000 F 
ATOM     22  F   UNL     1       6.956   3.865  17.847  0.00  0.00    +0.000 F 
BRANCH  20  28
ATOM     23  C   UNL     1       8.058   5.683  19.775  0.00  0.00    +0.000 C 
ATOM     24  N   UNL     1       7.810   6.499  18.616  0.00  0.00    +0.000 N 
ATOM     25  C   UNL     1       8.149   7.821  18.541  0.00  0.00    +0.000 A 
ATOM     26  N   UNL     1       7.995   8.244  17.312  0.00  0.00    +0.000 NA
ATOM     27  N   UNL     1       7.508   7.197  16.578  0.00  0.00    +0.000 NA
ATOM     28  C   UNL     1       7.300   6.162  17.380  0.00  0.00    +0.000 A 
ENDBRANCH  20  28
ENDBRANCH  17  20
ENDBRANCH  11  17
ENDBRANCH   1  15
BRANCH   8  29
ATOM     29  C   UNL     1      -0.176   9.737  22.769  0.00  0.00    +0.000 C 
ATOM     30  F   UNL     1      -0.927  10.583  23.530  0.00  0.00    +0.000 F 
ATOM     31  F   UNL     1      -0.908   8.597  22.662  0.00  0.00    +0.000 F 
ATOM     32  F   UNL     1       0.905   9.431  23.537  0.00  0.00    +0.000 F 
ENDBRANCH   8  29
BRANCH   6  33
ATOM     33  C   UNL     1      -0.466  13.489  19.447  0.00  0.00    +0.000 C 
BRANCH  33  34
ATOM     34  N   UNL     1       0.337  14.639  19.896  0.00  0.00    +0.000 NA
ATOM     35  C   UNL     1       1.593  14.282  20.566  0.00  0.00    +0.000 C 
ATOM     36  C   UNL     1       2.742  14.577  19.615  0.00  0.00    +0.000 C 
ATOM     37  C   UNL     1       2.216  15.669  18.724  0.00  0.00    +0.000 C 
ATOM     38  F   UNL     1       2.672  15.515  17.460  0.00  0.00    +0.000 F 
ATOM     39  F   UNL     1       2.639  16.879  19.158  0.00  0.00    +0.000 F 
ATOM     40  C   UNL     1       0.696  15.565  18.793  0.00  0.00    +0.000 C 
ENDBRANCH  33  34
ENDBRANCH   6  33
TORSDOF 7
ENDMDL
