MODEL 1
REMARK VINA RESULT:      -9.9      0.000      0.000
REMARK  Name = 
REMARK  10 active torsions:
REMARK  status: ('A' for Active; 'I' for Inactive)
REMARK    1  A    between atoms: C_1  and  N_2
REMARK    2  A    between atoms: C_5  and  O_6
REMARK    3  A    between atoms: C_7  and  C_8
REMARK    4  A    between atoms: C_8  and  C_9
REMARK    5  A    between atoms: C_13  and  C_14
REMARK    6  A    between atoms: N_20  and  C_21
REMARK    7  A    between atoms: C_25  and  C_26
REMARK    8  A    between atoms: C_26  and  C_27
REMARK    9  A    between atoms: C_27  and  C_28
REMARK   10  A    between atoms: N_32  and  C_33
REMARK                            x       y       z     vdW  Elec       q    Type
REMARK                         _______ _______ _______ _____ _____    ______ ____
ROOT
ATOM      1  C   UNL     1       0.120  11.498  19.202  0.00  0.00    +0.000 A 
ATOM      2  C   UNL     1       0.985  10.687  18.465  0.00  0.00    +0.000 A 
ATOM      3  C   UNL     1       1.381   9.500  19.039  0.00  0.00    +0.000 A 
ATOM      4  C   UNL     1       1.028   9.105  20.322  0.00  0.00    +0.000 A 
ATOM      5  C   UNL     1       0.265   9.942  21.126  0.00  0.00    +0.000 A 
ATOM      6  C   UNL     1      -0.208  11.137  20.535  0.00  0.00    +0.000 A 
ATOM      7  C   UNL     1       1.554   7.729  20.574  0.00  0.00    +0.000 C 
ATOM      8  N   UNL     1       2.202   7.389  19.312  0.00  0.00    +0.000 N 
ATOM      9  C   UNL     1       2.136   8.430  18.395  0.00  0.00    +0.000 C 
ATOM     10  O   UNL     1       2.542   8.529  17.251  0.00  0.00    +0.000 OA
ENDROOT
BRANCH   8  11
ATOM     11  C   UNL     1       2.830   6.144  19.097  0.00  0.00    +0.000 A 
ATOM     12  C   UNL     1       2.633   5.068  19.964  0.00  0.00    +0.000 A 
ATOM     13  C   UNL     1       3.237   3.841  19.719  0.00  0.00    +0.000 A 
ATOM     14  C   UNL     1       4.090   3.692  18.628  0.00  0.00    +0.000 A 
ATOM     15  C   UNL     1       4.369   4.766  17.760  0.00  0.00    +0.000 A 
ATOM     16  C   UNL     1       3.681   5.969  17.999  0.00  0.00    +0.000 A 
BRANCH  15  17
ATOM     17  C   UNL     1       5.455   4.659  16.597  0.00  0.00    +0.000 C 
ATOM     18  C   UNL     1       5.237   3.635  15.440  0.00  0.00    +0.000 C 
ATOM     19  O   UNL     1       5.571   4.658  14.455  0.00  0.00    +0.000 OA
ATOM     20  C   UNL     1       5.236   5.673  15.433  0.00  0.00    +0.000 C 
BRANCH  17  21
ATOM     21  C   UNL     1       6.889   4.649  17.157  0.00  0.00    +0.000 C 
BRANCH  21  22
ATOM     22  C   UNL     1       7.426   6.015  17.467  0.00  0.00    +0.000 A 
ATOM     23  N   UNL     1       7.514   7.026  16.627  0.00  0.00    +0.000 NA
ATOM     24  N   UNL     1       8.018   8.110  17.303  0.00  0.00    +0.000 NA
ATOM     25  C   UNL     1       8.242   7.740  18.544  0.00  0.00    +0.000 A 
ATOM     26  N   UNL     1       7.894   6.431  18.691  0.00  0.00    +0.000 N 
ATOM     27  C   UNL     1       8.006   5.677  19.910  0.00  0.00    +0.000 C 
ENDBRANCH  21  22
ENDBRANCH  17  21
ENDBRANCH  15  17
ENDBRANCH   8  11
BRANCH   5  28
ATOM     28  C   UNL     1      -0.061   9.600  22.558  0.00  0.00    +0.000 C 
ATOM     29  F   UNL     1      -0.877   8.514  22.686  0.00  0.00    +0.000 F 
ATOM     30  F   UNL     1       1.055   9.303  23.281  0.00  0.00    +0.000 F 
ATOM     31  F   UNL     1      -0.684  10.609  23.217  0.00  0.00    +0.000 F 
ENDBRANCH   5  28
BRANCH   1  32
ATOM     32  C   UNL     1      -0.515  12.693  18.523  0.00  0.00    +0.000 C 
BRANCH  32  38
ATOM     33  C   UNL     1       3.298  15.131  18.245  0.00  0.00    +0.000 C 
ATOM     34  N   UNL     1       2.599  14.802  19.487  0.00  0.00    +0.000 NA
ATOM     35  C   UNL     1       1.909  15.968  20.053  0.00  0.00    +0.000 C 
ATOM     36  C   UNL     1       0.640  16.359  19.298  0.00  0.00    +0.000 C 
ATOM     37  C   UNL     1      -0.311  15.175  19.140  0.00  0.00    +0.000 C 
ATOM     38  C   UNL     1       0.408  13.941  18.562  0.00  0.00    +0.000 C 
ATOM     39  C   UNL     1       1.700  13.645  19.345  0.00  0.00    +0.000 C 
BRANCH  37  40
ATOM     40  O   UNL     1      -0.930  14.873  20.392  0.00  0.00    +0.000 OA
ATOM     41  H   UNL     1      -0.403  14.191  20.841  0.00  0.00    +0.000 HD
ENDBRANCH  37  40
ENDBRANCH  32  38
ENDBRANCH   1  32
TORSDOF 8
ENDMDL
MODEL 2
REMARK VINA RESULT:      -9.7      1.589      2.414
REMARK  Name = 
REMARK  10 active torsions:
REMARK  status: ('A' for Active; 'I' for Inactive)
REMARK    1  A    between atoms: C_1  and  N_2
REMARK    2  A    between atoms: C_5  and  O_6
REMARK    3  A    between atoms: C_7  and  C_8
REMARK    4  A    between atoms: C_8  and  C_9
REMARK    5  A    between atoms: C_13  and  C_14
REMARK    6  A    between atoms: N_20  and  C_21
REMARK    7  A    between atoms: C_25  and  C_26
REMARK    8  A    between atoms: C_26  and  C_27
REMARK    9  A    between atoms: C_27  and  C_28
REMARK   10  A    between atoms: N_32  and  C_33
REMARK                            x       y       z     vdW  Elec       q    Type
REMARK                         _______ _______ _______ _____ _____    ______ ____
ROOT
ATOM      1  C   UNL     1       0.030  11.895  19.596  0.00  0.00    +0.000 A 
ATOM      2  C   UNL     1       0.842  11.196  18.701  0.00  0.00    +0.000 A 
ATOM      3  C   UNL     1       1.217   9.919  19.055  0.00  0.00    +0.000 A 
ATOM      4  C   UNL     1       0.895   9.324  20.268  0.00  0.00    +0.000 A 
ATOM      5  C   UNL     1       0.188  10.036  21.228  0.00  0.00    +0.000 A 
ATOM      6  C   UNL     1      -0.264  11.325  20.862  0.00  0.00    +0.000 A 
ATOM      7  C   UNL     1       1.383   7.913  20.267  0.00  0.00    +0.000 C 
ATOM      8  N   UNL     1       1.977   7.770  18.942  0.00  0.00    +0.000 N 
ATOM      9  C   UNL     1       1.914   8.951  18.213  0.00  0.00    +0.000 C 
ATOM     10  O   UNL     1       2.285   9.228  17.087  0.00  0.00    +0.000 OA
ENDROOT
BRANCH   8  11
ATOM     11  C   UNL     1       2.555   6.562  18.499  0.00  0.00    +0.000 A 
ATOM     12  C   UNL     1       1.848   5.359  18.533  0.00  0.00    +0.000 A 
ATOM     13  C   UNL     1       2.424   4.185  18.065  0.00  0.00    +0.000 A 
ATOM     14  C   UNL     1       3.739   4.191  17.606  0.00  0.00    +0.000 A 
ATOM     15  C   UNL     1       4.514   5.368  17.609  0.00  0.00    +0.000 A 
ATOM     16  C   UNL     1       3.871   6.548  18.021  0.00  0.00    +0.000 A 
BRANCH  15  17
ATOM     17  C   UNL     1       6.062   5.367  17.229  0.00  0.00    +0.000 C 
ATOM     18  C   UNL     1       6.766   6.716  16.884  0.00  0.00    +0.000 C 
ATOM     19  O   UNL     1       7.883   6.372  17.758  0.00  0.00    +0.000 OA
ATOM     20  C   UNL     1       7.015   5.449  18.461  0.00  0.00    +0.000 C 
BRANCH  17  21
ATOM     21  C   UNL     1       6.407   4.232  16.247  0.00  0.00    +0.000 C 
BRANCH  21  22
ATOM     22  C   UNL     1       6.967   4.713  14.942  0.00  0.00    +0.000 A 
ATOM     23  N   UNL     1       7.994   5.525  14.787  0.00  0.00    +0.000 NA
ATOM     24  N   UNL     1       8.218   5.690  13.442  0.00  0.00    +0.000 NA
ATOM     25  C   UNL     1       7.317   4.986  12.796  0.00  0.00    +0.000 A 
ATOM     26  N   UNL     1       6.505   4.363  13.695  0.00  0.00    +0.000 N 
ATOM     27  C   UNL     1       5.397   3.511  13.359  0.00  0.00    +0.000 C 
ENDBRANCH  21  22
ENDBRANCH  17  21
ENDBRANCH  15  17
ENDBRANCH   8  11
BRANCH   5  28
ATOM     28  C   UNL     1      -0.101   9.469  22.595  0.00  0.00    +0.000 C 
ATOM     29  F   UNL     1      -0.847   8.328  22.564  0.00  0.00    +0.000 F 
ATOM     30  F   UNL     1       1.039   9.140  23.264  0.00  0.00    +0.000 F 
ATOM     31  F   UNL     1      -0.777  10.331  23.396  0.00  0.00    +0.000 F 
ENDBRANCH   5  28
BRANCH   1  32
ATOM     32  C   UNL     1      -0.587  13.203  19.149  0.00  0.00    +0.000 C 
BRANCH  32  38
ATOM     33  C   UNL     1       3.396  15.313  19.637  0.00  0.00    +0.000 C 
ATOM     34  N   UNL     1       2.191  15.603  20.413  0.00  0.00    +0.000 NA
ATOM     35  C   UNL     1       1.578  16.877  20.017  0.00  0.00    +0.000 C 
ATOM     36  C   UNL     1       0.851  16.821  18.675  0.00  0.00    +0.000 C 
ATOM     37  C   UNL     1      -0.164  15.680  18.630  0.00  0.00    +0.000 C 
ATOM     38  C   UNL     1       0.465  14.342  19.061  0.00  0.00    +0.000 C 
ATOM     39  C   UNL     1       1.221  14.496  20.393  0.00  0.00    +0.000 C 
BRANCH  37  40
ATOM     40  O   UNL     1      -1.298  16.001  19.439  0.00  0.00    +0.000 OA
ATOM     41  H   UNL     1      -2.098  15.929  18.892  0.00  0.00    +0.000 HD
ENDBRANCH  37  40
ENDBRANCH  32  38
ENDBRANCH   1  32
TORSDOF 8
ENDMDL
MODEL 3
REMARK VINA RESULT:      -9.7      2.192      3.101
REMARK  Name = 
REMARK  10 active torsions:
REMARK  status: ('A' for Active; 'I' for Inactive)
REMARK    1  A    between atoms: C_1  and  N_2
REMARK    2  A    between atoms: C_5  and  O_6
REMARK    3  A    between atoms: C_7  and  C_8
REMARK    4  A    between atoms: C_8  and  C_9
REMARK    5  A    between atoms: C_13  and  C_14
REMARK    6  A    between atoms: N_20  and  C_21
REMARK    7  A    between atoms: C_25  and  C_26
REMARK    8  A    between atoms: C_26  and  C_27
REMARK    9  A    between atoms: C_27  and  C_28
REMARK   10  A    between atoms: N_32  and  C_33
REMARK                            x       y       z     vdW  Elec       q    Type
REMARK                         _______ _______ _______ _____ _____    ______ ____
ROOT
ATOM      1  C   UNL     1      -0.303  10.904  19.287  0.00  0.00    +0.000 A 
ATOM      2  C   UNL     1       0.544  10.134  18.488  0.00  0.00    +0.000 A 
ATOM      3  C   UNL     1       1.189   9.076  19.090  0.00  0.00    +0.000 A 
ATOM      4  C   UNL     1       1.098   8.782  20.444  0.00  0.00    +0.000 A 
ATOM      5  C   UNL     1       0.357   9.599  21.288  0.00  0.00    +0.000 A 
ATOM      6  C   UNL     1      -0.367  10.653  20.682  0.00  0.00    +0.000 A 
ATOM      7  C   UNL     1       1.848   7.521  20.723  0.00  0.00    +0.000 C 
ATOM      8  N   UNL     1       2.336   7.129  19.405  0.00  0.00    +0.000 N 
ATOM      9  C   UNL     1       1.981   8.046  18.425  0.00  0.00    +0.000 C 
ATOM     10  O   UNL     1       2.187   8.070  17.225  0.00  0.00    +0.000 OA
ENDROOT
BRANCH   8  11
ATOM     11  C   UNL     1       3.094   5.958  19.198  0.00  0.00    +0.000 A 
ATOM     12  C   UNL     1       3.104   4.920  20.131  0.00  0.00    +0.000 A 
ATOM     13  C   UNL     1       3.834   3.762  19.896  0.00  0.00    +0.000 A 
ATOM     14  C   UNL     1       4.607   3.650  18.743  0.00  0.00    +0.000 A 
ATOM     15  C   UNL     1       4.678   4.695  17.800  0.00  0.00    +0.000 A 
ATOM     16  C   UNL     1       3.868   5.820  18.040  0.00  0.00    +0.000 A 
BRANCH  15  17
ATOM     17  C   UNL     1       5.670   4.649  16.553  0.00  0.00    +0.000 C 
ATOM     18  C   UNL     1       5.426   3.604  15.421  0.00  0.00    +0.000 C 
ATOM     19  O   UNL     1       5.611   4.639  14.409  0.00  0.00    +0.000 OA
ATOM     20  C   UNL     1       5.292   5.638  15.409  0.00  0.00    +0.000 C 
BRANCH  17  21
ATOM     21  C   UNL     1       7.143   4.736  16.994  0.00  0.00    +0.000 C 
BRANCH  21  22
ATOM     22  C   UNL     1       7.571   6.114  17.404  0.00  0.00    +0.000 A 
ATOM     23  N   UNL     1       7.665   7.166  16.617  0.00  0.00    +0.000 NA
ATOM     24  N   UNL     1       8.049   8.244  17.376  0.00  0.00    +0.000 NA
ATOM     25  C   UNL     1       8.195   7.830  18.615  0.00  0.00    +0.000 A 
ATOM     26  N   UNL     1       7.916   6.498  18.678  0.00  0.00    +0.000 N 
ATOM     27  C   UNL     1       7.976   5.695  19.869  0.00  0.00    +0.000 C 
ENDBRANCH  21  22
ENDBRANCH  17  21
ENDBRANCH  15  17
ENDBRANCH   8  11
BRANCH   5  28
ATOM     28  C   UNL     1       0.308   9.378  22.779  0.00  0.00    +0.000 C 
ATOM     29  F   UNL     1      -0.355   8.242  23.138  0.00  0.00    +0.000 F 
ATOM     30  F   UNL     1       1.553   9.260  23.320  0.00  0.00    +0.000 F 
ATOM     31  F   UNL     1      -0.303  10.389  23.447  0.00  0.00    +0.000 F 
ENDBRANCH   5  28
BRANCH   1  32
ATOM     32  C   UNL     1      -1.199  11.928  18.622  0.00  0.00    +0.000 C 
BRANCH  32  38
ATOM     33  C   UNL     1      -3.567   9.828  15.375  0.00  0.00    +0.000 C 
ATOM     34  N   UNL     1      -3.723  11.233  15.754  0.00  0.00    +0.000 NA
ATOM     35  C   UNL     1      -4.968  11.465  16.496  0.00  0.00    +0.000 C 
ATOM     36  C   UNL     1      -4.934  10.951  17.934  0.00  0.00    +0.000 C 
ATOM     37  C   UNL     1      -3.726  11.489  18.697  0.00  0.00    +0.000 C 
ATOM     38  C   UNL     1      -2.415  11.266  17.920  0.00  0.00    +0.000 C 
ATOM     39  C   UNL     1      -2.549  11.762  16.468  0.00  0.00    +0.000 C 
BRANCH  37  40
ATOM     40  O   UNL     1      -3.916  12.872  19.003  0.00  0.00    +0.000 OA
ATOM     41  H   UNL     1      -4.701  13.189  18.527  0.00  0.00    +0.000 HD
ENDBRANCH  37  40
ENDBRANCH  32  38
ENDBRANCH   1  32
TORSDOF 8
ENDMDL
MODEL 4
REMARK VINA RESULT:      -9.5      1.125      1.608
REMARK  Name = 
REMARK  10 active torsions:
REMARK  status: ('A' for Active; 'I' for Inactive)
REMARK    1  A    between atoms: C_1  and  N_2
REMARK    2  A    between atoms: C_5  and  O_6
REMARK    3  A    between atoms: C_7  and  C_8
REMARK    4  A    between atoms: C_8  and  C_9
REMARK    5  A    between atoms: C_13  and  C_14
REMARK    6  A    between atoms: N_20  and  C_21
REMARK    7  A    between atoms: C_25  and  C_26
REMARK    8  A    between atoms: C_26  and  C_27
REMARK    9  A    between atoms: C_27  and  C_28
REMARK   10  A    between atoms: N_32  and  C_33
REMARK                            x       y       z     vdW  Elec       q    Type
REMARK                         _______ _______ _______ _____ _____    ______ ____
ROOT
ATOM      1  C   UNL     1       0.797  11.669  19.204  0.00  0.00    +0.000 A 
ATOM      2  C   UNL     1       1.565  10.834  18.390  0.00  0.00    +0.000 A 
ATOM      3  C   UNL     1       1.779   9.547  18.830  0.00  0.00    +0.000 A 
ATOM      4  C   UNL     1       1.340   9.063  20.055  0.00  0.00    +0.000 A 
ATOM      5  C   UNL     1       0.675   9.902  20.940  0.00  0.00    +0.000 A 
ATOM      6  C   UNL     1       0.386  11.210  20.483  0.00  0.00    +0.000 A 
ATOM      7  C   UNL     1       1.668   7.609  20.154  0.00  0.00    +0.000 C 
ATOM      8  N   UNL     1       2.300   7.326  18.870  0.00  0.00    +0.000 N 
ATOM      9  C   UNL     1       2.401   8.462  18.077  0.00  0.00    +0.000 C 
ATOM     10  O   UNL     1       2.849   8.631  16.958  0.00  0.00    +0.000 OA
ENDROOT
BRANCH   8  11
ATOM     11  C   UNL     1       2.759   6.038  18.522  0.00  0.00    +0.000 A 
ATOM     12  C   UNL     1       2.217   4.889  19.100  0.00  0.00    +0.000 A 
ATOM     13  C   UNL     1       2.662   3.629  18.723  0.00  0.00    +0.000 A 
ATOM     14  C   UNL     1       3.696   3.505  17.798  0.00  0.00    +0.000 A 
ATOM     15  C   UNL     1       4.317   4.636  17.233  0.00  0.00    +0.000 A 
ATOM     16  C   UNL     1       3.789   5.891  17.585  0.00  0.00    +0.000 A 
BRANCH  15  17
ATOM     17  C   UNL     1       5.598   4.521  16.290  0.00  0.00    +0.000 C 
ATOM     18  C   UNL     1       5.604   3.471  15.135  0.00  0.00    +0.000 C 
ATOM     19  O   UNL     1       6.101   4.479  14.205  0.00  0.00    +0.000 OA
ATOM     20  C   UNL     1       5.585   5.509  15.084  0.00  0.00    +0.000 C 
BRANCH  17  21
ATOM     21  C   UNL     1       6.906   4.541  17.101  0.00  0.00    +0.000 C 
BRANCH  21  22
ATOM     22  C   UNL     1       7.399   5.921  17.419  0.00  0.00    +0.000 A 
ATOM     23  N   UNL     1       7.441   6.943  16.589  0.00  0.00    +0.000 NA
ATOM     24  N   UNL     1       7.916   8.037  17.270  0.00  0.00    +0.000 NA
ATOM     25  C   UNL     1       8.168   7.663  18.504  0.00  0.00    +0.000 A 
ATOM     26  N   UNL     1       7.868   6.341  18.641  0.00  0.00    +0.000 N 
ATOM     27  C   UNL     1       8.022   5.579  19.851  0.00  0.00    +0.000 C 
ENDBRANCH  21  22
ENDBRANCH  17  21
ENDBRANCH  15  17
ENDBRANCH   8  11
BRANCH   5  28
ATOM     28  C   UNL     1       0.265   9.452  22.319  0.00  0.00    +0.000 C 
ATOM     29  F   UNL     1       1.310   9.017  23.081  0.00  0.00    +0.000 F 
ATOM     30  F   UNL     1      -0.314  10.456  23.034  0.00  0.00    +0.000 F 
ATOM     31  F   UNL     1      -0.629   8.432  22.301  0.00  0.00    +0.000 F 
ENDBRANCH   5  28
BRANCH   1  32
ATOM     32  C   UNL     1       0.349  13.008  18.658  0.00  0.00    +0.000 C 
BRANCH  32  38
ATOM     33  C   UNL     1      -1.046  15.857  21.897  0.00  0.00    +0.000 C 
ATOM     34  N   UNL     1      -0.705  16.243  20.528  0.00  0.00    +0.000 NA
ATOM     35  C   UNL     1       0.574  16.961  20.463  0.00  0.00    +0.000 C 
ATOM     36  C   UNL     1       1.795  16.063  20.646  0.00  0.00    +0.000 C 
ATOM     37  C   UNL     1       1.775  14.879  19.682  0.00  0.00    +0.000 C 
ATOM     38  C   UNL     1       0.431  14.129  19.729  0.00  0.00    +0.000 C 
ATOM     39  C   UNL     1      -0.748  15.109  19.590  0.00  0.00    +0.000 C 
BRANCH  37  40
ATOM     40  O   UNL     1       2.072  15.323  18.356  0.00  0.00    +0.000 OA
ATOM     41  H   UNL     1       2.582  14.630  17.905  0.00  0.00    +0.000 HD
ENDBRANCH  37  40
ENDBRANCH  32  38
ENDBRANCH   1  32
TORSDOF 8
ENDMDL
MODEL 5
REMARK VINA RESULT:      -9.4      1.808      2.703
REMARK  Name = 
REMARK  10 active torsions:
REMARK  status: ('A' for Active; 'I' for Inactive)
REMARK    1  A    between atoms: C_1  and  N_2
REMARK    2  A    between atoms: C_5  and  O_6
REMARK    3  A    between atoms: C_7  and  C_8
REMARK    4  A    between atoms: C_8  and  C_9
REMARK    5  A    between atoms: C_13  and  C_14
REMARK    6  A    between atoms: N_20  and  C_21
REMARK    7  A    between atoms: C_25  and  C_26
REMARK    8  A    between atoms: C_26  and  C_27
REMARK    9  A    between atoms: C_27  and  C_28
REMARK   10  A    between atoms: N_32  and  C_33
REMARK                            x       y       z     vdW  Elec       q    Type
REMARK                         _______ _______ _______ _____ _____    ______ ____
ROOT
ATOM      1  C   UNL     1       0.060  11.944  19.748  0.00  0.00    +0.000 A 
ATOM      2  C   UNL     1       0.853  11.262  18.823  0.00  0.00    +0.000 A 
ATOM      3  C   UNL     1       1.234   9.979  19.144  0.00  0.00    +0.000 A 
ATOM      4  C   UNL     1       0.937   9.361  20.351  0.00  0.00    +0.000 A 
ATOM      5  C   UNL     1       0.250  10.053  21.340  0.00  0.00    +0.000 A 
ATOM      6  C   UNL     1      -0.209  11.350  21.009  0.00  0.00    +0.000 A 
ATOM      7  C   UNL     1       1.424   7.949  20.313  0.00  0.00    +0.000 C 
ATOM      8  N   UNL     1       1.991   7.833  18.974  0.00  0.00    +0.000 N 
ATOM      9  C   UNL     1       1.914   9.028  18.270  0.00  0.00    +0.000 C 
ATOM     10  O   UNL     1       2.261   9.327  17.142  0.00  0.00    +0.000 OA
ENDROOT
BRANCH   8  11
ATOM     11  C   UNL     1       2.559   6.634  18.495  0.00  0.00    +0.000 A 
ATOM     12  C   UNL     1       1.960   5.396  18.735  0.00  0.00    +0.000 A 
ATOM     13  C   UNL     1       2.519   4.229  18.230  0.00  0.00    +0.000 A 
ATOM     14  C   UNL     1       3.719   4.281  17.524  0.00  0.00    +0.000 A 
ATOM     15  C   UNL     1       4.393   5.500  17.309  0.00  0.00    +0.000 A 
ATOM     16  C   UNL     1       3.757   6.666  17.772  0.00  0.00    +0.000 A 
BRANCH  15  17
ATOM     17  C   UNL     1       5.837   5.565  16.635  0.00  0.00    +0.000 C 
ATOM     18  C   UNL     1       7.026   6.183  17.435  0.00  0.00    +0.000 C 
ATOM     19  O   UNL     1       7.875   5.054  17.069  0.00  0.00    +0.000 OA
ATOM     20  C   UNL     1       6.681   4.269  16.826  0.00  0.00    +0.000 C 
BRANCH  17  21
ATOM     21  C   UNL     1       5.763   6.055  15.178  0.00  0.00    +0.000 C 
BRANCH  21  22
ATOM     22  C   UNL     1       5.928   4.962  14.164  0.00  0.00    +0.000 A 
ATOM     23  N   UNL     1       5.074   3.989  13.922  0.00  0.00    +0.000 NA
ATOM     24  N   UNL     1       5.569   3.220  12.898  0.00  0.00    +0.000 NA
ATOM     25  C   UNL     1       6.727   3.728  12.539  0.00  0.00    +0.000 A 
ATOM     26  N   UNL     1       6.997   4.816  13.312  0.00  0.00    +0.000 N 
ATOM     27  C   UNL     1       8.180   5.628  13.214  0.00  0.00    +0.000 C 
ENDBRANCH  21  22
ENDBRANCH  17  21
ENDBRANCH  15  17
ENDBRANCH   8  11
BRANCH   5  28
ATOM     28  C   UNL     1      -0.011   9.460  22.701  0.00  0.00    +0.000 C 
ATOM     29  F   UNL     1      -0.669  10.306  23.545  0.00  0.00    +0.000 F 
ATOM     30  F   UNL     1      -0.785   8.341  22.632  0.00  0.00    +0.000 F 
ATOM     31  F   UNL     1       1.124   9.098  23.351  0.00  0.00    +0.000 F 
ENDBRANCH   5  28
BRANCH   1  32
ATOM     32  C   UNL     1      -0.566  13.261  19.340  0.00  0.00    +0.000 C 
BRANCH  32  38
ATOM     33  C   UNL     1       3.537  15.163  19.025  0.00  0.00    +0.000 C 
ATOM     34  N   UNL     1       2.524  15.510  20.022  0.00  0.00    +0.000 NA
ATOM     35  C   UNL     1       1.911  16.816  19.747  0.00  0.00    +0.000 C 
ATOM     36  C   UNL     1       0.932  16.803  18.575  0.00  0.00    +0.000 C 
ATOM     37  C   UNL     1      -0.128  15.716  18.736  0.00  0.00    +0.000 C 
ATOM     38  C   UNL     1       0.504  14.345  19.041  0.00  0.00    +0.000 C 
ATOM     39  C   UNL     1       1.515  14.453  20.198  0.00  0.00    +0.000 C 
BRANCH  37  40
ATOM     40  O   UNL     1      -1.063  16.090  19.750  0.00  0.00    +0.000 OA
ATOM     41  H   UNL     1      -1.935  16.207  19.339  0.00  0.00    +0.000 HD
ENDBRANCH  37  40
ENDBRANCH  32  38
ENDBRANCH   1  32
TORSDOF 8
ENDMDL
MODEL 6
REMARK VINA RESULT:      -9.2      3.523      4.738
REMARK  Name = 
REMARK  10 active torsions:
REMARK  status: ('A' for Active; 'I' for Inactive)
REMARK    1  A    between atoms: C_1  and  N_2
REMARK    2  A    between atoms: C_5  and  O_6
REMARK    3  A    between atoms: C_7  and  C_8
REMARK    4  A    between atoms: C_8  and  C_9
REMARK    5  A    between atoms: C_13  and  C_14
REMARK    6  A    between atoms: N_20  and  C_21
REMARK    7  A    between atoms: C_25  and  C_26
REMARK    8  A    between atoms: C_26  and  C_27
REMARK    9  A    between atoms: C_27  and  C_28
REMARK   10  A    between atoms: N_32  and  C_33
REMARK                            x       y       z     vdW  Elec       q    Type
REMARK                         _______ _______ _______ _____ _____    ______ ____
ROOT
ATOM      1  C   UNL     1      -1.093  11.672  22.014  0.00  0.00    +0.000 A 
ATOM      2  C   UNL     1      -0.566  10.384  21.903  0.00  0.00    +0.000 A 
ATOM      3  C   UNL     1       0.102  10.074  20.739  0.00  0.00    +0.000 A 
ATOM      4  C   UNL     1       0.215  10.936  19.657  0.00  0.00    +0.000 A 
ATOM      5  C   UNL     1      -0.399  12.181  19.689  0.00  0.00    +0.000 A 
ATOM      6  C   UNL     1      -1.035  12.548  20.899  0.00  0.00    +0.000 A 
ATOM      7  C   UNL     1       1.080  10.304  18.615  0.00  0.00    +0.000 C 
ATOM      8  N   UNL     1       1.456   9.034  19.226  0.00  0.00    +0.000 N 
ATOM      9  C   UNL     1       0.870   8.862  20.473  0.00  0.00    +0.000 C 
ATOM     10  O   UNL     1       0.944   7.957  21.285  0.00  0.00    +0.000 OA
ENDROOT
BRANCH   8  11
ATOM     11  C   UNL     1       2.303   8.108  18.582  0.00  0.00    +0.000 A 
ATOM     12  C   UNL     1       3.033   8.456  17.444  0.00  0.00    +0.000 A 
ATOM     13  C   UNL     1       3.885   7.539  16.841  0.00  0.00    +0.000 A 
ATOM     14  C   UNL     1       3.974   6.241  17.339  0.00  0.00    +0.000 A 
ATOM     15  C   UNL     1       3.210   5.824  18.447  0.00  0.00    +0.000 A 
ATOM     16  C   UNL     1       2.417   6.803  19.073  0.00  0.00    +0.000 A 
BRANCH  15  17
ATOM     17  C   UNL     1       3.184   4.308  18.939  0.00  0.00    +0.000 C 
ATOM     18  C   UNL     1       2.706   3.984  20.389  0.00  0.00    +0.000 C 
ATOM     19  O   UNL     1       1.856   2.912  19.882  0.00  0.00    +0.000 OA
ATOM     20  C   UNL     1       1.870   3.550  18.582  0.00  0.00    +0.000 C 
BRANCH  17  21
ATOM     21  C   UNL     1       4.468   3.558  18.540  0.00  0.00    +0.000 C 
BRANCH  21  22
ATOM     22  C   UNL     1       5.725   4.333  18.796  0.00  0.00    +0.000 A 
ATOM     23  N   UNL     1       6.101   4.849  19.948  0.00  0.00    +0.000 NA
ATOM     24  N   UNL     1       7.326   5.445  19.779  0.00  0.00    +0.000 NA
ATOM     25  C   UNL     1       7.675   5.295  18.521  0.00  0.00    +0.000 A 
ATOM     26  N   UNL     1       6.697   4.611  17.864  0.00  0.00    +0.000 N 
ATOM     27  C   UNL     1       6.724   4.265  16.469  0.00  0.00    +0.000 C 
ENDBRANCH  21  22
ENDBRANCH  17  21
ENDBRANCH  15  17
ENDBRANCH   8  11
BRANCH   5  28
ATOM     28  C   UNL     1      -0.388  13.112  18.503  0.00  0.00    +0.000 C 
ATOM     29  F   UNL     1       0.852  13.285  17.960  0.00  0.00    +0.000 F 
ATOM     30  F   UNL     1      -1.170  12.655  17.486  0.00  0.00    +0.000 F 
ATOM     31  F   UNL     1      -0.838  14.357  18.799  0.00  0.00    +0.000 F 
ENDBRANCH   5  28
BRANCH   1  32
ATOM     32  C   UNL     1      -1.631  12.126  23.354  0.00  0.00    +0.000 C 
BRANCH  32  38
ATOM     33  C   UNL     1      -3.006  16.440  23.118  0.00  0.00    +0.000 C 
ATOM     34  N   UNL     1      -3.240  15.544  24.250  0.00  0.00    +0.000 NA
ATOM     35  C   UNL     1      -4.642  15.114  24.327  0.00  0.00    +0.000 C 
ATOM     36  C   UNL     1      -5.029  14.082  23.270  0.00  0.00    +0.000 C 
ATOM     37  C   UNL     1      -4.081  12.884  23.276  0.00  0.00    +0.000 C 
ATOM     38  C   UNL     1      -2.607  13.325  23.213  0.00  0.00    +0.000 C 
ATOM     39  C   UNL     1      -2.312  14.402  24.273  0.00  0.00    +0.000 C 
BRANCH  37  40
ATOM     40  O   UNL     1      -4.328  12.070  24.424  0.00  0.00    +0.000 OA
ATOM     41  H   UNL     1      -3.509  12.012  24.944  0.00  0.00    +0.000 HD
ENDBRANCH  37  40
ENDBRANCH  32  38
ENDBRANCH   1  32
TORSDOF 8
ENDMDL
MODEL 7
REMARK VINA RESULT:      -9.1      2.119      3.102
REMARK  Name = 
REMARK  10 active torsions:
REMARK  status: ('A' for Active; 'I' for Inactive)
REMARK    1  A    between atoms: C_1  and  N_2
REMARK    2  A    between atoms: C_5  and  O_6
REMARK    3  A    between atoms: C_7  and  C_8
REMARK    4  A    between atoms: C_8  and  C_9
REMARK    5  A    between atoms: C_13  and  C_14
REMARK    6  A    between atoms: N_20  and  C_21
REMARK    7  A    between atoms: C_25  and  C_26
REMARK    8  A    between atoms: C_26  and  C_27
REMARK    9  A    between atoms: C_27  and  C_28
REMARK   10  A    between atoms: N_32  and  C_33
REMARK                            x       y       z     vdW  Elec       q    Type
REMARK                         _______ _______ _______ _____ _____    ______ ____
ROOT
ATOM      1  C   UNL     1      -0.256  11.818  19.755  0.00  0.00    +0.000 A 
ATOM      2  C   UNL     1       0.558  11.149  18.839  0.00  0.00    +0.000 A 
ATOM      3  C   UNL     1       1.030   9.907  19.204  0.00  0.00    +0.000 A 
ATOM      4  C   UNL     1       0.801   9.325  20.443  0.00  0.00    +0.000 A 
ATOM      5  C   UNL     1       0.094  10.014  21.419  0.00  0.00    +0.000 A 
ATOM      6  C   UNL     1      -0.457  11.263  21.046  0.00  0.00    +0.000 A 
ATOM      7  C   UNL     1       1.379   7.947  20.451  0.00  0.00    +0.000 C 
ATOM      8  N   UNL     1       1.921   7.809  19.104  0.00  0.00    +0.000 N 
ATOM      9  C   UNL     1       1.749   8.965  18.352  0.00  0.00    +0.000 C 
ATOM     10  O   UNL     1       2.050   9.237  17.204  0.00  0.00    +0.000 OA
ENDROOT
BRANCH   8  11
ATOM     11  C   UNL     1       2.555   6.630  18.662  0.00  0.00    +0.000 A 
ATOM     12  C   UNL     1       2.017   5.369  18.927  0.00  0.00    +0.000 A 
ATOM     13  C   UNL     1       2.641   4.220  18.458  0.00  0.00    +0.000 A 
ATOM     14  C   UNL     1       3.843   4.316  17.761  0.00  0.00    +0.000 A 
ATOM     15  C   UNL     1       4.457   5.562  17.522  0.00  0.00    +0.000 A 
ATOM     16  C   UNL     1       3.757   6.705  17.949  0.00  0.00    +0.000 A 
BRANCH  15  17
ATOM     17  C   UNL     1       5.902   5.685  16.861  0.00  0.00    +0.000 C 
ATOM     18  C   UNL     1       7.059   6.352  17.669  0.00  0.00    +0.000 C 
ATOM     19  O   UNL     1       7.956   5.258  17.313  0.00  0.00    +0.000 OA
ATOM     20  C   UNL     1       6.798   4.424  17.062  0.00  0.00    +0.000 C 
BRANCH  17  21
ATOM     21  C   UNL     1       5.821   6.168  15.401  0.00  0.00    +0.000 C 
BRANCH  21  22
ATOM     22  C   UNL     1       5.916   5.062  14.393  0.00  0.00    +0.000 A 
ATOM     23  N   UNL     1       5.022   4.115  14.189  0.00  0.00    +0.000 NA
ATOM     24  N   UNL     1       5.456   3.322  13.156  0.00  0.00    +0.000 NA
ATOM     25  C   UNL     1       6.616   3.789  12.752  0.00  0.00    +0.000 A 
ATOM     26  N   UNL     1       6.949   4.875  13.505  0.00  0.00    +0.000 N 
ATOM     27  C   UNL     1       8.153   5.646  13.358  0.00  0.00    +0.000 C 
ENDBRANCH  21  22
ENDBRANCH  17  21
ENDBRANCH  15  17
ENDBRANCH   8  11
BRANCH   5  28
ATOM     28  C   UNL     1      -0.096   9.466  22.810  0.00  0.00    +0.000 C 
ATOM     29  F   UNL     1       1.076   9.250  23.474  0.00  0.00    +0.000 F 
ATOM     30  F   UNL     1      -0.812  10.313  23.601  0.00  0.00    +0.000 F 
ATOM     31  F   UNL     1      -0.755   8.279  22.829  0.00  0.00    +0.000 F 
ENDBRANCH   5  28
BRANCH   1  32
ATOM     32  C   UNL     1      -0.976  13.073  19.308  0.00  0.00    +0.000 C 
BRANCH  32  38
ATOM     33  C   UNL     1      -1.273  15.707  22.986  0.00  0.00    +0.000 C 
ATOM     34  N   UNL     1      -1.826  16.033  21.672  0.00  0.00    +0.000 NA
ATOM     35  C   UNL     1      -1.051  17.083  20.997  0.00  0.00    +0.000 C 
ATOM     36  C   UNL     1       0.292  16.603  20.451  0.00  0.00    +0.000 C 
ATOM     37  C   UNL     1       0.133  15.373  19.561  0.00  0.00    +0.000 C 
ATOM     38  C   UNL     1      -0.693  14.272  20.252  0.00  0.00    +0.000 C 
ATOM     39  C   UNL     1      -2.004  14.847  20.819  0.00  0.00    +0.000 C 
BRANCH  37  40
ATOM     40  O   UNL     1      -0.450  15.746  18.310  0.00  0.00    +0.000 OA
ATOM     41  H   UNL     1      -1.166  16.380  18.479  0.00  0.00    +0.000 HD
ENDBRANCH  37  40
ENDBRANCH  32  38
ENDBRANCH   1  32
TORSDOF 8
ENDMDL
MODEL 8
REMARK VINA RESULT:      -8.9      5.082     11.335
REMARK  Name = 
REMARK  10 active torsions:
REMARK  status: ('A' for Active; 'I' for Inactive)
REMARK    1  A    between atoms: C_1  and  N_2
REMARK    2  A    between atoms: C_5  and  O_6
REMARK    3  A    between atoms: C_7  and  C_8
REMARK    4  A    between atoms: C_8  and  C_9
REMARK    5  A    between atoms: C_13  and  C_14
REMARK    6  A    between atoms: N_20  and  C_21
REMARK    7  A    between atoms: C_25  and  C_26
REMARK    8  A    between atoms: C_26  and  C_27
REMARK    9  A    between atoms: C_27  and  C_28
REMARK   10  A    between atoms: N_32  and  C_33
REMARK                            x       y       z     vdW  Elec       q    Type
REMARK                         _______ _______ _______ _____ _____    ______ ____
ROOT
ATOM      1  C   UNL     1       1.138   9.609  18.423  0.00  0.00    +0.000 A 
ATOM      2  C   UNL     1       1.025  10.411  19.560  0.00  0.00    +0.000 A 
ATOM      3  C   UNL     1      -0.213  10.952  19.830  0.00  0.00    +0.000 A 
ATOM      4  C   UNL     1      -1.320  10.803  19.007  0.00  0.00    +0.000 A 
ATOM      5  C   UNL     1      -1.212  10.109  17.809  0.00  0.00    +0.000 A 
ATOM      6  C   UNL     1       0.032   9.489  17.541  0.00  0.00    +0.000 A 
ATOM      7  C   UNL     1      -2.504  11.440  19.658  0.00  0.00    +0.000 C 
ATOM      8  N   UNL     1      -1.963  11.928  20.921  0.00  0.00    +0.000 N 
ATOM      9  C   UNL     1      -0.602  11.675  21.037  0.00  0.00    +0.000 C 
ATOM     10  O   UNL     1       0.193  11.913  21.928  0.00  0.00    +0.000 OA
ENDROOT
BRANCH   8  11
ATOM     11  C   UNL     1      -2.758  12.594  21.877  0.00  0.00    +0.000 A 
ATOM     12  C   UNL     1      -2.773  12.198  23.216  0.00  0.00    +0.000 A 
ATOM     13  C   UNL     1      -3.540  12.885  24.149  0.00  0.00    +0.000 A 
ATOM     14  C   UNL     1      -4.346  13.945  23.741  0.00  0.00    +0.000 A 
ATOM     15  C   UNL     1      -4.412  14.342  22.391  0.00  0.00    +0.000 A 
ATOM     16  C   UNL     1      -3.565  13.670  21.491  0.00  0.00    +0.000 A 
BRANCH  15  17
ATOM     17  C   UNL     1      -5.437  15.451  21.880  0.00  0.00    +0.000 C 
ATOM     18  C   UNL     1      -5.223  16.939  22.298  0.00  0.00    +0.000 C 
ATOM     19  O   UNL     1      -5.435  17.370  20.920  0.00  0.00    +0.000 OA
ATOM     20  C   UNL     1      -5.089  16.034  20.477  0.00  0.00    +0.000 C 
BRANCH  17  21
ATOM     21  C   UNL     1      -6.898  14.984  22.018  0.00  0.00    +0.000 C 
BRANCH  21  22
ATOM     22  C   UNL     1      -7.172  13.659  21.372  0.00  0.00    +0.000 A 
ATOM     23  N   UNL     1      -7.156  13.405  20.079  0.00  0.00    +0.000 NA
ATOM     24  N   UNL     1      -7.417  12.070  19.895  0.00  0.00    +0.000 NA
ATOM     25  C   UNL     1      -7.600  11.530  21.079  0.00  0.00    +0.000 A 
ATOM     26  N   UNL     1      -7.466  12.491  22.035  0.00  0.00    +0.000 N 
ATOM     27  C   UNL     1      -7.605  12.276  23.450  0.00  0.00    +0.000 C 
ENDBRANCH  21  22
ENDBRANCH  17  21
ENDBRANCH  15  17
ENDBRANCH   8  11
BRANCH   5  28
ATOM     28  C   UNL     1      -2.359  10.004  16.836  0.00  0.00    +0.000 C 
ATOM     29  F   UNL     1      -2.813  11.213  16.398  0.00  0.00    +0.000 F 
ATOM     30  F   UNL     1      -2.015   9.315  15.712  0.00  0.00    +0.000 F 
ATOM     31  F   UNL     1      -3.440   9.369  17.355  0.00  0.00    +0.000 F 
ENDBRANCH   5  28
BRANCH   1  32
ATOM     32  C   UNL     1       2.411   8.817  18.214  0.00  0.00    +0.000 C 
BRANCH  32  38
ATOM     33  C   UNL     1       0.969   5.079  20.338  0.00  0.00    +0.000 C 
ATOM     34  N   UNL     1       2.353   5.554  20.317  0.00  0.00    +0.000 NA
ATOM     35  C   UNL     1       3.204   4.722  19.457  0.00  0.00    +0.000 C 
ATOM     36  C   UNL     1       2.975   4.944  17.963  0.00  0.00    +0.000 C 
ATOM     37  C   UNL     1       3.082   6.421  17.589  0.00  0.00    +0.000 C 
ATOM     38  C   UNL     1       2.206   7.304  18.496  0.00  0.00    +0.000 C 
ATOM     39  C   UNL     1       2.459   6.983  19.981  0.00  0.00    +0.000 C 
BRANCH  37  40
ATOM     40  O   UNL     1       4.449   6.837  17.627  0.00  0.00    +0.000 OA
ATOM     41  H   UNL     1       4.477   7.791  17.811  0.00  0.00    +0.000 HD
ENDBRANCH  37  40
ENDBRANCH  32  38
ENDBRANCH   1  32
TORSDOF 8
ENDMDL
MODEL 9
REMARK VINA RESULT:      -8.9      3.739      4.905
REMARK  Name = 
REMARK  10 active torsions:
REMARK  status: ('A' for Active; 'I' for Inactive)
REMARK    1  A    between atoms: C_1  and  N_2
REMARK    2  A    between atoms: C_5  and  O_6
REMARK    3  A    between atoms: C_7  and  C_8
REMARK    4  A    between atoms: C_8  and  C_9
REMARK    5  A    between atoms: C_13  and  C_14
REMARK    6  A    between atoms: N_20  and  C_21
REMARK    7  A    between atoms: C_25  and  C_26
REMARK    8  A    between atoms: C_26  and  C_27
REMARK    9  A    between atoms: C_27  and  C_28
REMARK   10  A    between atoms: N_32  and  C_33
REMARK                            x       y       z     vdW  Elec       q    Type
REMARK                         _______ _______ _______ _____ _____    ______ ____
ROOT
ATOM      1  C   UNL     1      -1.554  12.001  22.250  0.00  0.00    +0.000 A 
ATOM      2  C   UNL     1      -0.553  11.031  22.325  0.00  0.00    +0.000 A 
ATOM      3  C   UNL     1      -0.197  10.400  21.154  0.00  0.00    +0.000 A 
ATOM      4  C   UNL     1      -0.820  10.622  19.934  0.00  0.00    +0.000 A 
ATOM      5  C   UNL     1      -1.898  11.494  19.848  0.00  0.00    +0.000 A 
ATOM      6  C   UNL     1      -2.239  12.203  21.024  0.00  0.00    +0.000 A 
ATOM      7  C   UNL     1      -0.114   9.840  18.874  0.00  0.00    +0.000 C 
ATOM      8  N   UNL     1       0.966   9.191  19.608  0.00  0.00    +0.000 N 
ATOM      9  C   UNL     1       0.925   9.486  20.965  0.00  0.00    +0.000 C 
ATOM     10  O   UNL     1       1.645   9.151  21.888  0.00  0.00    +0.000 OA
ENDROOT
BRANCH   8  11
ATOM     11  C   UNL     1       1.910   8.353  18.978  0.00  0.00    +0.000 A 
ATOM     12  C   UNL     1       2.587   8.754  17.825  0.00  0.00    +0.000 A 
ATOM     13  C   UNL     1       3.535   7.926  17.236  0.00  0.00    +0.000 A 
ATOM     14  C   UNL     1       3.778   6.661  17.765  0.00  0.00    +0.000 A 
ATOM     15  C   UNL     1       3.075   6.187  18.891  0.00  0.00    +0.000 A 
ATOM     16  C   UNL     1       2.179   7.083  19.501  0.00  0.00    +0.000 A 
BRANCH  15  17
ATOM     17  C   UNL     1       3.229   4.692  19.421  0.00  0.00    +0.000 C 
ATOM     18  C   UNL     1       2.437   4.245  20.689  0.00  0.00    +0.000 C 
ATOM     19  O   UNL     1       2.012   3.026  20.010  0.00  0.00    +0.000 OA
ATOM     20  C   UNL     1       2.262   3.677  18.740  0.00  0.00    +0.000 C 
BRANCH  17  21
ATOM     21  C   UNL     1       4.701   4.241  19.434  0.00  0.00    +0.000 C 
BRANCH  21  22
ATOM     22  C   UNL     1       5.310   4.129  18.068  0.00  0.00    +0.000 A 
ATOM     23  N   UNL     1       4.790   3.501  17.033  0.00  0.00    +0.000 NA
ATOM     24  N   UNL     1       5.631   3.663  15.959  0.00  0.00    +0.000 NA
ATOM     25  C   UNL     1       6.658   4.378  16.358  0.00  0.00    +0.000 A 
ATOM     26  N   UNL     1       6.505   4.685  17.677  0.00  0.00    +0.000 N 
ATOM     27  C   UNL     1       7.435   5.451  18.462  0.00  0.00    +0.000 C 
ENDBRANCH  21  22
ENDBRANCH  17  21
ENDBRANCH  15  17
ENDBRANCH   8  11
BRANCH   5  28
ATOM     28  C   UNL     1      -2.668  11.693  18.568  0.00  0.00    +0.000 C 
ATOM     29  F   UNL     1      -3.749  12.514  18.706  0.00  0.00    +0.000 F 
ATOM     30  F   UNL     1      -1.903  12.260  17.593  0.00  0.00    +0.000 F 
ATOM     31  F   UNL     1      -3.147  10.535  18.049  0.00  0.00    +0.000 F 
ENDBRANCH   5  28
BRANCH   1  32
ATOM     32  C   UNL     1      -1.816  12.873  23.460  0.00  0.00    +0.000 C 
BRANCH  32  38
ATOM     33  C   UNL     1      -3.847  16.742  22.252  0.00  0.00    +0.000 C 
ATOM     34  N   UNL     1      -3.683  16.273  23.628  0.00  0.00    +0.000 NA
ATOM     35  C   UNL     1      -4.950  15.800  24.199  0.00  0.00    +0.000 C 
ATOM     36  C   UNL     1      -5.403  14.445  23.659  0.00  0.00    +0.000 C 
ATOM     37  C   UNL     1      -4.307  13.390  23.792  0.00  0.00    +0.000 C 
ATOM     38  C   UNL     1      -2.969  13.882  23.210  0.00  0.00    +0.000 C 
ATOM     39  C   UNL     1      -2.611  15.274  23.764  0.00  0.00    +0.000 C 
BRANCH  37  40
ATOM     40  O   UNL     1      -4.164  13.001  25.160  0.00  0.00    +0.000 OA
ATOM     41  H   UNL     1      -3.357  13.409  25.514  0.00  0.00    +0.000 HD
ENDBRANCH  37  40
ENDBRANCH  32  38
ENDBRANCH   1  32
TORSDOF 8
ENDMDL
