MODEL 1
REMARK VINA RESULT:      -8.8      0.000      0.000
REMARK  Name = 
REMARK  9 active torsions:
REMARK  status: ('A' for Active; 'I' for Inactive)
REMARK    1  A    between atoms: C_1  and  N_2
REMARK    2  A    between atoms: C_6  and  C_7
REMARK    3  A    between atoms: C_7  and  C_8
REMARK    4  A    between atoms: C_8  and  C_9
REMARK    5  A    between atoms: C_13  and  N_14
REMARK    6  A    between atoms: C_15  and  C_17
REMARK    7  A    between atoms: C_19  and  N_20
REMARK    8  A    between atoms: C_22  and  C_23
REMARK    9  A    between atoms: C_28  and  C_29
REMARK                            x       y       z     vdW  Elec       q    Type
REMARK                         _______ _______ _______ _____ _____    ______ ____
ROOT
ATOM      1  N   UNL     1       1.300   9.081  19.452  0.00  0.00    +0.000 N 
ATOM      2  C   UNL     1       2.025   8.380  18.512  0.00  0.00    +0.000 C 
ATOM      3  O   UNL     1       2.209   8.698  17.342  0.00  0.00    +0.000 OA
ATOM      4  H   UNL     1       1.352   8.713  20.402  0.00  0.00    +0.000 HD
ENDROOT
BRANCH   1   9
ATOM      5  C   UNL     1      -1.466  11.253  18.290  0.00  0.00    +0.000 A 
ATOM      6  C   UNL     1      -0.989  12.508  18.721  0.00  0.00    +0.000 A 
ATOM      7  C   UNL     1       0.231  12.642  19.376  0.00  0.00    +0.000 A 
ATOM      8  C   UNL     1       1.008  11.517  19.624  0.00  0.00    +0.000 A 
ATOM      9  C   UNL     1       0.572  10.255  19.224  0.00  0.00    +0.000 A 
ATOM     10  C   UNL     1      -0.644  10.136  18.553  0.00  0.00    +0.000 A 
BRANCH   5  11
ATOM     11  C   UNL     1      -2.862  11.099  17.527  0.00  0.00    +0.000 C 
ATOM     12  C   UNL     1      -3.562   9.716  17.678  0.00  0.00    +0.000 C 
ATOM     13  O   UNL     1      -3.504   9.458  16.264  0.00  0.00    +0.000 OA
ATOM     14  C   UNL     1      -2.834  10.713  16.021  0.00  0.00    +0.000 C 
BRANCH  11  15
ATOM     15  C   UNL     1      -3.792  12.272  17.894  0.00  0.00    +0.000 C 
BRANCH  15  21
ATOM     16  C   UNL     1      -6.835  11.293  18.194  0.00  0.00    +0.000 C 
ATOM     17  N   UNL     1      -5.919  11.694  19.230  0.00  0.00    +0.000 N 
ATOM     18  C   UNL     1      -6.247  11.782  20.551  0.00  0.00    +0.000 A 
ATOM     19  N   UNL     1      -5.195  12.149  21.241  0.00  0.00    +0.000 NA
ATOM     20  N   UNL     1      -4.161  12.325  20.357  0.00  0.00    +0.000 NA
ATOM     21  C   UNL     1      -4.601  12.075  19.138  0.00  0.00    +0.000 A 
ENDBRANCH  15  21
ENDBRANCH  11  15
ENDBRANCH   5  11
ENDBRANCH   1   9
BRANCH   2  22
ATOM     22  C   UNL     1       2.627   7.115  19.018  0.00  0.00    +0.000 A 
ATOM     23  C   UNL     1       3.904   6.828  18.622  0.00  0.00    +0.000 A 
ATOM     24  C   UNL     1       4.388   5.601  18.985  0.00  0.00    +0.000 A 
ATOM     25  N   UNL     1       3.657   4.760  19.747  0.00  0.00    +0.000 NA
ATOM     26  C   UNL     1       2.418   5.143  20.137  0.00  0.00    +0.000 A 
ATOM     27  N   UNL     1       1.857   6.311  19.774  0.00  0.00    +0.000 NA
BRANCH  24  28
ATOM     28  N   UNL     1       5.669   5.238  18.521  0.00  0.00    +0.000 N 
ATOM     29  C   UNL     1       6.899   5.406  19.242  0.00  0.00    +0.000 C 
ATOM     30  C   UNL     1       7.521   5.972  17.972  0.00  0.00    +0.000 C 
ATOM     31  C   UNL     1       6.245   5.532  17.246  0.00  0.00    +0.000 C 
BRANCH  30  32
ATOM     32  C   UNL     1       7.710   7.464  18.022  0.00  0.00    +0.000 C 
ATOM     33  F   UNL     1       8.739   7.746  18.864  0.00  0.00    +0.000 F 
ATOM     34  F   UNL     1       8.087   7.896  16.792  0.00  0.00    +0.000 F 
ENDBRANCH  30  32
ENDBRANCH  24  28
BRANCH  26  35
ATOM     35  C   UNL     1       1.612   4.244  21.047  0.00  0.00    +0.000 C 
ATOM     36  C   UNL     1       0.941   3.010  20.478  0.00  0.00    +0.000 C 
ATOM     37  C   UNL     1       2.091   2.864  21.430  0.00  0.00    +0.000 C 
ENDBRANCH  26  35
ENDBRANCH   2  22
TORSDOF 8
ENDMDL
MODEL 2
REMARK VINA RESULT:      -8.8      3.000      4.787
REMARK  Name = 
REMARK  9 active torsions:
REMARK  status: ('A' for Active; 'I' for Inactive)
REMARK    1  A    between atoms: C_1  and  N_2
REMARK    2  A    between atoms: C_6  and  C_7
REMARK    3  A    between atoms: C_7  and  C_8
REMARK    4  A    between atoms: C_8  and  C_9
REMARK    5  A    between atoms: C_13  and  N_14
REMARK    6  A    between atoms: C_15  and  C_17
REMARK    7  A    between atoms: C_19  and  N_20
REMARK    8  A    between atoms: C_22  and  C_23
REMARK    9  A    between atoms: C_28  and  C_29
REMARK                            x       y       z     vdW  Elec       q    Type
REMARK                         _______ _______ _______ _____ _____    ______ ____
ROOT
ATOM      1  N   UNL     1       1.647   8.097  19.834  0.00  0.00    +0.000 N 
ATOM      2  C   UNL     1       2.172   8.217  18.564  0.00  0.00    +0.000 C 
ATOM      3  O   UNL     1       2.128   9.209  17.843  0.00  0.00    +0.000 OA
ATOM      4  H   UNL     1       1.880   7.231  20.318  0.00  0.00    +0.000 HD
ENDROOT
BRANCH   1   9
ATOM      5  C   UNL     1      -0.247  11.233  20.375  0.00  0.00    +0.000 A 
ATOM      6  C   UNL     1      -0.615  11.066  21.727  0.00  0.00    +0.000 A 
ATOM      7  C   UNL     1      -0.237   9.943  22.455  0.00  0.00    +0.000 A 
ATOM      8  C   UNL     1       0.519   8.948  21.846  0.00  0.00    +0.000 A 
ATOM      9  C   UNL     1       0.897   9.067  20.510  0.00  0.00    +0.000 A 
ATOM     10  C   UNL     1       0.526  10.205  19.796  0.00  0.00    +0.000 A 
BRANCH   5  11
ATOM     11  C   UNL     1      -0.672  12.529  19.541  0.00  0.00    +0.000 C 
ATOM     12  C   UNL     1       0.388  13.668  19.483  0.00  0.00    +0.000 C 
ATOM     13  O   UNL     1      -0.485  14.604  20.139  0.00  0.00    +0.000 OA
ATOM     14  C   UNL     1      -1.526  13.612  20.258  0.00  0.00    +0.000 C 
BRANCH  11  15
ATOM     15  C   UNL     1      -1.167  12.113  18.142  0.00  0.00    +0.000 C 
BRANCH  15  21
ATOM     16  C   UNL     1      -2.811  10.878  15.676  0.00  0.00    +0.000 C 
ATOM     17  N   UNL     1      -3.298  11.243  16.981  0.00  0.00    +0.000 N 
ATOM     18  C   UNL     1      -4.606  11.172  17.359  0.00  0.00    +0.000 A 
ATOM     19  N   UNL     1      -4.724  11.549  18.608  0.00  0.00    +0.000 NA
ATOM     20  N   UNL     1      -3.474  11.891  19.057  0.00  0.00    +0.000 NA
ATOM     21  C   UNL     1      -2.613  11.730  18.069  0.00  0.00    +0.000 A 
ENDBRANCH  15  21
ENDBRANCH  11  15
ENDBRANCH   5  11
ENDBRANCH   1   9
BRANCH   2  22
ATOM     22  C   UNL     1       2.852   6.991  18.062  0.00  0.00    +0.000 A 
ATOM     23  C   UNL     1       2.267   5.789  18.348  0.00  0.00    +0.000 A 
ATOM     24  C   UNL     1       2.975   4.672  17.997  0.00  0.00    +0.000 A 
ATOM     25  N   UNL     1       4.153   4.769  17.346  0.00  0.00    +0.000 NA
ATOM     26  C   UNL     1       4.639   6.000  17.057  0.00  0.00    +0.000 A 
ATOM     27  N   UNL     1       4.024   7.141  17.418  0.00  0.00    +0.000 NA
BRANCH  24  28
ATOM     28  N   UNL     1       2.440   3.417  18.354  0.00  0.00    +0.000 N 
ATOM     29  C   UNL     1       1.154   3.194  18.951  0.00  0.00    +0.000 C 
ATOM     30  C   UNL     1       1.821   2.253  19.944  0.00  0.00    +0.000 C 
ATOM     31  C   UNL     1       3.087   2.377  19.090  0.00  0.00    +0.000 C 
BRANCH  30  32
ATOM     32  C   UNL     1       1.954   2.845  21.321  0.00  0.00    +0.000 C 
ATOM     33  F   UNL     1       0.857   2.509  22.050  0.00  0.00    +0.000 F 
ATOM     34  F   UNL     1       3.018   2.275  21.939  0.00  0.00    +0.000 F 
ENDBRANCH  30  32
ENDBRANCH  24  28
BRANCH  26  35
ATOM     35  C   UNL     1       5.923   6.127  16.268  0.00  0.00    +0.000 C 
ATOM     36  C   UNL     1       7.254   6.107  16.993  0.00  0.00    +0.000 C 
ATOM     37  C   UNL     1       6.872   4.965  16.098  0.00  0.00    +0.000 C 
ENDBRANCH  26  35
ENDBRANCH   2  22
TORSDOF 8
ENDMDL
MODEL 3
REMARK VINA RESULT:      -8.7      3.241      5.274
REMARK  Name = 
REMARK  9 active torsions:
REMARK  status: ('A' for Active; 'I' for Inactive)
REMARK    1  A    between atoms: C_1  and  N_2
REMARK    2  A    between atoms: C_6  and  C_7
REMARK    3  A    between atoms: C_7  and  C_8
REMARK    4  A    between atoms: C_8  and  C_9
REMARK    5  A    between atoms: C_13  and  N_14
REMARK    6  A    between atoms: C_15  and  C_17
REMARK    7  A    between atoms: C_19  and  N_20
REMARK    8  A    between atoms: C_22  and  C_23
REMARK    9  A    between atoms: C_28  and  C_29
REMARK                            x       y       z     vdW  Elec       q    Type
REMARK                         _______ _______ _______ _____ _____    ______ ____
ROOT
ATOM      1  N   UNL     1       1.730   8.080  19.558  0.00  0.00    +0.000 N 
ATOM      2  C   UNL     1       2.313   8.171  18.312  0.00  0.00    +0.000 C 
ATOM      3  O   UNL     1       2.340   9.159  17.585  0.00  0.00    +0.000 OA
ATOM      4  H   UNL     1       1.906   7.208  20.056  0.00  0.00    +0.000 HD
ENDROOT
BRANCH   1   9
ATOM      5  C   UNL     1      -0.623  10.913  19.949  0.00  0.00    +0.000 A 
ATOM      6  C   UNL     1      -0.544  11.106  21.344  0.00  0.00    +0.000 A 
ATOM      7  C   UNL     1       0.280  10.323  22.146  0.00  0.00    +0.000 A 
ATOM      8  C   UNL     1       1.047   9.317  21.572  0.00  0.00    +0.000 A 
ATOM      9  C   UNL     1       0.994   9.084  20.198  0.00  0.00    +0.000 A 
ATOM     10  C   UNL     1       0.177   9.887  19.403  0.00  0.00    +0.000 A 
BRANCH   5  11
ATOM     11  C   UNL     1      -1.561  11.820  19.025  0.00  0.00    +0.000 C 
ATOM     12  C   UNL     1      -2.765  12.493  19.747  0.00  0.00    +0.000 C 
ATOM     13  O   UNL     1      -3.727  11.807  18.927  0.00  0.00    +0.000 OA
ATOM     14  C   UNL     1      -2.682  11.117  18.209  0.00  0.00    +0.000 C 
BRANCH  11  15
ATOM     15  C   UNL     1      -0.704  12.832  18.240  0.00  0.00    +0.000 C 
BRANCH  15  21
ATOM     16  C   UNL     1       2.499  12.622  18.228  0.00  0.00    +0.000 C 
ATOM     17  N   UNL     1       1.662  13.444  19.062  0.00  0.00    +0.000 N 
ATOM     18  C   UNL     1       2.126  14.246  20.062  0.00  0.00    +0.000 A 
ATOM     19  N   UNL     1       1.123  14.881  20.617  0.00  0.00    +0.000 NA
ATOM     20  N   UNL     1      -0.025  14.475  19.985  0.00  0.00    +0.000 NA
ATOM     21  C   UNL     1       0.294  13.588  19.061  0.00  0.00    +0.000 A 
ENDBRANCH  15  21
ENDBRANCH  11  15
ENDBRANCH   5  11
ENDBRANCH   1   9
BRANCH   2  22
ATOM     22  C   UNL     1       2.961   6.914  17.844  0.00  0.00    +0.000 A 
ATOM     23  C   UNL     1       2.381   5.734  18.216  0.00  0.00    +0.000 A 
ATOM     24  C   UNL     1       3.065   4.595  17.892  0.00  0.00    +0.000 A 
ATOM     25  N   UNL     1       4.214   4.647  17.187  0.00  0.00    +0.000 NA
ATOM     26  C   UNL     1       4.696   5.857  16.814  0.00  0.00    +0.000 A 
ATOM     27  N   UNL     1       4.105   7.021  17.143  0.00  0.00    +0.000 NA
BRANCH  24  28
ATOM     28  N   UNL     1       2.537   3.364  18.336  0.00  0.00    +0.000 N 
ATOM     29  C   UNL     1       1.189   3.140  18.774  0.00  0.00    +0.000 C 
ATOM     30  C   UNL     1       1.745   2.373  19.966  0.00  0.00    +0.000 C 
ATOM     31  C   UNL     1       3.115   2.465  19.285  0.00  0.00    +0.000 C 
BRANCH  30  32
ATOM     32  C   UNL     1       1.653   3.141  21.258  0.00  0.00    +0.000 C 
ATOM     33  F   UNL     1       0.955   4.286  21.036  0.00  0.00    +0.000 F 
ATOM     34  F   UNL     1       0.931   2.412  22.145  0.00  0.00    +0.000 F 
ENDBRANCH  30  32
ENDBRANCH  24  28
BRANCH  26  35
ATOM     35  C   UNL     1       5.945   5.932  15.966  0.00  0.00    +0.000 C 
ATOM     36  C   UNL     1       7.009   4.861  16.100  0.00  0.00    +0.000 C 
ATOM     37  C   UNL     1       6.202   4.961  14.838  0.00  0.00    +0.000 C 
ENDBRANCH  26  35
ENDBRANCH   2  22
TORSDOF 8
ENDMDL
MODEL 4
REMARK VINA RESULT:      -8.7      3.316      4.589
REMARK  Name = 
REMARK  9 active torsions:
REMARK  status: ('A' for Active; 'I' for Inactive)
REMARK    1  A    between atoms: C_1  and  N_2
REMARK    2  A    between atoms: C_6  and  C_7
REMARK    3  A    between atoms: C_7  and  C_8
REMARK    4  A    between atoms: C_8  and  C_9
REMARK    5  A    between atoms: C_13  and  N_14
REMARK    6  A    between atoms: C_15  and  C_17
REMARK    7  A    between atoms: C_19  and  N_20
REMARK    8  A    between atoms: C_22  and  C_23
REMARK    9  A    between atoms: C_28  and  C_29
REMARK                            x       y       z     vdW  Elec       q    Type
REMARK                         _______ _______ _______ _____ _____    ______ ____
ROOT
ATOM      1  N   UNL     1       1.531   7.942  21.010  0.00  0.00    +0.000 N 
ATOM      2  C   UNL     1       1.937   7.756  19.706  0.00  0.00    +0.000 C 
ATOM      3  O   UNL     1       1.776   8.533  18.770  0.00  0.00    +0.000 OA
ATOM      4  H   UNL     1       1.851   7.232  21.668  0.00  0.00    +0.000 HD
ENDROOT
BRANCH   1   9
ATOM      5  C   UNL     1       0.062  11.339  21.127  0.00  0.00    +0.000 A 
ATOM      6  C   UNL     1      -0.660  11.252  22.335  0.00  0.00    +0.000 A 
ATOM      7  C   UNL     1      -0.657  10.096  23.109  0.00  0.00    +0.000 A 
ATOM      8  C   UNL     1       0.068   8.988  22.689  0.00  0.00    +0.000 A 
ATOM      9  C   UNL     1       0.790   9.025  21.496  0.00  0.00    +0.000 A 
ATOM     10  C   UNL     1       0.791  10.196  20.739  0.00  0.00    +0.000 A 
BRANCH   5  11
ATOM     11  C   UNL     1       0.068  12.672  20.243  0.00  0.00    +0.000 C 
ATOM     12  C   UNL     1      -0.413  13.962  20.971  0.00  0.00    +0.000 C 
ATOM     13  O   UNL     1      -1.514  14.143  20.064  0.00  0.00    +0.000 OA
ATOM     14  C   UNL     1      -1.161  12.950  19.333  0.00  0.00    +0.000 C 
BRANCH  11  15
ATOM     15  C   UNL     1       1.444  12.851  19.574  0.00  0.00    +0.000 C 
BRANCH  15  21
ATOM     16  C   UNL     1       2.641  15.733  18.819  0.00  0.00    +0.000 C 
ATOM     17  N   UNL     1       2.941  14.913  19.964  0.00  0.00    +0.000 N 
ATOM     18  C   UNL     1       3.871  15.228  20.910  0.00  0.00    +0.000 A 
ATOM     19  N   UNL     1       3.893  14.297  21.831  0.00  0.00    +0.000 NA
ATOM     20  N   UNL     1       2.974  13.342  21.477  0.00  0.00    +0.000 NA
ATOM     21  C   UNL     1       2.414  13.699  20.337  0.00  0.00    +0.000 A 
ENDBRANCH  15  21
ENDBRANCH  11  15
ENDBRANCH   5  11
ENDBRANCH   1   9
BRANCH   2  22
ATOM     22  C   UNL     1       2.637   6.465  19.457  0.00  0.00    +0.000 A 
ATOM     23  C   UNL     1       3.759   6.501  18.678  0.00  0.00    +0.000 A 
ATOM     24  C   UNL     1       4.308   5.292  18.351  0.00  0.00    +0.000 A 
ATOM     25  N   UNL     1       3.796   4.140  18.832  0.00  0.00    +0.000 NA
ATOM     26  C   UNL     1       2.709   4.196  19.638  0.00  0.00    +0.000 A 
ATOM     27  N   UNL     1       2.085   5.345  19.959  0.00  0.00    +0.000 NA
BRANCH  24  28
ATOM     28  N   UNL     1       5.417   5.289  17.479  0.00  0.00    +0.000 N 
ATOM     29  C   UNL     1       6.772   4.997  17.849  0.00  0.00    +0.000 C 
ATOM     30  C   UNL     1       7.212   6.217  17.051  0.00  0.00    +0.000 C 
ATOM     31  C   UNL     1       5.774   6.295  16.528  0.00  0.00    +0.000 C 
BRANCH  30  32
ATOM     32  C   UNL     1       7.609   7.379  17.921  0.00  0.00    +0.000 C 
ATOM     33  F   UNL     1       8.524   6.952  18.831  0.00  0.00    +0.000 F 
ATOM     34  F   UNL     1       8.232   8.306  17.151  0.00  0.00    +0.000 F 
ENDBRANCH  30  32
ENDBRANCH  24  28
BRANCH  26  35
ATOM     35  C   UNL     1       2.163   2.922  20.242  0.00  0.00    +0.000 C 
ATOM     36  C   UNL     1       2.551   2.534  21.654  0.00  0.00    +0.000 C 
ATOM     37  C   UNL     1       1.139   2.941  21.352  0.00  0.00    +0.000 C 
ENDBRANCH  26  35
ENDBRANCH   2  22
TORSDOF 8
ENDMDL
MODEL 5
REMARK VINA RESULT:      -8.7      2.551      4.069
REMARK  Name = 
REMARK  9 active torsions:
REMARK  status: ('A' for Active; 'I' for Inactive)
REMARK    1  A    between atoms: C_1  and  N_2
REMARK    2  A    between atoms: C_6  and  C_7
REMARK    3  A    between atoms: C_7  and  C_8
REMARK    4  A    between atoms: C_8  and  C_9
REMARK    5  A    between atoms: C_13  and  N_14
REMARK    6  A    between atoms: C_15  and  C_17
REMARK    7  A    between atoms: C_19  and  N_20
REMARK    8  A    between atoms: C_22  and  C_23
REMARK    9  A    between atoms: C_28  and  C_29
REMARK                            x       y       z     vdW  Elec       q    Type
REMARK                         _______ _______ _______ _____ _____    ______ ____
ROOT
ATOM      1  N   UNL     1       1.529   8.562  19.359  0.00  0.00    +0.000 N 
ATOM      2  C   UNL     1       2.185   8.529  18.147  0.00  0.00    +0.000 C 
ATOM      3  O   UNL     1       2.175   9.402  17.284  0.00  0.00    +0.000 OA
ATOM      4  H   UNL     1       1.746   7.791  19.989  0.00  0.00    +0.000 HD
ENDROOT
BRANCH   1   9
ATOM      5  C   UNL     1      -1.372  10.863  19.357  0.00  0.00    +0.000 A 
ATOM      6  C   UNL     1      -1.146  11.543  20.572  0.00  0.00    +0.000 A 
ATOM      7  C   UNL     1      -0.048  11.258  21.377  0.00  0.00    +0.000 A 
ATOM      8  C   UNL     1       0.855  10.276  20.989  0.00  0.00    +0.000 A 
ATOM      9  C   UNL     1       0.665   9.571  19.801  0.00  0.00    +0.000 A 
ATOM     10  C   UNL     1      -0.429   9.878  18.995  0.00  0.00    +0.000 A 
BRANCH   5  11
ATOM     11  C   UNL     1      -2.628  11.199  18.426  0.00  0.00    +0.000 C 
ATOM     12  C   UNL     1      -3.519   9.982  18.036  0.00  0.00    +0.000 C 
ATOM     13  O   UNL     1      -3.257  10.156  16.633  0.00  0.00    +0.000 OA
ATOM     14  C   UNL     1      -2.397  11.285  16.891  0.00  0.00    +0.000 C 
BRANCH  11  15
ATOM     15  C   UNL     1      -3.443  12.353  19.040  0.00  0.00    +0.000 C 
BRANCH  15  21
ATOM     16  C   UNL     1      -5.950  12.530  17.042  0.00  0.00    +0.000 C 
ATOM     17  N   UNL     1      -5.942  12.169  18.436  0.00  0.00    +0.000 N 
ATOM     18  C   UNL     1      -7.063  11.897  19.164  0.00  0.00    +0.000 A 
ATOM     19  N   UNL     1      -6.725  11.580  20.389  0.00  0.00    +0.000 NA
ATOM     20  N   UNL     1      -5.358  11.662  20.476  0.00  0.00    +0.000 NA
ATOM     21  C   UNL     1      -4.883  12.041  19.304  0.00  0.00    +0.000 A 
ENDBRANCH  15  21
ENDBRANCH  11  15
ENDBRANCH   5  11
ENDBRANCH   1   9
BRANCH   2  22
ATOM     22  C   UNL     1       2.972   7.288  17.906  0.00  0.00    +0.000 A 
ATOM     23  C   UNL     1       2.348   6.095  18.147  0.00  0.00    +0.000 A 
ATOM     24  C   UNL     1       3.127   4.975  18.051  0.00  0.00    +0.000 A 
ATOM     25  N   UNL     1       4.420   5.054  17.675  0.00  0.00    +0.000 NA
ATOM     26  C   UNL     1       4.948   6.272  17.408  0.00  0.00    +0.000 A 
ATOM     27  N   UNL     1       4.257   7.421  17.533  0.00  0.00    +0.000 NA
BRANCH  24  28
ATOM     28  N   UNL     1       2.536   3.736  18.376  0.00  0.00    +0.000 N 
ATOM     29  C   UNL     1       1.200   3.547  18.864  0.00  0.00    +0.000 C 
ATOM     30  C   UNL     1       1.761   2.605  19.921  0.00  0.00    +0.000 C 
ATOM     31  C   UNL     1       3.096   2.692  19.175  0.00  0.00    +0.000 C 
BRANCH  30  32
ATOM     32  C   UNL     1       1.790   3.213  21.298  0.00  0.00    +0.000 C 
ATOM     33  F   UNL     1       1.232   4.451  21.241  0.00  0.00    +0.000 F 
ATOM     34  F   UNL     1       1.003   2.471  22.117  0.00  0.00    +0.000 F 
ENDBRANCH  30  32
ENDBRANCH  24  28
BRANCH  26  35
ATOM     35  C   UNL     1       6.375   6.375  16.920  0.00  0.00    +0.000 C 
ATOM     36  C   UNL     1       7.471   6.781  17.885  0.00  0.00    +0.000 C 
ATOM     37  C   UNL     1       7.434   5.384  17.341  0.00  0.00    +0.000 C 
ENDBRANCH  26  35
ENDBRANCH   2  22
TORSDOF 8
ENDMDL
MODEL 6
REMARK VINA RESULT:      -8.7      3.472      5.459
REMARK  Name = 
REMARK  9 active torsions:
REMARK  status: ('A' for Active; 'I' for Inactive)
REMARK    1  A    between atoms: C_1  and  N_2
REMARK    2  A    between atoms: C_6  and  C_7
REMARK    3  A    between atoms: C_7  and  C_8
REMARK    4  A    between atoms: C_8  and  C_9
REMARK    5  A    between atoms: C_13  and  N_14
REMARK    6  A    between atoms: C_15  and  C_17
REMARK    7  A    between atoms: C_19  and  N_20
REMARK    8  A    between atoms: C_22  and  C_23
REMARK    9  A    between atoms: C_28  and  C_29
REMARK                            x       y       z     vdW  Elec       q    Type
REMARK                         _______ _______ _______ _____ _____    ______ ____
ROOT
ATOM      1  N   UNL     1       1.789   8.050  19.582  0.00  0.00    +0.000 N 
ATOM      2  C   UNL     1       2.299   8.138  18.304  0.00  0.00    +0.000 C 
ATOM      3  O   UNL     1       2.253   9.113  17.562  0.00  0.00    +0.000 OA
ATOM      4  H   UNL     1       2.022   7.193  20.084  0.00  0.00    +0.000 HD
ENDROOT
BRANCH   1   9
ATOM      5  C   UNL     1      -0.440  10.974  20.027  0.00  0.00    +0.000 A 
ATOM      6  C   UNL     1      -0.467  11.049  21.435  0.00  0.00    +0.000 A 
ATOM      7  C   UNL     1       0.248  10.158  22.230  0.00  0.00    +0.000 A 
ATOM      8  C   UNL     1       1.007   9.159  21.634  0.00  0.00    +0.000 A 
ATOM      9  C   UNL     1       1.054   9.040  20.245  0.00  0.00    +0.000 A 
ATOM     10  C   UNL     1       0.348   9.950  19.461  0.00  0.00    +0.000 A 
BRANCH   5  11
ATOM     11  C   UNL     1      -1.252  12.004  19.114  0.00  0.00    +0.000 C 
ATOM     12  C   UNL     1      -2.796  12.010  19.317  0.00  0.00    +0.000 C 
ATOM     13  O   UNL     1      -3.044  11.615  17.957  0.00  0.00    +0.000 OA
ATOM     14  C   UNL     1      -1.630  11.562  17.672  0.00  0.00    +0.000 C 
BRANCH  11  15
ATOM     15  C   UNL     1      -0.637  13.411  19.236  0.00  0.00    +0.000 C 
BRANCH  15  21
ATOM     16  C   UNL     1       1.458  14.289  21.505  0.00  0.00    +0.000 C 
ATOM     17  N   UNL     1       1.727  13.879  20.151  0.00  0.00    +0.000 N 
ATOM     18  C   UNL     1       2.969  13.864  19.587  0.00  0.00    +0.000 A 
ATOM     19  N   UNL     1       2.887  13.422  18.357  0.00  0.00    +0.000 NA
ATOM     20  N   UNL     1       1.565  13.158  18.099  0.00  0.00    +0.000 NA
ATOM     21  C   UNL     1       0.859  13.456  19.173  0.00  0.00    +0.000 A 
ENDBRANCH  15  21
ENDBRANCH  11  15
ENDBRANCH   5  11
ENDBRANCH   1   9
BRANCH   2  22
ATOM     22  C   UNL     1       2.964   6.895  17.821  0.00  0.00    +0.000 A 
ATOM     23  C   UNL     1       2.417   5.703  18.206  0.00  0.00    +0.000 A 
ATOM     24  C   UNL     1       3.117   4.578  17.866  0.00  0.00    +0.000 A 
ATOM     25  N   UNL     1       4.250   4.656  17.136  0.00  0.00    +0.000 NA
ATOM     26  C   UNL     1       4.698   5.875  16.754  0.00  0.00    +0.000 A 
ATOM     27  N   UNL     1       4.090   7.026  17.097  0.00  0.00    +0.000 NA
BRANCH  24  28
ATOM     28  N   UNL     1       2.626   3.337  18.320  0.00  0.00    +0.000 N 
ATOM     29  C   UNL     1       1.266   3.058  18.686  0.00  0.00    +0.000 C 
ATOM     30  C   UNL     1       1.787   2.358  19.935  0.00  0.00    +0.000 C 
ATOM     31  C   UNL     1       3.189   2.500  19.333  0.00  0.00    +0.000 C 
BRANCH  30  32
ATOM     32  C   UNL     1       1.579   3.161  21.191  0.00  0.00    +0.000 C 
ATOM     33  F   UNL     1       0.775   4.219  20.906  0.00  0.00    +0.000 F 
ATOM     34  F   UNL     1       0.908   2.396  22.088  0.00  0.00    +0.000 F 
ENDBRANCH  30  32
ENDBRANCH  24  28
BRANCH  26  35
ATOM     35  C   UNL     1       5.926   5.977  15.878  0.00  0.00    +0.000 C 
ATOM     36  C   UNL     1       7.057   4.984  16.054  0.00  0.00    +0.000 C 
ATOM     37  C   UNL     1       6.226   4.958  14.805  0.00  0.00    +0.000 C 
ENDBRANCH  26  35
ENDBRANCH   2  22
TORSDOF 8
ENDMDL
MODEL 7
REMARK VINA RESULT:      -8.6      3.354      4.407
REMARK  Name = 
REMARK  9 active torsions:
REMARK  status: ('A' for Active; 'I' for Inactive)
REMARK    1  A    between atoms: C_1  and  N_2
REMARK    2  A    between atoms: C_6  and  C_7
REMARK    3  A    between atoms: C_7  and  C_8
REMARK    4  A    between atoms: C_8  and  C_9
REMARK    5  A    between atoms: C_13  and  N_14
REMARK    6  A    between atoms: C_15  and  C_17
REMARK    7  A    between atoms: C_19  and  N_20
REMARK    8  A    between atoms: C_22  and  C_23
REMARK    9  A    between atoms: C_28  and  C_29
REMARK                            x       y       z     vdW  Elec       q    Type
REMARK                         _______ _______ _______ _____ _____    ______ ____
ROOT
ATOM      1  N   UNL     1       1.576   7.943  21.009  0.00  0.00    +0.000 N 
ATOM      2  C   UNL     1       1.954   7.743  19.698  0.00  0.00    +0.000 C 
ATOM      3  O   UNL     1       1.768   8.506  18.756  0.00  0.00    +0.000 OA
ATOM      4  H   UNL     1       1.916   7.244  21.669  0.00  0.00    +0.000 HD
ENDROOT
BRANCH   1   9
ATOM      5  C   UNL     1       0.162  11.363  21.159  0.00  0.00    +0.000 A 
ATOM      6  C   UNL     1      -0.599  11.261  22.342  0.00  0.00    +0.000 A 
ATOM      7  C   UNL     1      -0.639  10.088  23.088  0.00  0.00    +0.000 A 
ATOM      8  C   UNL     1       0.080   8.977  22.665  0.00  0.00    +0.000 A 
ATOM      9  C   UNL     1       0.839   9.029  21.496  0.00  0.00    +0.000 A 
ATOM     10  C   UNL     1       0.884  10.216  20.767  0.00  0.00    +0.000 A 
BRANCH   5  11
ATOM     11  C   UNL     1       0.218  12.715  20.307  0.00  0.00    +0.000 C 
ATOM     12  C   UNL     1      -1.163  13.327  19.928  0.00  0.00    +0.000 C 
ATOM     13  O   UNL     1      -0.908  13.195  18.518  0.00  0.00    +0.000 OA
ATOM     14  C   UNL     1       0.383  12.601  18.765  0.00  0.00    +0.000 C 
BRANCH  11  15
ATOM     15  C   UNL     1       1.144  13.733  21.000  0.00  0.00    +0.000 C 
BRANCH  15  21
ATOM     16  C   UNL     1       0.652  16.467  19.391  0.00  0.00    +0.000 C 
ATOM     17  N   UNL     1       1.815  15.620  19.376  0.00  0.00    +0.000 N 
ATOM     18  C   UNL     1       2.908  15.831  18.588  0.00  0.00    +0.000 A 
ATOM     19  N   UNL     1       3.803  14.903  18.821  0.00  0.00    +0.000 NA
ATOM     20  N   UNL     1       3.284  14.054  19.765  0.00  0.00    +0.000 NA
ATOM     21  C   UNL     1       2.073  14.470  20.085  0.00  0.00    +0.000 A 
ENDBRANCH  15  21
ENDBRANCH  11  15
ENDBRANCH   5  11
ENDBRANCH   1   9
BRANCH   2  22
ATOM     22  C   UNL     1       2.657   6.453  19.451  0.00  0.00    +0.000 A 
ATOM     23  C   UNL     1       3.788   6.493  18.684  0.00  0.00    +0.000 A 
ATOM     24  C   UNL     1       4.341   5.285  18.358  0.00  0.00    +0.000 A 
ATOM     25  N   UNL     1       3.823   4.131  18.828  0.00  0.00    +0.000 NA
ATOM     26  C   UNL     1       2.728   4.183  19.622  0.00  0.00    +0.000 A 
ATOM     27  N   UNL     1       2.100   5.330  19.942  0.00  0.00    +0.000 NA
BRANCH  24  28
ATOM     28  N   UNL     1       5.459   5.286  17.498  0.00  0.00    +0.000 N 
ATOM     29  C   UNL     1       6.813   5.014  17.885  0.00  0.00    +0.000 C 
ATOM     30  C   UNL     1       7.248   6.231  17.080  0.00  0.00    +0.000 C 
ATOM     31  C   UNL     1       5.815   6.286  16.541  0.00  0.00    +0.000 C 
BRANCH  30  32
ATOM     32  C   UNL     1       7.621   7.407  17.942  0.00  0.00    +0.000 C 
ATOM     33  F   UNL     1       8.572   7.013  18.830  0.00  0.00    +0.000 F 
ATOM     34  F   UNL     1       8.193   8.355  17.159  0.00  0.00    +0.000 F 
ENDBRANCH  30  32
ENDBRANCH  24  28
BRANCH  26  35
ATOM     35  C   UNL     1       2.175   2.906  20.214  0.00  0.00    +0.000 C 
ATOM     36  C   UNL     1       2.576   2.494  21.616  0.00  0.00    +0.000 C 
ATOM     37  C   UNL     1       1.165   2.920  21.337  0.00  0.00    +0.000 C 
ENDBRANCH  26  35
ENDBRANCH   2  22
TORSDOF 8
ENDMDL
MODEL 8
REMARK VINA RESULT:      -8.6      2.618      4.116
REMARK  Name = 
REMARK  9 active torsions:
REMARK  status: ('A' for Active; 'I' for Inactive)
REMARK    1  A    between atoms: C_1  and  N_2
REMARK    2  A    between atoms: C_6  and  C_7
REMARK    3  A    between atoms: C_7  and  C_8
REMARK    4  A    between atoms: C_8  and  C_9
REMARK    5  A    between atoms: C_13  and  N_14
REMARK    6  A    between atoms: C_15  and  C_17
REMARK    7  A    between atoms: C_19  and  N_20
REMARK    8  A    between atoms: C_22  and  C_23
REMARK    9  A    between atoms: C_28  and  C_29
REMARK                            x       y       z     vdW  Elec       q    Type
REMARK                         _______ _______ _______ _____ _____    ______ ____
ROOT
ATOM      1  N   UNL     1       0.620   9.049  19.330  0.00  0.00    +0.000 N 
ATOM      2  C   UNL     1       1.712   8.767  18.538  0.00  0.00    +0.000 C 
ATOM      3  O   UNL     1       2.134   9.443  17.604  0.00  0.00    +0.000 OA
ATOM      4  H   UNL     1       0.491   8.425  20.126  0.00  0.00    +0.000 HD
ENDROOT
BRANCH   1   9
ATOM      5  C   UNL     1      -1.239  12.139  20.171  0.00  0.00    +0.000 A 
ATOM      6  C   UNL     1      -1.960  12.325  18.974  0.00  0.00    +0.000 A 
ATOM      7  C   UNL     1      -1.847  11.440  17.906  0.00  0.00    +0.000 A 
ATOM      8  C   UNL     1      -0.999  10.343  18.007  0.00  0.00    +0.000 A 
ATOM      9  C   UNL     1      -0.260  10.126  19.169  0.00  0.00    +0.000 A 
ATOM     10  C   UNL     1      -0.396  11.010  20.237  0.00  0.00    +0.000 A 
BRANCH   5  11
ATOM     11  C   UNL     1      -1.378  13.149  21.403  0.00  0.00    +0.000 C 
ATOM     12  C   UNL     1      -0.952  12.582  22.789  0.00  0.00    +0.000 C 
ATOM     13  O   UNL     1      -2.269  12.756  23.340  0.00  0.00    +0.000 OA
ATOM     14  C   UNL     1      -2.767  13.278  22.090  0.00  0.00    +0.000 C 
BRANCH  11  15
ATOM     15  C   UNL     1      -0.677  14.481  21.071  0.00  0.00    +0.000 C 
BRANCH  15  21
ATOM     16  C   UNL     1       1.542  13.816  18.847  0.00  0.00    +0.000 C 
ATOM     17  N   UNL     1       1.738  14.130  20.238  0.00  0.00    +0.000 N 
ATOM     18  C   UNL     1       2.951  14.128  20.861  0.00  0.00    +0.000 A 
ATOM     19  N   UNL     1       2.801  14.477  22.115  0.00  0.00    +0.000 NA
ATOM     20  N   UNL     1       1.463  14.694  22.328  0.00  0.00    +0.000 NA
ATOM     21  C   UNL     1       0.815  14.461  21.202  0.00  0.00    +0.000 A 
ENDBRANCH  15  21
ENDBRANCH  11  15
ENDBRANCH   5  11
ENDBRANCH   1   9
BRANCH   2  22
ATOM     22  C   UNL     1       2.418   7.504  18.890  0.00  0.00    +0.000 A 
ATOM     23  C   UNL     1       3.589   7.239  18.236  0.00  0.00    +0.000 A 
ATOM     24  C   UNL     1       4.151   6.014  18.474  0.00  0.00    +0.000 A 
ATOM     25  N   UNL     1       3.600   5.153  19.355  0.00  0.00    +0.000 NA
ATOM     26  C   UNL     1       2.464   5.515  19.997  0.00  0.00    +0.000 A 
ATOM     27  N   UNL     1       1.828   6.680  19.774  0.00  0.00    +0.000 NA
BRANCH  24  28
ATOM     28  N   UNL     1       5.314   5.674  17.751  0.00  0.00    +0.000 N 
ATOM     29  C   UNL     1       6.580   5.314  18.324  0.00  0.00    +0.000 C 
ATOM     30  C   UNL     1       7.252   6.253  17.331  0.00  0.00    +0.000 C 
ATOM     31  C   UNL     1       5.886   6.380  16.648  0.00  0.00    +0.000 C 
BRANCH  30  32
ATOM     32  C   UNL     1       7.739   7.529  17.962  0.00  0.00    +0.000 C 
ATOM     33  F   UNL     1       8.714   7.228  18.860  0.00  0.00    +0.000 F 
ATOM     34  F   UNL     1       8.319   8.294  17.004  0.00  0.00    +0.000 F 
ENDBRANCH  30  32
ENDBRANCH  24  28
BRANCH  26  35
ATOM     35  C   UNL     1       1.871   4.593  21.038  0.00  0.00    +0.000 C 
ATOM     36  C   UNL     1       1.052   3.395  20.600  0.00  0.00    +0.000 C 
ATOM     37  C   UNL     1       2.390   3.190  21.249  0.00  0.00    +0.000 C 
ENDBRANCH  26  35
ENDBRANCH   2  22
TORSDOF 8
ENDMDL
MODEL 9
REMARK VINA RESULT:      -8.6      3.470      5.435
REMARK  Name = 
REMARK  9 active torsions:
REMARK  status: ('A' for Active; 'I' for Inactive)
REMARK    1  A    between atoms: C_1  and  N_2
REMARK    2  A    between atoms: C_6  and  C_7
REMARK    3  A    between atoms: C_7  and  C_8
REMARK    4  A    between atoms: C_8  and  C_9
REMARK    5  A    between atoms: C_13  and  N_14
REMARK    6  A    between atoms: C_15  and  C_17
REMARK    7  A    between atoms: C_19  and  N_20
REMARK    8  A    between atoms: C_22  and  C_23
REMARK    9  A    between atoms: C_28  and  C_29
REMARK                            x       y       z     vdW  Elec       q    Type
REMARK                         _______ _______ _______ _____ _____    ______ ____
ROOT
ATOM      1  N   UNL     1       1.730   8.033  19.980  0.00  0.00    +0.000 N 
ATOM      2  C   UNL     1       2.155   8.164  18.675  0.00  0.00    +0.000 C 
ATOM      3  O   UNL     1       2.011   9.145  17.952  0.00  0.00    +0.000 OA
ATOM      4  H   UNL     1       2.037   7.184  20.453  0.00  0.00    +0.000 HD
ENDROOT
BRANCH   1   9
ATOM      5  C   UNL     1      -0.374  11.014  20.615  0.00  0.00    +0.000 A 
ATOM      6  C   UNL     1      -0.538  10.906  22.011  0.00  0.00    +0.000 A 
ATOM      7  C   UNL     1       0.045   9.873  22.739  0.00  0.00    +0.000 A 
ATOM      8  C   UNL     1       0.806   8.912  22.084  0.00  0.00    +0.000 A 
ATOM      9  C   UNL     1       0.986   8.974  20.702  0.00  0.00    +0.000 A 
ATOM     10  C   UNL     1       0.411  10.024  19.988  0.00  0.00    +0.000 A 
BRANCH   5  11
ATOM     11  C   UNL     1      -1.034  12.208  19.780  0.00  0.00    +0.000 C 
ATOM     12  C   UNL     1      -2.576  12.118  19.584  0.00  0.00    +0.000 C 
ATOM     13  O   UNL     1      -2.457  12.051  18.153  0.00  0.00    +0.000 OA
ATOM     14  C   UNL     1      -1.018  12.111  18.229  0.00  0.00    +0.000 C 
BRANCH  11  15
ATOM     15  C   UNL     1      -0.592  13.563  20.365  0.00  0.00    +0.000 C 
BRANCH  15  21
ATOM     16  C   UNL     1      -0.189  16.226  18.618  0.00  0.00    +0.000 C 
ATOM     17  N   UNL     1       0.798  15.250  18.998  0.00  0.00    +0.000 N 
ATOM     18  C   UNL     1       2.102  15.281  18.599  0.00  0.00    +0.000 A 
ATOM     19  N   UNL     1       2.748  14.273  19.130  0.00  0.00    +0.000 NA
ATOM     20  N   UNL     1       1.851  13.553  19.877  0.00  0.00    +0.000 NA
ATOM     21  C   UNL     1       0.666  14.126  19.780  0.00  0.00    +0.000 A 
ENDBRANCH  15  21
ENDBRANCH  11  15
ENDBRANCH   5  11
ENDBRANCH   1   9
BRANCH   2  22
ATOM     22  C   UNL     1       2.853   6.965  18.133  0.00  0.00    +0.000 A 
ATOM     23  C   UNL     1       2.329   5.741  18.446  0.00  0.00    +0.000 A 
ATOM     24  C   UNL     1       3.059   4.653  18.054  0.00  0.00    +0.000 A 
ATOM     25  N   UNL     1       4.197   4.795  17.342  0.00  0.00    +0.000 NA
ATOM     26  C   UNL     1       4.621   6.044  17.032  0.00  0.00    +0.000 A 
ATOM     27  N   UNL     1       3.983   7.160  17.430  0.00  0.00    +0.000 NA
BRANCH  24  28
ATOM     28  N   UNL     1       2.591   3.378  18.434  0.00  0.00    +0.000 N 
ATOM     29  C   UNL     1       1.253   3.066  18.848  0.00  0.00    +0.000 C 
ATOM     30  C   UNL     1       1.838   2.272  20.008  0.00  0.00    +0.000 C 
ATOM     31  C   UNL     1       3.206   2.466  19.347  0.00  0.00    +0.000 C 
BRANCH  30  32
ATOM     32  C   UNL     1       1.696   2.973  21.333  0.00  0.00    +0.000 C 
ATOM     33  F   UNL     1       1.026   4.140  21.141  0.00  0.00    +0.000 F 
ATOM     34  F   UNL     1       0.922   2.211  22.146  0.00  0.00    +0.000 F 
ENDBRANCH  30  32
ENDBRANCH  24  28
BRANCH  26  35
ATOM     35  C   UNL     1       5.855   6.221  16.178  0.00  0.00    +0.000 C 
ATOM     36  C   UNL     1       7.211   6.364  16.840  0.00  0.00    +0.000 C 
ATOM     37  C   UNL     1       6.894   5.133  16.043  0.00  0.00    +0.000 C 
ENDBRANCH  26  35
ENDBRANCH   2  22
TORSDOF 8
ENDMDL
