MODEL 1
REMARK VINA RESULT:      -8.3      0.000      0.000
REMARK  Name = 
REMARK  11 active torsions:
REMARK  status: ('A' for Active; 'I' for Inactive)
REMARK    1  A    between atoms: C_1  and  C_2
REMARK    2  A    between atoms: C_2  and  O_3
REMARK    3  A    between atoms: O_3  and  C_4
REMARK    4  A    between atoms: C_6  and  N_7
REMARK    5  A    between atoms: C_8  and  C_10
REMARK    6  A    between atoms: C_12  and  C_13
REMARK    7  A    between atoms: C_15  and  C_16
REMARK    8  A    between atoms: C_21  and  C_22
REMARK    9  A    between atoms: C_22  and  C_23
REMARK   10  A    between atoms: C_23  and  C_24
REMARK   11  A    between atoms: N_28  and  C_29
REMARK                            x       y       z     vdW  Elec       q    Type
REMARK                         _______ _______ _______ _____ _____    ______ ____
ROOT
ATOM      1  C   UNL     1       2.863   4.589  19.454  0.00  0.00    +0.000 A 
ATOM      2  C   UNL     1       2.236   5.838  19.427  0.00  0.00    +0.000 A 
ATOM      3  C   UNL     1       2.686   6.851  18.576  0.00  0.00    +0.000 A 
ATOM      4  C   UNL     1       3.803   6.595  17.767  0.00  0.00    +0.000 A 
ATOM      5  C   UNL     1       4.383   5.306  17.673  0.00  0.00    +0.000 A 
ATOM      6  C   UNL     1       3.904   4.329  18.565  0.00  0.00    +0.000 A 
ENDROOT
BRANCH   3   7
ATOM      7  N   UNL     1       2.036   8.102  18.426  0.00  0.00    +0.000 N 
ATOM      8  C   UNL     1       1.535   8.875  19.465  0.00  0.00    +0.000 C 
ATOM      9  O   UNL     1       1.630   8.622  20.663  0.00  0.00    +0.000 OA
ATOM     10  H   UNL     1       1.736   8.390  17.499  0.00  0.00    +0.000 HD
BRANCH   8  11
ATOM     11  C   UNL     1       0.757  10.095  19.056  0.00  0.00    +0.000 A 
ATOM     12  C   UNL     1       1.306  11.331  19.319  0.00  0.00    +0.000 A 
ATOM     13  C   UNL     1       0.564  12.417  18.935  0.00  0.00    +0.000 A 
ATOM     14  C   UNL     1       1.074  13.813  19.133  0.00  0.00    +0.000 C 
ATOM     15  N   UNL     1      -0.619  12.275  18.309  0.00  0.00    +0.000 NA
ATOM     16  C   UNL     1      -1.087  11.029  18.068  0.00  0.00    +0.000 A 
ATOM     17  N   UNL     1      -0.440   9.905  18.444  0.00  0.00    +0.000 NA
BRANCH  16  18
ATOM     18  C   UNL     1      -2.358  10.937  17.256  0.00  0.00    +0.000 C 
ATOM     19  C   UNL     1      -3.279   9.744  17.330  0.00  0.00    +0.000 C 
ATOM     20  C   UNL     1      -3.704  11.049  17.938  0.00  0.00    +0.000 C 
ENDBRANCH  16  18
ENDBRANCH   8  11
ENDBRANCH   3   7
BRANCH   5  21
ATOM     21  C   UNL     1       5.425   4.926  16.512  0.00  0.00    +0.000 C 
ATOM     22  C   UNL     1       5.065   3.756  15.544  0.00  0.00    +0.000 C 
ATOM     23  O   UNL     1       5.415   4.572  14.393  0.00  0.00    +0.000 OA
ATOM     24  C   UNL     1       5.270   5.760  15.206  0.00  0.00    +0.000 C 
BRANCH  21  25
ATOM     25  C   UNL     1       6.881   4.882  17.006  0.00  0.00    +0.000 C 
BRANCH  25  26
ATOM     26  C   UNL     1       7.420   6.207  17.435  0.00  0.00    +0.000 A 
ATOM     27  N   UNL     1       7.468   7.303  16.703  0.00  0.00    +0.000 NA
ATOM     28  N   UNL     1       7.981   8.318  17.475  0.00  0.00    +0.000 NA
ATOM     29  C   UNL     1       8.236   7.823  18.661  0.00  0.00    +0.000 A 
ATOM     30  N   UNL     1       7.910   6.502  18.682  0.00  0.00    +0.000 N 
ATOM     31  C   UNL     1       8.052   5.621  19.808  0.00  0.00    +0.000 C 
ENDBRANCH  25  26
ENDBRANCH  21  25
ENDBRANCH   5  21
BRANCH   1  32
ATOM     32  O   UNL     1       2.323   3.660  20.306  0.00  0.00    +0.000 OA
BRANCH  32  34
ATOM     33  C   UNL     1       0.804   2.454  18.898  0.00  0.00    +0.000 C 
ATOM     34  C   UNL     1       2.067   2.371  19.739  0.00  0.00    +0.000 C 
ENDBRANCH  32  34
ENDBRANCH   1  32
TORSDOF 8
ENDMDL
MODEL 2
REMARK VINA RESULT:      -8.2      1.487      2.468
REMARK  Name = 
REMARK  11 active torsions:
REMARK  status: ('A' for Active; 'I' for Inactive)
REMARK    1  A    between atoms: C_1  and  C_2
REMARK    2  A    between atoms: C_2  and  O_3
REMARK    3  A    between atoms: O_3  and  C_4
REMARK    4  A    between atoms: C_6  and  N_7
REMARK    5  A    between atoms: C_8  and  C_10
REMARK    6  A    between atoms: C_12  and  C_13
REMARK    7  A    between atoms: C_15  and  C_16
REMARK    8  A    between atoms: C_21  and  C_22
REMARK    9  A    between atoms: C_22  and  C_23
REMARK   10  A    between atoms: C_23  and  C_24
REMARK   11  A    between atoms: N_28  and  C_29
REMARK                            x       y       z     vdW  Elec       q    Type
REMARK                         _______ _______ _______ _____ _____    ______ ____
ROOT
ATOM      1  C   UNL     1       2.249   3.908  17.839  0.00  0.00    +0.000 A 
ATOM      2  C   UNL     1       1.824   5.209  18.127  0.00  0.00    +0.000 A 
ATOM      3  C   UNL     1       2.669   6.303  17.925  0.00  0.00    +0.000 A 
ATOM      4  C   UNL     1       3.967   6.065  17.450  0.00  0.00    +0.000 A 
ATOM      5  C   UNL     1       4.389   4.780  17.028  0.00  0.00    +0.000 A 
ATOM      6  C   UNL     1       3.506   3.711  17.272  0.00  0.00    +0.000 A 
ENDROOT
BRANCH   3   7
ATOM      7  N   UNL     1       2.269   7.652  18.101  0.00  0.00    +0.000 N 
ATOM      8  C   UNL     1       1.842   8.213  19.298  0.00  0.00    +0.000 C 
ATOM      9  O   UNL     1       1.804   7.646  20.386  0.00  0.00    +0.000 OA
ATOM     10  H   UNL     1       2.093   8.221  17.278  0.00  0.00    +0.000 HD
BRANCH   8  11
ATOM     11  C   UNL     1       1.329   9.623  19.212  0.00  0.00    +0.000 A 
ATOM     12  C   UNL     1       0.098   9.898  19.767  0.00  0.00    +0.000 A 
ATOM     13  C   UNL     1      -0.337  11.193  19.664  0.00  0.00    +0.000 A 
ATOM     14  C   UNL     1      -1.643  11.622  20.263  0.00  0.00    +0.000 C 
ATOM     15  N   UNL     1       0.416  12.144  19.079  0.00  0.00    +0.000 NA
ATOM     16  C   UNL     1       1.622  11.803  18.572  0.00  0.00    +0.000 A 
ATOM     17  N   UNL     1       2.113  10.545  18.597  0.00  0.00    +0.000 NA
BRANCH  16  18
ATOM     18  C   UNL     1       2.468  12.936  18.040  0.00  0.00    +0.000 C 
ATOM     19  C   UNL     1       2.118  14.385  18.273  0.00  0.00    +0.000 C 
ATOM     20  C   UNL     1       3.291  13.780  18.989  0.00  0.00    +0.000 C 
ENDBRANCH  16  18
ENDBRANCH   8  11
ENDBRANCH   3   7
BRANCH   5  21
ATOM     21  C   UNL     1       5.733   4.565  16.176  0.00  0.00    +0.000 C 
ATOM     22  C   UNL     1       5.753   3.444  15.091  0.00  0.00    +0.000 C 
ATOM     23  O   UNL     1       6.321   4.365  14.120  0.00  0.00    +0.000 OA
ATOM     24  C   UNL     1       5.856   5.477  14.920  0.00  0.00    +0.000 C 
BRANCH  21  25
ATOM     25  C   UNL     1       7.002   4.595  17.045  0.00  0.00    +0.000 C 
BRANCH  25  26
ATOM     26  C   UNL     1       7.459   5.969  17.409  0.00  0.00    +0.000 A 
ATOM     27  N   UNL     1       7.513   7.011  16.602  0.00  0.00    +0.000 NA
ATOM     28  N   UNL     1       7.935   8.100  17.329  0.00  0.00    +0.000 NA
ATOM     29  C   UNL     1       8.128   7.702  18.562  0.00  0.00    +0.000 A 
ATOM     30  N   UNL     1       7.853   6.373  18.659  0.00  0.00    +0.000 N 
ATOM     31  C   UNL     1       7.954   5.580  19.854  0.00  0.00    +0.000 C 
ENDBRANCH  25  26
ENDBRANCH  21  25
ENDBRANCH   5  21
BRANCH   1  32
ATOM     32  O   UNL     1       1.330   2.912  18.050  0.00  0.00    +0.000 OA
BRANCH  32  34
ATOM     33  C   UNL     1       1.704   2.445  20.370  0.00  0.00    +0.000 C 
ATOM     34  C   UNL     1       0.698   2.912  19.333  0.00  0.00    +0.000 C 
ENDBRANCH  32  34
ENDBRANCH   1  32
TORSDOF 8
ENDMDL
MODEL 3
REMARK VINA RESULT:      -8.2      2.285      3.396
REMARK  Name = 
REMARK  11 active torsions:
REMARK  status: ('A' for Active; 'I' for Inactive)
REMARK    1  A    between atoms: C_1  and  C_2
REMARK    2  A    between atoms: C_2  and  O_3
REMARK    3  A    between atoms: O_3  and  C_4
REMARK    4  A    between atoms: C_6  and  N_7
REMARK    5  A    between atoms: C_8  and  C_10
REMARK    6  A    between atoms: C_12  and  C_13
REMARK    7  A    between atoms: C_15  and  C_16
REMARK    8  A    between atoms: C_21  and  C_22
REMARK    9  A    between atoms: C_22  and  C_23
REMARK   10  A    between atoms: C_23  and  C_24
REMARK   11  A    between atoms: N_28  and  C_29
REMARK                            x       y       z     vdW  Elec       q    Type
REMARK                         _______ _______ _______ _____ _____    ______ ____
ROOT
ATOM      1  C   UNL     1       3.562   3.730  19.290  0.00  0.00    +0.000 A 
ATOM      2  C   UNL     1       2.679   4.773  19.585  0.00  0.00    +0.000 A 
ATOM      3  C   UNL     1       3.107   6.104  19.570  0.00  0.00    +0.000 A 
ATOM      4  C   UNL     1       4.453   6.367  19.280  0.00  0.00    +0.000 A 
ATOM      5  C   UNL     1       5.343   5.352  18.853  0.00  0.00    +0.000 A 
ATOM      6  C   UNL     1       4.867   4.029  18.904  0.00  0.00    +0.000 A 
ENDROOT
BRANCH   3   7
ATOM      7  N   UNL     1       2.243   7.212  19.760  0.00  0.00    +0.000 N 
ATOM      8  C   UNL     1       1.906   8.142  18.787  0.00  0.00    +0.000 C 
ATOM      9  O   UNL     1       2.254   8.113  17.609  0.00  0.00    +0.000 OA
ATOM     10  H   UNL     1       1.987   7.476  20.708  0.00  0.00    +0.000 HD
BRANCH   8  11
ATOM     11  C   UNL     1       1.089   9.314  19.257  0.00  0.00    +0.000 A 
ATOM     12  C   UNL     1       0.452  10.082  18.307  0.00  0.00    +0.000 A 
ATOM     13  C   UNL     1      -0.277  11.143  18.775  0.00  0.00    +0.000 A 
ATOM     14  C   UNL     1      -1.046  12.028  17.840  0.00  0.00    +0.000 C 
ATOM     15  N   UNL     1      -0.385  11.395  20.093  0.00  0.00    +0.000 NA
ATOM     16  C   UNL     1       0.254  10.587  20.969  0.00  0.00    +0.000 A 
ATOM     17  N   UNL     1       1.023   9.542  20.594  0.00  0.00    +0.000 NA
BRANCH  16  18
ATOM     18  C   UNL     1      -0.005  10.849  22.434  0.00  0.00    +0.000 C 
ATOM     19  C   UNL     1      -1.385  11.138  22.971  0.00  0.00    +0.000 C 
ATOM     20  C   UNL     1      -0.732   9.821  23.272  0.00  0.00    +0.000 C 
ENDBRANCH  16  18
ENDBRANCH   8  11
ENDBRANCH   3   7
BRANCH   5  21
ATOM     21  C   UNL     1       6.769   5.692  18.198  0.00  0.00    +0.000 C 
ATOM     22  C   UNL     1       6.976   7.099  17.555  0.00  0.00    +0.000 C 
ATOM     23  O   UNL     1       8.236   7.260  18.261  0.00  0.00    +0.000 OA
ATOM     24  C   UNL     1       7.827   6.239  19.201  0.00  0.00    +0.000 C 
BRANCH  21  25
ATOM     25  C   UNL     1       7.322   4.542  17.338  0.00  0.00    +0.000 C 
BRANCH  25  26
ATOM     26  C   UNL     1       7.028   4.675  15.881  0.00  0.00    +0.000 A 
ATOM     27  N   UNL     1       7.745   5.344  14.998  0.00  0.00    +0.000 NA
ATOM     28  N   UNL     1       7.173   5.179  13.759  0.00  0.00    +0.000 NA
ATOM     29  C   UNL     1       6.120   4.413  13.908  0.00  0.00    +0.000 A 
ATOM     30  N   UNL     1       5.982   4.081  15.220  0.00  0.00    +0.000 N 
ATOM     31  C   UNL     1       4.942   3.256  15.772  0.00  0.00    +0.000 C 
ENDBRANCH  25  26
ENDBRANCH  21  25
ENDBRANCH   5  21
BRANCH   1  32
ATOM     32  O   UNL     1       3.030   2.466  19.308  0.00  0.00    +0.000 OA
BRANCH  32  34
ATOM     33  C   UNL     1       0.719   2.182  18.737  0.00  0.00    +0.000 C 
ATOM     34  C   UNL     1       2.149   2.148  18.225  0.00  0.00    +0.000 C 
ENDBRANCH  32  34
ENDBRANCH   1  32
TORSDOF 8
ENDMDL
MODEL 4
REMARK VINA RESULT:      -8.1      2.294      3.435
REMARK  Name = 
REMARK  11 active torsions:
REMARK  status: ('A' for Active; 'I' for Inactive)
REMARK    1  A    between atoms: C_1  and  C_2
REMARK    2  A    between atoms: C_2  and  O_3
REMARK    3  A    between atoms: O_3  and  C_4
REMARK    4  A    between atoms: C_6  and  N_7
REMARK    5  A    between atoms: C_8  and  C_10
REMARK    6  A    between atoms: C_12  and  C_13
REMARK    7  A    between atoms: C_15  and  C_16
REMARK    8  A    between atoms: C_21  and  C_22
REMARK    9  A    between atoms: C_22  and  C_23
REMARK   10  A    between atoms: C_23  and  C_24
REMARK   11  A    between atoms: N_28  and  C_29
REMARK                            x       y       z     vdW  Elec       q    Type
REMARK                         _______ _______ _______ _____ _____    ______ ____
ROOT
ATOM      1  C   UNL     1       3.361   3.768  18.439  0.00  0.00    +0.000 A 
ATOM      2  C   UNL     1       2.564   4.763  19.012  0.00  0.00    +0.000 A 
ATOM      3  C   UNL     1       3.118   5.979  19.424  0.00  0.00    +0.000 A 
ATOM      4  C   UNL     1       4.499   6.168  19.273  0.00  0.00    +0.000 A 
ATOM      5  C   UNL     1       5.314   5.238  18.583  0.00  0.00    +0.000 A 
ATOM      6  C   UNL     1       4.711   4.023  18.207  0.00  0.00    +0.000 A 
ENDROOT
BRANCH   3   7
ATOM      7  N   UNL     1       2.353   7.066  19.919  0.00  0.00    +0.000 N 
ATOM      8  C   UNL     1       1.875   8.123  19.156  0.00  0.00    +0.000 C 
ATOM      9  O   UNL     1       1.990   8.246  17.939  0.00  0.00    +0.000 OA
ATOM     10  H   UNL     1       2.295   7.205  20.923  0.00  0.00    +0.000 HD
BRANCH   8  11
ATOM     11  C   UNL     1       1.213   9.234  19.923  0.00  0.00    +0.000 A 
ATOM     12  C   UNL     1       0.694   8.943  21.166  0.00  0.00    +0.000 A 
ATOM     13  C   UNL     1       0.095   9.981  21.830  0.00  0.00    +0.000 A 
ATOM     14  C   UNL     1      -0.471   9.796  23.206  0.00  0.00    +0.000 C 
ATOM     15  N   UNL     1       0.048  11.219  21.304  0.00  0.00    +0.000 NA
ATOM     16  C   UNL     1       0.595  11.434  20.086  0.00  0.00    +0.000 A 
ATOM     17  N   UNL     1       1.172  10.463  19.346  0.00  0.00    +0.000 NA
BRANCH  16  18
ATOM     18  C   UNL     1       0.617  12.867  19.606  0.00  0.00    +0.000 C 
ATOM     19  C   UNL     1       1.328  13.284  18.343  0.00  0.00    +0.000 C 
ATOM     20  C   UNL     1      -0.172  13.270  18.380  0.00  0.00    +0.000 C 
ENDBRANCH  16  18
ENDBRANCH   8  11
ENDBRANCH   3   7
BRANCH   5  21
ATOM     21  C   UNL     1       6.805   5.600  18.112  0.00  0.00    +0.000 C 
ATOM     22  C   UNL     1       7.099   7.053  17.626  0.00  0.00    +0.000 C 
ATOM     23  O   UNL     1       8.281   7.120  18.469  0.00  0.00    +0.000 OA
ATOM     24  C   UNL     1       7.761   6.029  19.264  0.00  0.00    +0.000 C 
BRANCH  21  25
ATOM     25  C   UNL     1       7.428   4.519  17.212  0.00  0.00    +0.000 C 
BRANCH  25  26
ATOM     26  C   UNL     1       7.209   4.741  15.752  0.00  0.00    +0.000 A 
ATOM     27  N   UNL     1       7.860   5.597  14.987  0.00  0.00    +0.000 NA
ATOM     28  N   UNL     1       7.403   5.460  13.697  0.00  0.00    +0.000 NA
ATOM     29  C   UNL     1       6.485   4.526  13.699  0.00  0.00    +0.000 A 
ATOM     30  N   UNL     1       6.321   4.052  14.964  0.00  0.00    +0.000 N 
ATOM     31  C   UNL     1       5.401   3.023  15.362  0.00  0.00    +0.000 C 
ENDBRANCH  25  26
ENDBRANCH  21  25
ENDBRANCH   5  21
BRANCH   1  32
ATOM     32  O   UNL     1       2.711   2.625  18.047  0.00  0.00    +0.000 OA
BRANCH  32  34
ATOM     33  C   UNL     1       0.503   2.131  18.839  0.00  0.00    +0.000 C 
ATOM     34  C   UNL     1       1.991   1.937  19.076  0.00  0.00    +0.000 C 
ENDBRANCH  32  34
ENDBRANCH   1  32
TORSDOF 8
ENDMDL
MODEL 5
REMARK VINA RESULT:      -8.0      1.793      3.438
REMARK  Name = 
REMARK  11 active torsions:
REMARK  status: ('A' for Active; 'I' for Inactive)
REMARK    1  A    between atoms: C_1  and  C_2
REMARK    2  A    between atoms: C_2  and  O_3
REMARK    3  A    between atoms: O_3  and  C_4
REMARK    4  A    between atoms: C_6  and  N_7
REMARK    5  A    between atoms: C_8  and  C_10
REMARK    6  A    between atoms: C_12  and  C_13
REMARK    7  A    between atoms: C_15  and  C_16
REMARK    8  A    between atoms: C_21  and  C_22
REMARK    9  A    between atoms: C_22  and  C_23
REMARK   10  A    between atoms: C_23  and  C_24
REMARK   11  A    between atoms: N_28  and  C_29
REMARK                            x       y       z     vdW  Elec       q    Type
REMARK                         _______ _______ _______ _____ _____    ______ ____
ROOT
ATOM      1  C   UNL     1       2.536   4.565  17.791  0.00  0.00    +0.000 A 
ATOM      2  C   UNL     1       1.891   5.803  17.863  0.00  0.00    +0.000 A 
ATOM      3  C   UNL     1       2.618   6.984  18.043  0.00  0.00    +0.000 A 
ATOM      4  C   UNL     1       4.011   6.895  18.179  0.00  0.00    +0.000 A 
ATOM      5  C   UNL     1       4.709   5.678  17.985  0.00  0.00    +0.000 A 
ATOM      6  C   UNL     1       3.928   4.517  17.826  0.00  0.00    +0.000 A 
ENDROOT
BRANCH   3   7
ATOM      7  N   UNL     1       2.038   8.277  18.024  0.00  0.00    +0.000 N 
ATOM      8  C   UNL     1       1.495   8.929  19.123  0.00  0.00    +0.000 C 
ATOM      9  O   UNL     1       1.487   8.512  20.278  0.00  0.00    +0.000 OA
ATOM     10  H   UNL     1       1.823   8.703  17.127  0.00  0.00    +0.000 HD
BRANCH   8  11
ATOM     11  C   UNL     1       0.805  10.234  18.833  0.00  0.00    +0.000 A 
ATOM     12  C   UNL     1      -0.556  10.212  18.621  0.00  0.00    +0.000 A 
ATOM     13  C   UNL     1      -1.146  11.420  18.356  0.00  0.00    +0.000 A 
ATOM     14  C   UNL     1      -2.627  11.530  18.146  0.00  0.00    +0.000 C 
ATOM     15  N   UNL     1      -0.433  12.562  18.336  0.00  0.00    +0.000 NA
ATOM     16  C   UNL     1       0.897  12.508  18.570  0.00  0.00    +0.000 A 
ATOM     17  N   UNL     1       1.566  11.358  18.804  0.00  0.00    +0.000 NA
BRANCH  16  18
ATOM     18  C   UNL     1       1.617  13.834  18.654  0.00  0.00    +0.000 C 
ATOM     19  C   UNL     1       0.898  15.125  18.954  0.00  0.00    +0.000 C 
ATOM     20  C   UNL     1       1.795  14.517  19.992  0.00  0.00    +0.000 C 
ENDBRANCH  16  18
ENDBRANCH   8  11
ENDBRANCH   3   7
BRANCH   5  21
ATOM     21  C   UNL     1       6.303   5.633  17.801  0.00  0.00    +0.000 C 
ATOM     22  C   UNL     1       7.052   6.963  17.478  0.00  0.00    +0.000 C 
ATOM     23  O   UNL     1       8.036   6.686  18.512  0.00  0.00    +0.000 OA
ATOM     24  C   UNL     1       7.111   5.759  19.126  0.00  0.00    +0.000 C 
BRANCH  21  25
ATOM     25  C   UNL     1       6.773   4.445  16.943  0.00  0.00    +0.000 C 
BRANCH  25  26
ATOM     26  C   UNL     1       7.005   4.784  15.508  0.00  0.00    +0.000 A 
ATOM     27  N   UNL     1       7.987   5.525  15.031  0.00  0.00    +0.000 NA
ATOM     28  N   UNL     1       7.882   5.554  13.660  0.00  0.00    +0.000 NA
ATOM     29  C   UNL     1       6.840   4.832  13.328  0.00  0.00    +0.000 A 
ATOM     30  N   UNL     1       6.253   4.337  14.451  0.00  0.00    +0.000 N 
ATOM     31  C   UNL     1       5.084   3.502  14.489  0.00  0.00    +0.000 C 
ENDBRANCH  25  26
ENDBRANCH  21  25
ENDBRANCH   5  21
BRANCH   1  32
ATOM     32  O   UNL     1       1.730   3.475  17.586  0.00  0.00    +0.000 OA
BRANCH  32  34
ATOM     33  C   UNL     1       0.944   2.715  19.719  0.00  0.00    +0.000 C 
ATOM     34  C   UNL     1       1.859   2.418  18.542  0.00  0.00    +0.000 C 
ENDBRANCH  32  34
ENDBRANCH   1  32
TORSDOF 8
ENDMDL
MODEL 6
REMARK VINA RESULT:      -8.0      1.855      2.413
REMARK  Name = 
REMARK  11 active torsions:
REMARK  status: ('A' for Active; 'I' for Inactive)
REMARK    1  A    between atoms: C_1  and  C_2
REMARK    2  A    between atoms: C_2  and  O_3
REMARK    3  A    between atoms: O_3  and  C_4
REMARK    4  A    between atoms: C_6  and  N_7
REMARK    5  A    between atoms: C_8  and  C_10
REMARK    6  A    between atoms: C_12  and  C_13
REMARK    7  A    between atoms: C_15  and  C_16
REMARK    8  A    between atoms: C_21  and  C_22
REMARK    9  A    between atoms: C_22  and  C_23
REMARK   10  A    between atoms: C_23  and  C_24
REMARK   11  A    between atoms: N_28  and  C_29
REMARK                            x       y       z     vdW  Elec       q    Type
REMARK                         _______ _______ _______ _____ _____    ______ ____
ROOT
ATOM      1  C   UNL     1       2.305   3.538  17.766  0.00  0.00    +0.000 A 
ATOM      2  C   UNL     1       1.870   4.738  18.336  0.00  0.00    +0.000 A 
ATOM      3  C   UNL     1       2.691   5.869  18.345  0.00  0.00    +0.000 A 
ATOM      4  C   UNL     1       3.976   5.765  17.792  0.00  0.00    +0.000 A 
ATOM      5  C   UNL     1       4.402   4.608  17.094  0.00  0.00    +0.000 A 
ATOM      6  C   UNL     1       3.545   3.493  17.133  0.00  0.00    +0.000 A 
ENDROOT
BRANCH   3   7
ATOM      7  N   UNL     1       2.276   7.141  18.814  0.00  0.00    +0.000 N 
ATOM      8  C   UNL     1       1.746   7.399  20.072  0.00  0.00    +0.000 C 
ATOM      9  O   UNL     1       1.612   6.581  20.979  0.00  0.00    +0.000 OA
ATOM     10  H   UNL     1       2.174   7.900  18.146  0.00  0.00    +0.000 HD
BRANCH   8  11
ATOM     11  C   UNL     1       1.242   8.797  20.294  0.00  0.00    +0.000 A 
ATOM     12  C   UNL     1       0.491   9.042  21.424  0.00  0.00    +0.000 A 
ATOM     13  C   UNL     1       0.046  10.327  21.588  0.00  0.00    +0.000 A 
ATOM     14  C   UNL     1      -0.746  10.724  22.797  0.00  0.00    +0.000 C 
ATOM     15  N   UNL     1       0.356  11.297  20.707  0.00  0.00    +0.000 NA
ATOM     16  C   UNL     1       1.112  10.986  19.630  0.00  0.00    +0.000 A 
ATOM     17  N   UNL     1       1.562   9.739  19.371  0.00  0.00    +0.000 NA
BRANCH  16  18
ATOM     18  C   UNL     1       1.525  12.140  18.746  0.00  0.00    +0.000 C 
ATOM     19  C   UNL     1       0.579  13.257  18.382  0.00  0.00    +0.000 C 
ATOM     20  C   UNL     1       1.706  13.521  19.337  0.00  0.00    +0.000 C 
ENDBRANCH  16  18
ENDBRANCH   8  11
ENDBRANCH   3   7
BRANCH   5  21
ATOM     21  C   UNL     1       5.720   4.607  16.177  0.00  0.00    +0.000 C 
ATOM     22  C   UNL     1       5.779   3.629  14.962  0.00  0.00    +0.000 C 
ATOM     23  O   UNL     1       6.229   4.703  14.092  0.00  0.00    +0.000 OA
ATOM     24  C   UNL     1       5.716   5.669  15.038  0.00  0.00    +0.000 C 
BRANCH  21  25
ATOM     25  C   UNL     1       7.021   4.638  16.998  0.00  0.00    +0.000 C 
BRANCH  25  26
ATOM     26  C   UNL     1       7.467   6.010  17.380  0.00  0.00    +0.000 A 
ATOM     27  N   UNL     1       7.507   7.066  16.590  0.00  0.00    +0.000 NA
ATOM     28  N   UNL     1       7.922   8.147  17.331  0.00  0.00    +0.000 NA
ATOM     29  C   UNL     1       8.127   7.732  18.557  0.00  0.00    +0.000 A 
ATOM     30  N   UNL     1       7.865   6.399  18.635  0.00  0.00    +0.000 N 
ATOM     31  C   UNL     1       7.980   5.589  19.816  0.00  0.00    +0.000 C 
ENDBRANCH  25  26
ENDBRANCH  21  25
ENDBRANCH   5  21
BRANCH   1  32
ATOM     32  O   UNL     1       1.409   2.500  17.788  0.00  0.00    +0.000 OA
BRANCH  32  34
ATOM     33  C   UNL     1       1.613   2.144  20.149  0.00  0.00    +0.000 C 
ATOM     34  C   UNL     1       0.651   2.360  18.994  0.00  0.00    +0.000 C 
ENDBRANCH  32  34
ENDBRANCH   1  32
TORSDOF 8
ENDMDL
MODEL 7
REMARK VINA RESULT:      -7.9      0.863      2.420
REMARK  Name = 
REMARK  11 active torsions:
REMARK  status: ('A' for Active; 'I' for Inactive)
REMARK    1  A    between atoms: C_1  and  C_2
REMARK    2  A    between atoms: C_2  and  O_3
REMARK    3  A    between atoms: O_3  and  C_4
REMARK    4  A    between atoms: C_6  and  N_7
REMARK    5  A    between atoms: C_8  and  C_10
REMARK    6  A    between atoms: C_12  and  C_13
REMARK    7  A    between atoms: C_15  and  C_16
REMARK    8  A    between atoms: C_21  and  C_22
REMARK    9  A    between atoms: C_22  and  C_23
REMARK   10  A    between atoms: C_23  and  C_24
REMARK   11  A    between atoms: N_28  and  C_29
REMARK                            x       y       z     vdW  Elec       q    Type
REMARK                         _______ _______ _______ _____ _____    ______ ____
ROOT
ATOM      1  C   UNL     1       2.386   4.336  18.740  0.00  0.00    +0.000 A 
ATOM      2  C   UNL     1       1.873   5.633  18.831  0.00  0.00    +0.000 A 
ATOM      3  C   UNL     1       2.549   6.717  18.263  0.00  0.00    +0.000 A 
ATOM      4  C   UNL     1       3.772   6.476  17.621  0.00  0.00    +0.000 A 
ATOM      5  C   UNL     1       4.259   5.165  17.398  0.00  0.00    +0.000 A 
ATOM      6  C   UNL     1       3.550   4.113  18.007  0.00  0.00    +0.000 A 
ENDROOT
BRANCH   3   7
ATOM      7  N   UNL     1       2.036   8.038  18.232  0.00  0.00    +0.000 N 
ATOM      8  C   UNL     1       1.562   8.741  19.332  0.00  0.00    +0.000 C 
ATOM      9  O   UNL     1       1.570   8.349  20.496  0.00  0.00    +0.000 OA
ATOM     10  H   UNL     1       1.815   8.456  17.333  0.00  0.00    +0.000 HD
BRANCH   8  11
ATOM     11  C   UNL     1       0.932  10.073  19.034  0.00  0.00    +0.000 A 
ATOM     12  C   UNL     1      -0.326  10.082  18.472  0.00  0.00    +0.000 A 
ATOM     13  C   UNL     1      -0.863  11.315  18.211  0.00  0.00    +0.000 A 
ATOM     14  C   UNL     1      -2.241  11.454  17.636  0.00  0.00    +0.000 C 
ATOM     15  N   UNL     1      -0.205  12.449  18.518  0.00  0.00    +0.000 NA
ATOM     16  C   UNL     1       1.019  12.362  19.085  0.00  0.00    +0.000 A 
ATOM     17  N   UNL     1       1.639  11.190  19.343  0.00  0.00    +0.000 NA
BRANCH  16  18
ATOM     18  C   UNL     1       1.651  13.665  19.516  0.00  0.00    +0.000 C 
ATOM     19  C   UNL     1       3.114  13.963  19.301  0.00  0.00    +0.000 C 
ATOM     20  C   UNL     1       2.082  14.679  18.480  0.00  0.00    +0.000 C 
ENDBRANCH  16  18
ENDBRANCH   8  11
ENDBRANCH   3   7
BRANCH   5  21
ATOM     21  C   UNL     1       5.464   4.868  16.380  0.00  0.00    +0.000 C 
ATOM     22  C   UNL     1       5.272   3.753  15.305  0.00  0.00    +0.000 C 
ATOM     23  O   UNL     1       5.766   4.640  14.265  0.00  0.00    +0.000 OA
ATOM     24  C   UNL     1       5.481   5.776  15.115  0.00  0.00    +0.000 C 
BRANCH  21  25
ATOM     25  C   UNL     1       6.836   4.813  17.076  0.00  0.00    +0.000 C 
BRANCH  25  26
ATOM     26  C   UNL     1       7.374   6.149  17.466  0.00  0.00    +0.000 A 
ATOM     27  N   UNL     1       7.392   7.233  16.714  0.00  0.00    +0.000 NA
ATOM     28  N   UNL     1       7.919   8.266  17.454  0.00  0.00    +0.000 NA
ATOM     29  C   UNL     1       8.210   7.794  18.641  0.00  0.00    +0.000 A 
ATOM     30  N   UNL     1       7.897   6.471  18.694  0.00  0.00    +0.000 N 
ATOM     31  C   UNL     1       8.077   5.610  19.831  0.00  0.00    +0.000 C 
ENDBRANCH  25  26
ENDBRANCH  21  25
ENDBRANCH   5  21
BRANCH   1  32
ATOM     32  O   UNL     1       1.628   3.345  19.309  0.00  0.00    +0.000 OA
BRANCH  32  34
ATOM     33  C   UNL     1       1.912   2.800  21.626  0.00  0.00    +0.000 C 
ATOM     34  C   UNL     1       2.323   2.468  20.202  0.00  0.00    +0.000 C 
ENDBRANCH  32  34
ENDBRANCH   1  32
TORSDOF 8
ENDMDL
MODEL 8
REMARK VINA RESULT:      -7.9      1.106      1.199
REMARK  Name = 
REMARK  11 active torsions:
REMARK  status: ('A' for Active; 'I' for Inactive)
REMARK    1  A    between atoms: C_1  and  C_2
REMARK    2  A    between atoms: C_2  and  O_3
REMARK    3  A    between atoms: O_3  and  C_4
REMARK    4  A    between atoms: C_6  and  N_7
REMARK    5  A    between atoms: C_8  and  C_10
REMARK    6  A    between atoms: C_12  and  C_13
REMARK    7  A    between atoms: C_15  and  C_16
REMARK    8  A    between atoms: C_21  and  C_22
REMARK    9  A    between atoms: C_22  and  C_23
REMARK   10  A    between atoms: C_23  and  C_24
REMARK   11  A    between atoms: N_28  and  C_29
REMARK                            x       y       z     vdW  Elec       q    Type
REMARK                         _______ _______ _______ _____ _____    ______ ____
ROOT
ATOM      1  C   UNL     1       3.339   3.978  19.424  0.00  0.00    +0.000 A 
ATOM      2  C   UNL     1       2.489   5.088  19.421  0.00  0.00    +0.000 A 
ATOM      3  C   UNL     1       2.695   6.149  18.534  0.00  0.00    +0.000 A 
ATOM      4  C   UNL     1       3.793   6.086  17.664  0.00  0.00    +0.000 A 
ATOM      5  C   UNL     1       4.597   4.925  17.550  0.00  0.00    +0.000 A 
ATOM      6  C   UNL     1       4.359   3.896  18.479  0.00  0.00    +0.000 A 
ENDROOT
BRANCH   3   7
ATOM      7  N   UNL     1       1.816   7.254  18.410  0.00  0.00    +0.000 N 
ATOM      8  C   UNL     1       2.200   8.554  18.108  0.00  0.00    +0.000 C 
ATOM      9  O   UNL     1       3.341   8.928  17.848  0.00  0.00    +0.000 OA
ATOM     10  H   UNL     1       0.860   7.159  18.741  0.00  0.00    +0.000 HD
BRANCH   8  11
ATOM     11  C   UNL     1       1.111   9.589  18.173  0.00  0.00    +0.000 A 
ATOM     12  C   UNL     1       1.439  10.845  18.635  0.00  0.00    +0.000 A 
ATOM     13  C   UNL     1       0.418  11.757  18.684  0.00  0.00    +0.000 A 
ATOM     14  C   UNL     1       0.659  13.167  19.132  0.00  0.00    +0.000 C 
ATOM     15  N   UNL     1      -0.826  11.445  18.272  0.00  0.00    +0.000 NA
ATOM     16  C   UNL     1      -1.069  10.196  17.813  0.00  0.00    +0.000 A 
ATOM     17  N   UNL     1      -0.132   9.225  17.765  0.00  0.00    +0.000 NA
BRANCH  16  18
ATOM     18  C   UNL     1      -2.450   9.946  17.253  0.00  0.00    +0.000 C 
ATOM     19  C   UNL     1      -3.307  11.053  16.693  0.00  0.00    +0.000 C 
ATOM     20  C   UNL     1      -2.695  10.046  15.764  0.00  0.00    +0.000 C 
ENDBRANCH  16  18
ENDBRANCH   8  11
ENDBRANCH   3   7
BRANCH   5  21
ATOM     21  C   UNL     1       5.624   4.720  16.334  0.00  0.00    +0.000 C 
ATOM     22  C   UNL     1       5.337   3.585  15.301  0.00  0.00    +0.000 C 
ATOM     23  O   UNL     1       5.567   4.502  14.197  0.00  0.00    +0.000 OA
ATOM     24  C   UNL     1       5.344   5.617  15.092  0.00  0.00    +0.000 C 
BRANCH  21  25
ATOM     25  C   UNL     1       7.096   4.782  16.777  0.00  0.00    +0.000 C 
BRANCH  25  26
ATOM     26  C   UNL     1       7.524   6.119  17.283  0.00  0.00    +0.000 A 
ATOM     27  N   UNL     1       7.636   7.224  16.570  0.00  0.00    +0.000 NA
ATOM     28  N   UNL     1       8.003   8.248  17.411  0.00  0.00    +0.000 NA
ATOM     29  C   UNL     1       8.107   7.750  18.619  0.00  0.00    +0.000 A 
ATOM     30  N   UNL     1       7.826   6.419  18.588  0.00  0.00    +0.000 N 
ATOM     31  C   UNL     1       7.840   5.532  19.718  0.00  0.00    +0.000 C 
ENDBRANCH  25  26
ENDBRANCH  21  25
ENDBRANCH   5  21
BRANCH   1  32
ATOM     32  O   UNL     1       3.029   2.983  20.317  0.00  0.00    +0.000 OA
BRANCH  32  34
ATOM     33  C   UNL     1       1.266   2.557  21.884  0.00  0.00    +0.000 C 
ATOM     34  C   UNL     1       2.476   3.418  21.564  0.00  0.00    +0.000 C 
ENDBRANCH  32  34
ENDBRANCH   1  32
TORSDOF 8
ENDMDL
MODEL 9
REMARK VINA RESULT:      -7.9      3.532     10.273
REMARK  Name = 
REMARK  11 active torsions:
REMARK  status: ('A' for Active; 'I' for Inactive)
REMARK    1  A    between atoms: C_1  and  C_2
REMARK    2  A    between atoms: C_2  and  O_3
REMARK    3  A    between atoms: O_3  and  C_4
REMARK    4  A    between atoms: C_6  and  N_7
REMARK    5  A    between atoms: C_8  and  C_10
REMARK    6  A    between atoms: C_12  and  C_13
REMARK    7  A    between atoms: C_15  and  C_16
REMARK    8  A    between atoms: C_21  and  C_22
REMARK    9  A    between atoms: C_22  and  C_23
REMARK   10  A    between atoms: C_23  and  C_24
REMARK   11  A    between atoms: N_28  and  C_29
REMARK                            x       y       z     vdW  Elec       q    Type
REMARK                         _______ _______ _______ _____ _____    ______ ____
ROOT
ATOM      1  C   UNL     1      -1.685  11.422  17.894  0.00  0.00    +0.000 A 
ATOM      2  C   UNL     1      -0.776  10.361  17.951  0.00  0.00    +0.000 A 
ATOM      3  C   UNL     1       0.047  10.178  19.066  0.00  0.00    +0.000 A 
ATOM      4  C   UNL     1      -0.040  11.102  20.117  0.00  0.00    +0.000 A 
ATOM      5  C   UNL     1      -1.033  12.111  20.151  0.00  0.00    +0.000 A 
ATOM      6  C   UNL     1      -1.822  12.263  18.995  0.00  0.00    +0.000 A 
ENDROOT
BRANCH   3   7
ATOM      7  N   UNL     1       0.915   9.070  19.232  0.00  0.00    +0.000 N 
ATOM      8  C   UNL     1       1.907   8.687  18.339  0.00  0.00    +0.000 C 
ATOM      9  O   UNL     1       2.218   9.279  17.309  0.00  0.00    +0.000 OA
ATOM     10  H   UNL     1       0.699   8.382  19.948  0.00  0.00    +0.000 HD
BRANCH   8  11
ATOM     11  C   UNL     1       2.606   7.393  18.654  0.00  0.00    +0.000 A 
ATOM     12  C   UNL     1       2.129   6.640  19.705  0.00  0.00    +0.000 A 
ATOM     13  C   UNL     1       2.796   5.472  19.963  0.00  0.00    +0.000 A 
ATOM     14  C   UNL     1       2.347   4.549  21.056  0.00  0.00    +0.000 C 
ATOM     15  N   UNL     1       3.838   5.074  19.208  0.00  0.00    +0.000 NA
ATOM     16  C   UNL     1       4.238   5.857  18.181  0.00  0.00    +0.000 A 
ATOM     17  N   UNL     1       3.663   7.041  17.878  0.00  0.00    +0.000 NA
BRANCH  16  18
ATOM     18  C   UNL     1       5.331   5.298  17.300  0.00  0.00    +0.000 C 
ATOM     19  C   UNL     1       6.207   6.177  16.443  0.00  0.00    +0.000 C 
ATOM     20  C   UNL     1       6.783   5.516  17.660  0.00  0.00    +0.000 C 
ENDBRANCH  16  18
ENDBRANCH   8  11
ENDBRANCH   3   7
BRANCH   5  21
ATOM     21  C   UNL     1      -1.355  12.942  21.486  0.00  0.00    +0.000 C 
ATOM     22  C   UNL     1      -1.315  12.194  22.855  0.00  0.00    +0.000 C 
ATOM     23  O   UNL     1      -0.503  13.251  23.434  0.00  0.00    +0.000 OA
ATOM     24  C   UNL     1      -0.128  13.676  22.103  0.00  0.00    +0.000 C 
BRANCH  21  25
ATOM     25  C   UNL     1      -2.572  13.871  21.335  0.00  0.00    +0.000 C 
BRANCH  25  26
ATOM     26  C   UNL     1      -3.769  13.439  22.117  0.00  0.00    +0.000 A 
ATOM     27  N   UNL     1      -4.608  12.476  21.789  0.00  0.00    +0.000 NA
ATOM     28  N   UNL     1      -5.540  12.353  22.793  0.00  0.00    +0.000 NA
ATOM     29  C   UNL     1      -5.252  13.242  23.711  0.00  0.00    +0.000 A 
ATOM     30  N   UNL     1      -4.157  13.953  23.329  0.00  0.00    +0.000 N 
ATOM     31  C   UNL     1      -3.544  15.017  24.075  0.00  0.00    +0.000 C 
ENDBRANCH  25  26
ENDBRANCH  21  25
ENDBRANCH   5  21
BRANCH   1  32
ATOM     32  O   UNL     1      -2.461  11.492  16.765  0.00  0.00    +0.000 OA
BRANCH  32  34
ATOM     33  C   UNL     1      -4.816  11.181  17.081  0.00  0.00    +0.000 C 
ATOM     34  C   UNL     1      -3.510  10.522  16.672  0.00  0.00    +0.000 C 
ENDBRANCH  32  34
ENDBRANCH   1  32
TORSDOF 8
ENDMDL
