MODEL 1
REMARK VINA RESULT:      -9.1      0.000      0.000
REMARK  Name = 
REMARK  6 active torsions:
REMARK  status: ('A' for Active; 'I' for Inactive)
REMARK    1  A    between atoms: C_1  and  N_2
REMARK    2  A    between atoms: C_6  and  C_7
REMARK    3  A    between atoms: C_7  and  C_8
REMARK    4  A    between atoms: C_8  and  C_9
REMARK    5  A    between atoms: C_13  and  N_14
REMARK    6  A    between atoms: C_22  and  C_23
REMARK                            x       y       z     vdW  Elec       q    Type
REMARK                         _______ _______ _______ _____ _____    ______ ____
ROOT
ATOM      1  C   UNL     1      -0.874  11.250  20.576  0.00  0.00    +0.000 A 
ATOM      2  C   UNL     1      -1.075  11.157  21.961  0.00  0.00    +0.000 A 
ATOM      3  C   UNL     1      -0.481  10.141  22.722  0.00  0.00    +0.000 A 
ATOM      4  C   UNL     1       0.356   9.192  22.121  0.00  0.00    +0.000 A 
ATOM      5  C   UNL     1       0.598   9.249  20.754  0.00  0.00    +0.000 A 
ATOM      6  C   UNL     1      -0.043  10.261  20.021  0.00  0.00    +0.000 A 
ENDROOT
BRANCH   5   7
ATOM      7  N   UNL     1       1.480   8.374  20.073  0.00  0.00    +0.000 N 
ATOM      8  C   UNL     1       1.788   7.070  20.639  0.00  0.00    +0.000 C 
ATOM      9  C   UNL     1       2.555   6.387  19.569  0.00  0.00    +0.000 A 
ATOM     10  C   UNL     1       2.790   7.282  18.526  0.00  0.00    +0.000 A 
ATOM     11  C   UNL     1       3.503   6.915  17.403  0.00  0.00    +0.000 A 
ATOM     12  C   UNL     1       3.976   5.600  17.353  0.00  0.00    +0.000 A 
ATOM     13  C   UNL     1       3.698   4.695  18.396  0.00  0.00    +0.000 A 
ATOM     14  F   UNL     1       4.128   3.431  18.264  0.00  0.00    +0.000 F 
ATOM     15  C   UNL     1       2.966   5.055  19.539  0.00  0.00    +0.000 A 
ATOM     16  C   UNL     1       2.092   8.550  18.832  0.00  0.00    +0.000 C 
ATOM     17  O   UNL     1       2.086   9.504  18.069  0.00  0.00    +0.000 OA
BRANCH  15  18
ATOM     18  C   UNL     1       2.531   4.059  20.589  0.00  0.00    +0.000 C 
ATOM     19  C   UNL     1       1.089   3.646  20.744  0.00  0.00    +0.000 C 
ATOM     20  C   UNL     1       2.085   2.664  20.210  0.00  0.00    +0.000 C 
ENDBRANCH  15  18
ENDBRANCH   5   7
BRANCH   1  21
ATOM     21  C   UNL     1      -1.523  12.379  19.627  0.00  0.00    +0.000 C 
ATOM     22  C   UNL     1      -0.611  12.893  18.481  0.00  0.00    +0.000 C 
ATOM     23  O   UNL     1      -0.639  14.246  18.970  0.00  0.00    +0.000 OA
ATOM     24  C   UNL     1      -1.438  13.860  20.107  0.00  0.00    +0.000 C 
BRANCH  21  25
ATOM     25  C   UNL     1      -2.940  11.972  19.149  0.00  0.00    +0.000 C 
BRANCH  25  31
ATOM     26  C   UNL     1      -5.320  12.116  17.072  0.00  0.00    +0.000 C 
ATOM     27  N   UNL     1      -4.046  11.472  16.888  0.00  0.00    +0.000 N 
ATOM     28  C   UNL     1      -3.671  10.791  15.770  0.00  0.00    +0.000 A 
ATOM     29  N   UNL     1      -2.474  10.289  15.942  0.00  0.00    +0.000 NA
ATOM     30  N   UNL     1      -2.057  10.638  17.203  0.00  0.00    +0.000 NA
ATOM     31  C   UNL     1      -2.992  11.380  17.769  0.00  0.00    +0.000 A 
ENDBRANCH  25  31
ENDBRANCH  21  25
ENDBRANCH   1  21
TORSDOF 5
ENDMDL
MODEL 2
REMARK VINA RESULT:      -9.0      0.988      1.176
REMARK  Name = 
REMARK  6 active torsions:
REMARK  status: ('A' for Active; 'I' for Inactive)
REMARK    1  A    between atoms: C_1  and  N_2
REMARK    2  A    between atoms: C_6  and  C_7
REMARK    3  A    between atoms: C_7  and  C_8
REMARK    4  A    between atoms: C_8  and  C_9
REMARK    5  A    between atoms: C_13  and  N_14
REMARK    6  A    between atoms: C_22  and  C_23
REMARK                            x       y       z     vdW  Elec       q    Type
REMARK                         _______ _______ _______ _____ _____    ______ ____
ROOT
ATOM      1  C   UNL     1      -0.481  10.231  20.206  0.00  0.00    +0.000 A 
ATOM      2  C   UNL     1      -0.316  10.457  21.581  0.00  0.00    +0.000 A 
ATOM      3  C   UNL     1       0.588   9.705  22.343  0.00  0.00    +0.000 A 
ATOM      4  C   UNL     1       1.379   8.715  21.747  0.00  0.00    +0.000 A 
ATOM      5  C   UNL     1       1.263   8.463  20.386  0.00  0.00    +0.000 A 
ATOM      6  C   UNL     1       0.320   9.212  19.663  0.00  0.00    +0.000 A 
ENDROOT
BRANCH   5   7
ATOM      7  N   UNL     1       2.065   7.528  19.686  0.00  0.00    +0.000 N 
ATOM      8  C   UNL     1       2.127   6.146  20.137  0.00  0.00    +0.000 C 
ATOM      9  C   UNL     1       2.879   5.452  19.063  0.00  0.00    +0.000 A 
ATOM     10  C   UNL     1       3.336   6.391  18.139  0.00  0.00    +0.000 A 
ATOM     11  C   UNL     1       4.086   6.021  17.042  0.00  0.00    +0.000 A 
ATOM     12  C   UNL     1       4.364   4.659  16.892  0.00  0.00    +0.000 A 
ATOM     13  C   UNL     1       3.864   3.717  17.811  0.00  0.00    +0.000 A 
ATOM     14  F   UNL     1       4.114   2.419  17.583  0.00  0.00    +0.000 F 
ATOM     15  C   UNL     1       3.092   4.081  18.927  0.00  0.00    +0.000 A 
ATOM     16  C   UNL     1       2.806   7.719  18.520  0.00  0.00    +0.000 C 
ATOM     17  O   UNL     1       3.009   8.727  17.862  0.00  0.00    +0.000 OA
BRANCH  15  18
ATOM     18  C   UNL     1       2.422   3.073  19.833  0.00  0.00    +0.000 C 
ATOM     19  C   UNL     1       0.947   3.136  20.138  0.00  0.00    +0.000 C 
ATOM     20  C   UNL     1       1.476   2.029  19.280  0.00  0.00    +0.000 C 
ENDBRANCH  15  18
ENDBRANCH   5   7
BRANCH   1  21
ATOM     21  C   UNL     1      -1.502  11.041  19.258  0.00  0.00    +0.000 C 
ATOM     22  C   UNL     1      -0.842  11.999  18.230  0.00  0.00    +0.000 C 
ATOM     23  O   UNL     1      -1.496  13.156  18.782  0.00  0.00    +0.000 OA
ATOM     24  C   UNL     1      -2.111  12.363  19.818  0.00  0.00    +0.000 C 
BRANCH  21  25
ATOM     25  C   UNL     1      -2.560  10.099  18.629  0.00  0.00    +0.000 C 
BRANCH  25  31
ATOM     26  C   UNL     1      -4.876  11.814  17.327  0.00  0.00    +0.000 C 
ATOM     27  N   UNL     1      -3.837  11.095  16.639  0.00  0.00    +0.000 N 
ATOM     28  C   UNL     1      -3.703  11.025  15.285  0.00  0.00    +0.000 A 
ATOM     29  N   UNL     1      -2.686  10.257  14.983  0.00  0.00    +0.000 NA
ATOM     30  N   UNL     1      -2.146   9.804  16.162  0.00  0.00    +0.000 NA
ATOM     31  C   UNL     1      -2.820  10.333  17.168  0.00  0.00    +0.000 A 
ENDBRANCH  25  31
ENDBRANCH  21  25
ENDBRANCH   1  21
TORSDOF 5
ENDMDL
MODEL 3
REMARK VINA RESULT:      -9.0      2.109      3.163
REMARK  Name = 
REMARK  6 active torsions:
REMARK  status: ('A' for Active; 'I' for Inactive)
REMARK    1  A    between atoms: C_1  and  N_2
REMARK    2  A    between atoms: C_6  and  C_7
REMARK    3  A    between atoms: C_7  and  C_8
REMARK    4  A    between atoms: C_8  and  C_9
REMARK    5  A    between atoms: C_13  and  N_14
REMARK    6  A    between atoms: C_22  and  C_23
REMARK                            x       y       z     vdW  Elec       q    Type
REMARK                         _______ _______ _______ _____ _____    ______ ____
ROOT
ATOM      1  C   UNL     1      -0.723  10.834  19.944  0.00  0.00    +0.000 A 
ATOM      2  C   UNL     1      -0.703  11.049  21.329  0.00  0.00    +0.000 A 
ATOM      3  C   UNL     1       0.100  10.275  22.179  0.00  0.00    +0.000 A 
ATOM      4  C   UNL     1       0.930   9.272  21.664  0.00  0.00    +0.000 A 
ATOM      5  C   UNL     1       0.957   9.030  20.296  0.00  0.00    +0.000 A 
ATOM      6  C   UNL     1       0.111   9.802  19.481  0.00  0.00    +0.000 A 
ENDROOT
BRANCH   5   7
ATOM      7  N   UNL     1       1.810   8.082  19.679  0.00  0.00    +0.000 N 
ATOM      8  C   UNL     1       2.043   6.794  20.315  0.00  0.00    +0.000 C 
ATOM      9  C   UNL     1       2.800   6.024  19.298  0.00  0.00    +0.000 A 
ATOM     10  C   UNL     1       3.102   6.856  18.220  0.00  0.00    +0.000 A 
ATOM     11  C   UNL     1       3.822   6.401  17.134  0.00  0.00    +0.000 A 
ATOM     12  C   UNL     1       4.232   5.064  17.159  0.00  0.00    +0.000 A 
ATOM     13  C   UNL     1       3.887   4.225  18.236  0.00  0.00    +0.000 A 
ATOM     14  F   UNL     1       4.258   2.937  18.175  0.00  0.00    +0.000 F 
ATOM     15  C   UNL     1       3.147   4.675  19.342  0.00  0.00    +0.000 A 
ATOM     16  C   UNL     1       2.458   8.168  18.447  0.00  0.00    +0.000 C 
ATOM     17  O   UNL     1       2.516   9.083  17.640  0.00  0.00    +0.000 OA
BRANCH  15  18
ATOM     18  C   UNL     1       2.640   3.753  20.427  0.00  0.00    +0.000 C 
ATOM     19  C   UNL     1       1.171   3.627  20.741  0.00  0.00    +0.000 C 
ATOM     20  C   UNL     1       1.887   2.485  20.090  0.00  0.00    +0.000 C 
ENDBRANCH  15  18
ENDBRANCH   5   7
BRANCH   1  21
ATOM     21  C   UNL     1      -1.621  11.670  18.897  0.00  0.00    +0.000 C 
ATOM     22  C   UNL     1      -2.938  12.259  19.469  0.00  0.00    +0.000 C 
ATOM     23  O   UNL     1      -3.754  11.519  18.542  0.00  0.00    +0.000 OA
ATOM     24  C   UNL     1      -2.595  10.868  17.982  0.00  0.00    +0.000 C 
BRANCH  21  25
ATOM     25  C   UNL     1      -0.769  12.708  18.123  0.00  0.00    +0.000 C 
BRANCH  25  31
ATOM     26  C   UNL     1       2.389  12.608  18.265  0.00  0.00    +0.000 C 
ATOM     27  N   UNL     1       1.514  13.475  19.009  0.00  0.00    +0.000 N 
ATOM     28  C   UNL     1       1.923  14.394  19.928  0.00  0.00    +0.000 A 
ATOM     29  N   UNL     1       0.880  14.983  20.456  0.00  0.00    +0.000 NA
ATOM     30  N   UNL     1      -0.240  14.434  19.880  0.00  0.00    +0.000 NA
ATOM     31  C   UNL     1       0.139  13.542  18.982  0.00  0.00    +0.000 A 
ENDBRANCH  25  31
ENDBRANCH  21  25
ENDBRANCH   1  21
TORSDOF 5
ENDMDL
MODEL 4
REMARK VINA RESULT:      -8.9      2.024      3.162
REMARK  Name = 
REMARK  6 active torsions:
REMARK  status: ('A' for Active; 'I' for Inactive)
REMARK    1  A    between atoms: C_1  and  N_2
REMARK    2  A    between atoms: C_6  and  C_7
REMARK    3  A    between atoms: C_7  and  C_8
REMARK    4  A    between atoms: C_8  and  C_9
REMARK    5  A    between atoms: C_13  and  N_14
REMARK    6  A    between atoms: C_22  and  C_23
REMARK                            x       y       z     vdW  Elec       q    Type
REMARK                         _______ _______ _______ _____ _____    ______ ____
ROOT
ATOM      1  C   UNL     1      -0.636  10.988  20.116  0.00  0.00    +0.000 A 
ATOM      2  C   UNL     1      -0.732  11.040  21.514  0.00  0.00    +0.000 A 
ATOM      3  C   UNL     1      -0.047  10.128  22.329  0.00  0.00    +0.000 A 
ATOM      4  C   UNL     1       0.778   9.144  21.769  0.00  0.00    +0.000 A 
ATOM      5  C   UNL     1       0.917   9.061  20.389  0.00  0.00    +0.000 A 
ATOM      6  C   UNL     1       0.187   9.970  19.605  0.00  0.00    +0.000 A 
ENDROOT
BRANCH   5   7
ATOM      7  N   UNL     1       1.777   8.143  19.737  0.00  0.00    +0.000 N 
ATOM      8  C   UNL     1       2.031   6.840  20.332  0.00  0.00    +0.000 C 
ATOM      9  C   UNL     1       2.789   6.110  19.287  0.00  0.00    +0.000 A 
ATOM     10  C   UNL     1       3.072   6.977  18.232  0.00  0.00    +0.000 A 
ATOM     11  C   UNL     1       3.788   6.564  17.127  0.00  0.00    +0.000 A 
ATOM     12  C   UNL     1       4.215   5.233  17.108  0.00  0.00    +0.000 A 
ATOM     13  C   UNL     1       3.890   4.358  18.162  0.00  0.00    +0.000 A 
ATOM     14  F   UNL     1       4.276   3.077  18.060  0.00  0.00    +0.000 F 
ATOM     15  C   UNL     1       3.153   4.764  19.287  0.00  0.00    +0.000 A 
ATOM     16  C   UNL     1       2.414   8.275  18.504  0.00  0.00    +0.000 C 
ATOM     17  O   UNL     1       2.454   9.213  17.724  0.00  0.00    +0.000 OA
BRANCH  15  18
ATOM     18  C   UNL     1       2.666   3.804  20.348  0.00  0.00    +0.000 C 
ATOM     19  C   UNL     1       1.210   3.709  20.726  0.00  0.00    +0.000 C 
ATOM     20  C   UNL     1       1.856   2.580  19.984  0.00  0.00    +0.000 C 
ENDBRANCH  15  18
ENDBRANCH   5   7
BRANCH   1  21
ATOM     21  C   UNL     1      -1.394  11.991  19.105  0.00  0.00    +0.000 C 
ATOM     22  C   UNL     1      -2.943  11.985  19.196  0.00  0.00    +0.000 C 
ATOM     23  O   UNL     1      -3.092  11.571  17.825  0.00  0.00    +0.000 OA
ATOM     24  C   UNL     1      -1.663  11.485  17.655  0.00  0.00    +0.000 C 
BRANCH  21  25
ATOM     25  C   UNL     1      -0.780  13.413  19.153  0.00  0.00    +0.000 C 
BRANCH  25  31
ATOM     26  C   UNL     1       1.083  14.335  21.536  0.00  0.00    +0.000 C 
ATOM     27  N   UNL     1       1.499  13.851  20.247  0.00  0.00    +0.000 N 
ATOM     28  C   UNL     1       2.794  13.733  19.839  0.00  0.00    +0.000 A 
ATOM     29  N   UNL     1       2.828  13.308  18.601  0.00  0.00    +0.000 NA
ATOM     30  N   UNL     1       1.529  13.152  18.182  0.00  0.00    +0.000 NA
ATOM     31  C   UNL     1       0.721  13.450  19.184  0.00  0.00    +0.000 A 
ENDBRANCH  25  31
ENDBRANCH  21  25
ENDBRANCH   1  21
TORSDOF 5
ENDMDL
MODEL 5
REMARK VINA RESULT:      -8.8      3.454      8.865
REMARK  Name = 
REMARK  6 active torsions:
REMARK  status: ('A' for Active; 'I' for Inactive)
REMARK    1  A    between atoms: C_1  and  N_2
REMARK    2  A    between atoms: C_6  and  C_7
REMARK    3  A    between atoms: C_7  and  C_8
REMARK    4  A    between atoms: C_8  and  C_9
REMARK    5  A    between atoms: C_13  and  N_14
REMARK    6  A    between atoms: C_22  and  C_23
REMARK                            x       y       z     vdW  Elec       q    Type
REMARK                         _______ _______ _______ _____ _____    ______ ____
ROOT
ATOM      1  C   UNL     1       2.832   5.995  18.637  0.00  0.00    +0.000 A 
ATOM      2  C   UNL     1       3.512   6.495  17.517  0.00  0.00    +0.000 A 
ATOM      3  C   UNL     1       3.408   7.840  17.137  0.00  0.00    +0.000 A 
ATOM      4  C   UNL     1       2.633   8.738  17.883  0.00  0.00    +0.000 A 
ATOM      5  C   UNL     1       1.951   8.295  19.009  0.00  0.00    +0.000 A 
ATOM      6  C   UNL     1       2.053   6.932  19.337  0.00  0.00    +0.000 A 
ENDROOT
BRANCH   5   7
ATOM      7  N   UNL     1       1.198   9.141  19.859  0.00  0.00    +0.000 N 
ATOM      8  C   UNL     1       0.392  10.210  19.288  0.00  0.00    +0.000 C 
ATOM      9  C   UNL     1      -0.385  10.727  20.440  0.00  0.00    +0.000 A 
ATOM     10  C   UNL     1       0.047  10.099  21.608  0.00  0.00    +0.000 A 
ATOM     11  C   UNL     1      -0.496  10.406  22.839  0.00  0.00    +0.000 A 
ATOM     12  C   UNL     1      -1.505  11.374  22.865  0.00  0.00    +0.000 A 
ATOM     13  C   UNL     1      -1.958  11.973  21.674  0.00  0.00    +0.000 A 
ATOM     14  F   UNL     1      -2.969  12.851  21.756  0.00  0.00    +0.000 F 
ATOM     15  C   UNL     1      -1.420  11.661  20.414  0.00  0.00    +0.000 A 
ATOM     16  C   UNL     1       1.047   9.071  21.244  0.00  0.00    +0.000 C 
ATOM     17  O   UNL     1       1.566   8.332  22.065  0.00  0.00    +0.000 OA
BRANCH  15  18
ATOM     18  C   UNL     1      -1.998  12.179  19.117  0.00  0.00    +0.000 C 
ATOM     19  C   UNL     1      -2.226  11.276  17.932  0.00  0.00    +0.000 C 
ATOM     20  C   UNL     1      -3.402  11.816  18.685  0.00  0.00    +0.000 C 
ENDBRANCH  15  18
ENDBRANCH   5   7
BRANCH   1  21
ATOM     21  C   UNL     1       2.890   4.464  19.140  0.00  0.00    +0.000 C 
ATOM     22  C   UNL     1       1.562   3.671  19.018  0.00  0.00    +0.000 C 
ATOM     23  O   UNL     1       1.496   3.426  20.435  0.00  0.00    +0.000 OA
ATOM     24  C   UNL     1       2.693   4.198  20.663  0.00  0.00    +0.000 C 
BRANCH  21  25
ATOM     25  C   UNL     1       4.109   3.718  18.541  0.00  0.00    +0.000 C 
BRANCH  25  31
ATOM     26  C   UNL     1       6.361   4.277  16.393  0.00  0.00    +0.000 C 
ATOM     27  N   UNL     1       6.384   4.633  17.787  0.00  0.00    +0.000 N 
ATOM     28  C   UNL     1       7.416   5.264  18.413  0.00  0.00    +0.000 A 
ATOM     29  N   UNL     1       7.140   5.400  19.686  0.00  0.00    +0.000 NA
ATOM     30  N   UNL     1       5.906   4.839  19.904  0.00  0.00    +0.000 NA
ATOM     31  C   UNL     1       5.430   4.400  18.752  0.00  0.00    +0.000 A 
ENDBRANCH  25  31
ENDBRANCH  21  25
ENDBRANCH   1  21
TORSDOF 5
ENDMDL
MODEL 6
REMARK VINA RESULT:      -8.8      2.530      3.569
REMARK  Name = 
REMARK  6 active torsions:
REMARK  status: ('A' for Active; 'I' for Inactive)
REMARK    1  A    between atoms: C_1  and  N_2
REMARK    2  A    between atoms: C_6  and  C_7
REMARK    3  A    between atoms: C_7  and  C_8
REMARK    4  A    between atoms: C_8  and  C_9
REMARK    5  A    between atoms: C_13  and  N_14
REMARK    6  A    between atoms: C_22  and  C_23
REMARK                            x       y       z     vdW  Elec       q    Type
REMARK                         _______ _______ _______ _____ _____    ______ ____
ROOT
ATOM      1  C   UNL     1       0.193  10.461  20.257  0.00  0.00    +0.000 A 
ATOM      2  C   UNL     1      -0.057  10.329  21.631  0.00  0.00    +0.000 A 
ATOM      3  C   UNL     1       0.373   9.204  22.349  0.00  0.00    +0.000 A 
ATOM      4  C   UNL     1       1.092   8.182  21.716  0.00  0.00    +0.000 A 
ATOM      5  C   UNL     1       1.378   8.274  20.360  0.00  0.00    +0.000 A 
ATOM      6  C   UNL     1       0.898   9.399  19.668  0.00  0.00    +0.000 A 
ENDROOT
BRANCH   5   7
ATOM      7  N   UNL     1       2.152   7.323  19.651  0.00  0.00    +0.000 N 
ATOM      8  C   UNL     1       2.145   5.928  20.066  0.00  0.00    +0.000 C 
ATOM      9  C   UNL     1       2.887   5.230  18.988  0.00  0.00    +0.000 A 
ATOM     10  C   UNL     1       3.404   6.171  18.099  0.00  0.00    +0.000 A 
ATOM     11  C   UNL     1       4.160   5.797  17.007  0.00  0.00    +0.000 A 
ATOM     12  C   UNL     1       4.381   4.428  16.826  0.00  0.00    +0.000 A 
ATOM     13  C   UNL     1       3.822   3.486  17.710  0.00  0.00    +0.000 A 
ATOM     14  F   UNL     1       4.019   2.184  17.451  0.00  0.00    +0.000 F 
ATOM     15  C   UNL     1       3.043   3.854  18.820  0.00  0.00    +0.000 A 
ATOM     16  C   UNL     1       2.925   7.511  18.505  0.00  0.00    +0.000 C 
ATOM     17  O   UNL     1       3.185   8.526  17.878  0.00  0.00    +0.000 OA
BRANCH  15  18
ATOM     18  C   UNL     1       2.311   2.854  19.685  0.00  0.00    +0.000 C 
ATOM     19  C   UNL     1       0.961   3.158  20.282  0.00  0.00    +0.000 C 
ATOM     20  C   UNL     1       1.071   2.145  19.185  0.00  0.00    +0.000 C 
ENDBRANCH  15  18
ENDBRANCH   5   7
BRANCH   1  21
ATOM     21  C   UNL     1      -0.272  11.715  19.356  0.00  0.00    +0.000 C 
ATOM     22  C   UNL     1      -1.528  12.473  19.863  0.00  0.00    +0.000 C 
ATOM     23  O   UNL     1      -2.268  12.197  18.660  0.00  0.00    +0.000 OA
ATOM     24  C   UNL     1      -1.179  11.418  18.123  0.00  0.00    +0.000 C 
BRANCH  21  25
ATOM     25  C   UNL     1       0.920  12.650  19.028  0.00  0.00    +0.000 C 
BRANCH  25  31
ATOM     26  C   UNL     1       0.330  15.752  19.189  0.00  0.00    +0.000 C 
ATOM     27  N   UNL     1       1.012  14.947  20.167  0.00  0.00    +0.000 N 
ATOM     28  C   UNL     1       1.539  15.416  21.332  0.00  0.00    +0.000 A 
ATOM     29  N   UNL     1       2.130  14.437  21.973  0.00  0.00    +0.000 NA
ATOM     30  N   UNL     1       1.997  13.304  21.209  0.00  0.00    +0.000 NA
ATOM     31  C   UNL     1       1.295  13.600  20.129  0.00  0.00    +0.000 A 
ENDBRANCH  25  31
ENDBRANCH  21  25
ENDBRANCH   1  21
TORSDOF 5
ENDMDL
MODEL 7
REMARK VINA RESULT:      -8.8      4.492      9.182
REMARK  Name = 
REMARK  6 active torsions:
REMARK  status: ('A' for Active; 'I' for Inactive)
REMARK    1  A    between atoms: C_1  and  N_2
REMARK    2  A    between atoms: C_6  and  C_7
REMARK    3  A    between atoms: C_7  and  C_8
REMARK    4  A    between atoms: C_8  and  C_9
REMARK    5  A    between atoms: C_13  and  N_14
REMARK    6  A    between atoms: C_22  and  C_23
REMARK                            x       y       z     vdW  Elec       q    Type
REMARK                         _______ _______ _______ _____ _____    ______ ____
ROOT
ATOM      1  C   UNL     1       4.573   4.777  17.033  0.00  0.00    +0.000 A 
ATOM      2  C   UNL     1       3.759   3.680  16.716  0.00  0.00    +0.000 A 
ATOM      3  C   UNL     1       2.478   3.535  17.267  0.00  0.00    +0.000 A 
ATOM      4  C   UNL     1       1.959   4.500  18.139  0.00  0.00    +0.000 A 
ATOM      5  C   UNL     1       2.722   5.613  18.472  0.00  0.00    +0.000 A 
ATOM      6  C   UNL     1       4.014   5.705  17.928  0.00  0.00    +0.000 A 
ENDROOT
BRANCH   5   7
ATOM      7  N   UNL     1       2.257   6.670  19.293  0.00  0.00    +0.000 N 
ATOM      8  C   UNL     1       2.205   8.026  18.769  0.00  0.00    +0.000 C 
ATOM      9  C   UNL     1       1.492   8.791  19.821  0.00  0.00    +0.000 A 
ATOM     10  C   UNL     1       1.278   7.966  20.926  0.00  0.00    +0.000 A 
ATOM     11  C   UNL     1       0.649   8.429  22.063  0.00  0.00    +0.000 A 
ATOM     12  C   UNL     1       0.228   9.762  22.059  0.00  0.00    +0.000 A 
ATOM     13  C   UNL     1       0.416  10.572  20.923  0.00  0.00    +0.000 A 
ATOM     14  F   UNL     1      -0.062  11.826  20.957  0.00  0.00    +0.000 F 
ATOM     15  C   UNL     1       1.047  10.110  19.756  0.00  0.00    +0.000 A 
ATOM     16  C   UNL     1       1.749   6.604  20.591  0.00  0.00    +0.000 C 
ATOM     17  O   UNL     1       1.644   5.660  21.358  0.00  0.00    +0.000 OA
BRANCH  15  18
ATOM     18  C   UNL     1       1.118  10.917  18.480  0.00  0.00    +0.000 C 
ATOM     19  C   UNL     1       1.057  12.423  18.487  0.00  0.00    +0.000 C 
ATOM     20  C   UNL     1       2.342  11.738  18.139  0.00  0.00    +0.000 C 
ENDBRANCH  15  18
ENDBRANCH   5   7
BRANCH   1  21
ATOM     21  C   UNL     1       6.058   5.017  16.452  0.00  0.00    +0.000 C 
ATOM     22  C   UNL     1       7.175   5.175  17.518  0.00  0.00    +0.000 C 
ATOM     23  O   UNL     1       7.514   6.500  17.069  0.00  0.00    +0.000 OA
ATOM     24  C   UNL     1       6.460   6.478  16.084  0.00  0.00    +0.000 C 
BRANCH  21  25
ATOM     25  C   UNL     1       6.406   3.990  15.345  0.00  0.00    +0.000 C 
BRANCH  25  31
ATOM     26  C   UNL     1       5.747   3.282  12.334  0.00  0.00    +0.000 C 
ATOM     27  N   UNL     1       6.697   4.253  12.809  0.00  0.00    +0.000 N 
ATOM     28  C   UNL     1       7.493   5.019  12.012  0.00  0.00    +0.000 A 
ATOM     29  N   UNL     1       8.273   5.764  12.756  0.00  0.00    +0.000 NA
ATOM     30  N   UNL     1       7.992   5.473  14.068  0.00  0.00    +0.000 NA
ATOM     31  C   UNL     1       7.017   4.582  14.107  0.00  0.00    +0.000 A 
ENDBRANCH  25  31
ENDBRANCH  21  25
ENDBRANCH   1  21
TORSDOF 5
ENDMDL
MODEL 8
REMARK VINA RESULT:      -8.8      1.046      1.570
REMARK  Name = 
REMARK  6 active torsions:
REMARK  status: ('A' for Active; 'I' for Inactive)
REMARK    1  A    between atoms: C_1  and  N_2
REMARK    2  A    between atoms: C_6  and  C_7
REMARK    3  A    between atoms: C_7  and  C_8
REMARK    4  A    between atoms: C_8  and  C_9
REMARK    5  A    between atoms: C_13  and  N_14
REMARK    6  A    between atoms: C_22  and  C_23
REMARK                            x       y       z     vdW  Elec       q    Type
REMARK                         _______ _______ _______ _____ _____    ______ ____
ROOT
ATOM      1  C   UNL     1      -0.288  10.283  20.172  0.00  0.00    +0.000 A 
ATOM      2  C   UNL     1      -0.199  10.452  21.561  0.00  0.00    +0.000 A 
ATOM      3  C   UNL     1       0.600   9.615  22.351  0.00  0.00    +0.000 A 
ATOM      4  C   UNL     1       1.359   8.591  21.770  0.00  0.00    +0.000 A 
ATOM      5  C   UNL     1       1.316   8.392  20.396  0.00  0.00    +0.000 A 
ATOM      6  C   UNL     1       0.475   9.228  19.643  0.00  0.00    +0.000 A 
ENDROOT
BRANCH   5   7
ATOM      7  N   UNL     1       2.096   7.425  19.715  0.00  0.00    +0.000 N 
ATOM      8  C   UNL     1       2.105   6.045  20.175  0.00  0.00    +0.000 C 
ATOM      9  C   UNL     1       2.849   5.319  19.117  0.00  0.00    +0.000 A 
ATOM     10  C   UNL     1       3.352   6.236  18.194  0.00  0.00    +0.000 A 
ATOM     11  C   UNL     1       4.105   5.834  17.111  0.00  0.00    +0.000 A 
ATOM     12  C   UNL     1       4.340   4.462  16.973  0.00  0.00    +0.000 A 
ATOM     13  C   UNL     1       3.794   3.544  17.891  0.00  0.00    +0.000 A 
ATOM     14  F   UNL     1       4.004   2.237  17.674  0.00  0.00    +0.000 F 
ATOM     15  C   UNL     1       3.018   3.941  18.993  0.00  0.00    +0.000 A 
ATOM     16  C   UNL     1       2.861   7.584  18.559  0.00  0.00    +0.000 C 
ATOM     17  O   UNL     1       3.108   8.580  17.897  0.00  0.00    +0.000 OA
BRANCH  15  18
ATOM     18  C   UNL     1       2.301   2.963  19.894  0.00  0.00    +0.000 C 
ATOM     19  C   UNL     1       1.025   3.329  20.609  0.00  0.00    +0.000 C 
ATOM     20  C   UNL     1       0.984   2.340  19.485  0.00  0.00    +0.000 C 
ENDBRANCH  15  18
ENDBRANCH   5   7
BRANCH   1  21
ATOM     21  C   UNL     1      -1.188  11.193  19.191  0.00  0.00    +0.000 C 
ATOM     22  C   UNL     1      -0.413  12.267  18.381  0.00  0.00    +0.000 C 
ATOM     23  O   UNL     1      -1.161  13.349  18.966  0.00  0.00    +0.000 OA
ATOM     24  C   UNL     1      -1.895  12.438  19.810  0.00  0.00    +0.000 C 
BRANCH  21  25
ATOM     25  C   UNL     1      -2.130  10.326  18.318  0.00  0.00    +0.000 C 
BRANCH  25  31
ATOM     26  C   UNL     1      -3.132  10.983  15.392  0.00  0.00    +0.000 C 
ATOM     27  N   UNL     1      -3.817  11.260  16.627  0.00  0.00    +0.000 N 
ATOM     28  C   UNL     1      -5.024  11.884  16.725  0.00  0.00    +0.000 A 
ATOM     29  N   UNL     1      -5.346  12.023  17.988  0.00  0.00    +0.000 NA
ATOM     30  N   UNL     1      -4.325  11.489  18.734  0.00  0.00    +0.000 NA
ATOM     31  C   UNL     1      -3.411  10.998  17.916  0.00  0.00    +0.000 A 
ENDBRANCH  25  31
ENDBRANCH  21  25
ENDBRANCH   1  21
TORSDOF 5
ENDMDL
MODEL 9
REMARK VINA RESULT:      -8.7      2.279      3.353
REMARK  Name = 
REMARK  6 active torsions:
REMARK  status: ('A' for Active; 'I' for Inactive)
REMARK    1  A    between atoms: C_1  and  N_2
REMARK    2  A    between atoms: C_6  and  C_7
REMARK    3  A    between atoms: C_7  and  C_8
REMARK    4  A    between atoms: C_8  and  C_9
REMARK    5  A    between atoms: C_13  and  N_14
REMARK    6  A    between atoms: C_22  and  C_23
REMARK                            x       y       z     vdW  Elec       q    Type
REMARK                         _______ _______ _______ _____ _____    ______ ____
ROOT
ATOM      1  C   UNL     1      -0.636  10.910  20.832  0.00  0.00    +0.000 A 
ATOM      2  C   UNL     1      -0.774  10.788  22.223  0.00  0.00    +0.000 A 
ATOM      3  C   UNL     1      -0.162   9.744  22.930  0.00  0.00    +0.000 A 
ATOM      4  C   UNL     1       0.631   8.798  22.269  0.00  0.00    +0.000 A 
ATOM      5  C   UNL     1       0.811   8.885  20.894  0.00  0.00    +0.000 A 
ATOM      6  C   UNL     1       0.152   9.924  20.216  0.00  0.00    +0.000 A 
ENDROOT
BRANCH   5   7
ATOM      7  N   UNL     1       1.645   8.013  20.152  0.00  0.00    +0.000 N 
ATOM      8  C   UNL     1       1.913   6.671  20.645  0.00  0.00    +0.000 C 
ATOM      9  C   UNL     1       2.634   6.015  19.527  0.00  0.00    +0.000 A 
ATOM     10  C   UNL     1       2.886   6.954  18.527  0.00  0.00    +0.000 A 
ATOM     11  C   UNL     1       3.564   6.619  17.373  0.00  0.00    +0.000 A 
ATOM     12  C   UNL     1       3.985   5.291  17.246  0.00  0.00    +0.000 A 
ATOM     13  C   UNL     1       3.690   4.345  18.246  0.00  0.00    +0.000 A 
ATOM     14  F   UNL     1       4.068   3.074  18.042  0.00  0.00    +0.000 F 
ATOM     15  C   UNL     1       2.993   4.672  19.421  0.00  0.00    +0.000 A 
ATOM     16  C   UNL     1       2.242   8.230  18.910  0.00  0.00    +0.000 C 
ATOM     17  O   UNL     1       2.261   9.221  18.197  0.00  0.00    +0.000 OA
BRANCH  15  18
ATOM     18  C   UNL     1       2.537   3.641  20.427  0.00  0.00    +0.000 C 
ATOM     19  C   UNL     1       1.081   3.449  20.765  0.00  0.00    +0.000 C 
ATOM     20  C   UNL     1       1.804   2.391  19.991  0.00  0.00    +0.000 C 
ENDBRANCH  15  18
ENDBRANCH   5   7
BRANCH   1  21
ATOM     21  C   UNL     1      -1.310  12.072  19.941  0.00  0.00    +0.000 C 
ATOM     22  C   UNL     1      -2.562  12.749  20.561  0.00  0.00    +0.000 C 
ATOM     23  O   UNL     1      -3.407  12.350  19.467  0.00  0.00    +0.000 OA
ATOM     24  C   UNL     1      -2.322  11.638  18.837  0.00  0.00    +0.000 C 
BRANCH  21  25
ATOM     25  C   UNL     1      -0.251  13.085  19.436  0.00  0.00    +0.000 C 
BRANCH  25  31
ATOM     26  C   UNL     1      -0.893  16.076  20.235  0.00  0.00    +0.000 C 
ATOM     27  N   UNL     1       0.083  15.207  20.838  0.00  0.00    +0.000 N 
ATOM     28  C   UNL     1       0.915  15.559  21.857  0.00  0.00    +0.000 A 
ATOM     29  N   UNL     1       1.711  14.557  22.140  0.00  0.00    +0.000 NA
ATOM     30  N   UNL     1       1.402  13.530  21.283  0.00  0.00    +0.000 NA
ATOM     31  C   UNL     1       0.397  13.907  20.513  0.00  0.00    +0.000 A 
ENDBRANCH  25  31
ENDBRANCH  21  25
ENDBRANCH   1  21
TORSDOF 5
ENDMDL
