MODEL 1
REMARK VINA RESULT:      -9.4      0.000      0.000
REMARK  Name = 
REMARK  10 active torsions:
REMARK  status: ('A' for Active; 'I' for Inactive)
REMARK    1  A    between atoms: C_1  and  N_2
REMARK    2  A    between atoms: C_6  and  C_7
REMARK    3  A    between atoms: C_7  and  C_8
REMARK    4  A    between atoms: C_8  and  C_9
REMARK    5  A    between atoms: C_13  and  N_14
REMARK    6  A    between atoms: C_19  and  C_20
REMARK    7  A    between atoms: C_20  and  N_21
REMARK    8  A    between atoms: C_23  and  C_24
REMARK    9  A    between atoms: C_24  and  O_26
REMARK   10  A    between atoms: C_29  and  C_30
REMARK                            x       y       z     vdW  Elec       q    Type
REMARK                         _______ _______ _______ _____ _____    ______ ____
ROOT
ATOM      1  N   UNL     1       1.442   8.918  19.353  0.00  0.00    +0.000 N 
ATOM      2  C   UNL     1       1.516   7.668  20.081  0.00  0.00    +0.000 C 
ATOM      3  C   UNL     1       2.439   6.833  19.288  0.00  0.00    +0.000 A 
ATOM      4  C   UNL     1       3.003   7.593  18.269  0.00  0.00    +0.000 A 
ATOM      5  C   UNL     1       3.986   7.052  17.456  0.00  0.00    +0.000 A 
ATOM      6  C   UNL     1       4.369   5.701  17.665  0.00  0.00    +0.000 A 
ATOM      7  C   UNL     1       3.717   4.938  18.662  0.00  0.00    +0.000 A 
ATOM      8  C   UNL     1       2.747   5.495  19.499  0.00  0.00    +0.000 A 
ATOM      9  C   UNL     1       2.347   8.937  18.279  0.00  0.00    +0.000 C 
ATOM     10  O   UNL     1       2.576   9.807  17.464  0.00  0.00    +0.000 OA
ENDROOT
BRANCH   1  15
ATOM     11  C   UNL     1      -1.699  10.938  19.008  0.00  0.00    +0.000 A 
ATOM     12  C   UNL     1      -1.570  11.781  20.117  0.00  0.00    +0.000 A 
ATOM     13  C   UNL     1      -0.498  11.652  21.019  0.00  0.00    +0.000 A 
ATOM     14  C   UNL     1       0.508  10.686  20.823  0.00  0.00    +0.000 A 
ATOM     15  C   UNL     1       0.436   9.848  19.724  0.00  0.00    +0.000 A 
ATOM     16  C   UNL     1      -0.687   9.975  18.879  0.00  0.00    +0.000 A 
BRANCH  11  17
ATOM     17  C   UNL     1      -2.900  10.990  17.921  0.00  0.00    +0.000 C 
ATOM     18  C   UNL     1      -3.549   9.618  17.593  0.00  0.00    +0.000 C 
ATOM     19  O   UNL     1      -3.181   9.693  16.204  0.00  0.00    +0.000 OA
ATOM     20  C   UNL     1      -2.508  10.952  16.408  0.00  0.00    +0.000 C 
BRANCH  17  21
ATOM     21  C   UNL     1      -3.933  12.104  18.247  0.00  0.00    +0.000 C 
BRANCH  21  27
ATOM     22  C   UNL     1      -5.032  12.604  21.189  0.00  0.00    +0.000 C 
ATOM     23  N   UNL     1      -5.664  11.861  20.131  0.00  0.00    +0.000 N 
ATOM     24  C   UNL     1      -6.862  11.221  20.249  0.00  0.00    +0.000 A 
ATOM     25  N   UNL     1      -7.141  10.603  19.127  0.00  0.00    +0.000 NA
ATOM     26  N   UNL     1      -6.103  10.834  18.260  0.00  0.00    +0.000 NA
ATOM     27  C   UNL     1      -5.221  11.619  18.850  0.00  0.00    +0.000 A 
ENDBRANCH  21  27
ENDBRANCH  17  21
ENDBRANCH  11  17
ENDBRANCH   1  15
BRANCH   8  28
ATOM     28  C   UNL     1       2.084   4.665  20.571  0.00  0.00    +0.000 C 
ATOM     29  F   UNL     1       2.364   3.338  20.495  0.00  0.00    +0.000 F 
ATOM     30  F   UNL     1       2.440   5.061  21.822  0.00  0.00    +0.000 F 
ATOM     31  F   UNL     1       0.726   4.753  20.518  0.00  0.00    +0.000 F 
ENDBRANCH   8  28
BRANCH   6  32
ATOM     32  C   UNL     1       5.559   5.123  16.917  0.00  0.00    +0.000 C 
BRANCH  32  33
ATOM     33  N   UNL     1       5.240   4.462  15.628  0.00  0.00    +0.000 NA
ATOM     34  C   UNL     1       5.574   5.338  14.483  0.00  0.00    +0.000 C 
ATOM     35  C   UNL     1       6.383   4.184  13.866  0.00  0.00    +0.000 C 
ATOM     36  C   UNL     1       6.349   3.551  15.266  0.00  0.00    +0.000 C 
BRANCH  35  37
ATOM     37  C   UNL     1       5.757   3.416  12.681  0.00  0.00    +0.000 C 
ATOM     38  O   UNL     1       4.629   3.613  12.237  0.00  0.00    +0.000 OA
BRANCH  37  39
ATOM     39  O   UNL     1       6.567   2.489  12.105  0.00  0.00    +0.000 OA
ATOM     40  H   UNL     1       6.064   1.796  11.629  0.00  0.00    +0.000 HD
ENDBRANCH  37  39
ENDBRANCH  35  37
ENDBRANCH  32  33
ENDBRANCH   6  32
TORSDOF 9
ENDMDL
MODEL 2
REMARK VINA RESULT:      -9.1      3.848      9.951
REMARK  Name = 
REMARK  10 active torsions:
REMARK  status: ('A' for Active; 'I' for Inactive)
REMARK    1  A    between atoms: C_1  and  N_2
REMARK    2  A    between atoms: C_6  and  C_7
REMARK    3  A    between atoms: C_7  and  C_8
REMARK    4  A    between atoms: C_8  and  C_9
REMARK    5  A    between atoms: C_13  and  N_14
REMARK    6  A    between atoms: C_19  and  C_20
REMARK    7  A    between atoms: C_20  and  N_21
REMARK    8  A    between atoms: C_23  and  C_24
REMARK    9  A    between atoms: C_24  and  O_26
REMARK   10  A    between atoms: C_29  and  C_30
REMARK                            x       y       z     vdW  Elec       q    Type
REMARK                         _______ _______ _______ _____ _____    ______ ____
ROOT
ATOM      1  N   UNL     1       2.247   7.293  19.138  0.00  0.00    +0.000 N 
ATOM      2  C   UNL     1       1.503   7.621  20.336  0.00  0.00    +0.000 C 
ATOM      3  C   UNL     1       1.199   9.060  20.200  0.00  0.00    +0.000 A 
ATOM      4  C   UNL     1       1.581   9.503  18.939  0.00  0.00    +0.000 A 
ATOM      5  C   UNL     1       1.295  10.798  18.537  0.00  0.00    +0.000 A 
ATOM      6  C   UNL     1       0.645  11.664  19.457  0.00  0.00    +0.000 A 
ATOM      7  C   UNL     1       0.344  11.198  20.758  0.00  0.00    +0.000 A 
ATOM      8  C   UNL     1       0.606   9.882  21.149  0.00  0.00    +0.000 A 
ATOM      9  C   UNL     1       2.287   8.379  18.249  0.00  0.00    +0.000 C 
ATOM     10  O   UNL     1       2.799   8.475  17.152  0.00  0.00    +0.000 OA
ENDROOT
BRANCH   1  15
ATOM     11  C   UNL     1       4.529   4.636  17.795  0.00  0.00    +0.000 A 
ATOM     12  C   UNL     1       4.176   3.568  18.627  0.00  0.00    +0.000 A 
ATOM     13  C   UNL     1       3.245   3.725  19.670  0.00  0.00    +0.000 A 
ATOM     14  C   UNL     1       2.607   4.959  19.900  0.00  0.00    +0.000 A 
ATOM     15  C   UNL     1       2.905   6.037  19.084  0.00  0.00    +0.000 A 
ATOM     16  C   UNL     1       3.887   5.849  18.088  0.00  0.00    +0.000 A 
BRANCH  11  17
ATOM     17  C   UNL     1       5.600   4.569  16.580  0.00  0.00    +0.000 C 
ATOM     18  C   UNL     1       5.294   5.509  15.382  0.00  0.00    +0.000 C 
ATOM     19  O   UNL     1       5.176   4.413  14.457  0.00  0.00    +0.000 OA
ATOM     20  C   UNL     1       5.405   3.450  15.506  0.00  0.00    +0.000 C 
BRANCH  17  21
ATOM     21  C   UNL     1       7.064   4.667  17.088  0.00  0.00    +0.000 C 
BRANCH  21  27
ATOM     22  C   UNL     1       8.037   5.698  19.935  0.00  0.00    +0.000 C 
ATOM     23  N   UNL     1       7.932   6.456  18.716  0.00  0.00    +0.000 N 
ATOM     24  C   UNL     1       8.225   7.783  18.608  0.00  0.00    +0.000 A 
ATOM     25  N   UNL     1       7.987   8.186  17.383  0.00  0.00    +0.000 NA
ATOM     26  N   UNL     1       7.520   7.106  16.677  0.00  0.00    +0.000 NA
ATOM     27  C   UNL     1       7.514   6.049  17.470  0.00  0.00    +0.000 A 
ENDBRANCH  21  27
ENDBRANCH  17  21
ENDBRANCH  11  17
ENDBRANCH   1  15
BRANCH   8  28
ATOM     28  C   UNL     1       0.252   9.404  22.536  0.00  0.00    +0.000 C 
ATOM     29  F   UNL     1      -0.636   8.375  22.556  0.00  0.00    +0.000 F 
ATOM     30  F   UNL     1       1.343   8.981  23.229  0.00  0.00    +0.000 F 
ATOM     31  F   UNL     1      -0.316  10.387  23.286  0.00  0.00    +0.000 F 
ENDBRANCH   8  28
BRANCH   6  32
ATOM     32  C   UNL     1       0.159  13.030  19.003  0.00  0.00    +0.000 C 
BRANCH  32  33
ATOM     33  N   UNL     1       1.179  13.881  18.343  0.00  0.00    +0.000 NA
ATOM     34  C   UNL     1       0.950  15.313  18.639  0.00  0.00    +0.000 C 
ATOM     35  C   UNL     1       2.416  15.432  19.087  0.00  0.00    +0.000 C 
ATOM     36  C   UNL     1       2.405  13.897  19.173  0.00  0.00    +0.000 C 
BRANCH  35  37
ATOM     37  C   UNL     1       3.411  16.121  18.128  0.00  0.00    +0.000 C 
ATOM     38  O   UNL     1       4.041  17.142  18.389  0.00  0.00    +0.000 OA
BRANCH  37  39
ATOM     39  O   UNL     1       3.588  15.493  16.936  0.00  0.00    +0.000 OA
ATOM     40  H   UNL     1       4.511  15.557  16.612  0.00  0.00    +0.000 HD
ENDBRANCH  37  39
ENDBRANCH  35  37
ENDBRANCH  32  33
ENDBRANCH   6  32
TORSDOF 9
ENDMDL
MODEL 3
REMARK VINA RESULT:      -9.1      3.825     10.286
REMARK  Name = 
REMARK  10 active torsions:
REMARK  status: ('A' for Active; 'I' for Inactive)
REMARK    1  A    between atoms: C_1  and  N_2
REMARK    2  A    between atoms: C_6  and  C_7
REMARK    3  A    between atoms: C_7  and  C_8
REMARK    4  A    between atoms: C_8  and  C_9
REMARK    5  A    between atoms: C_13  and  N_14
REMARK    6  A    between atoms: C_19  and  C_20
REMARK    7  A    between atoms: C_20  and  N_21
REMARK    8  A    between atoms: C_23  and  C_24
REMARK    9  A    between atoms: C_24  and  O_26
REMARK   10  A    between atoms: C_29  and  C_30
REMARK                            x       y       z     vdW  Elec       q    Type
REMARK                         _______ _______ _______ _____ _____    ______ ____
ROOT
ATOM      1  N   UNL     1       2.309   7.345  19.370  0.00  0.00    +0.000 N 
ATOM      2  C   UNL     1       1.514   7.690  20.530  0.00  0.00    +0.000 C 
ATOM      3  C   UNL     1       0.987   9.036  20.230  0.00  0.00    +0.000 A 
ATOM      4  C   UNL     1       1.304   9.383  18.921  0.00  0.00    +0.000 A 
ATOM      5  C   UNL     1       0.821  10.562  18.374  0.00  0.00    +0.000 A 
ATOM      6  C   UNL     1       0.035  11.415  19.193  0.00  0.00    +0.000 A 
ATOM      7  C   UNL     1      -0.200  11.063  20.543  0.00  0.00    +0.000 A 
ATOM      8  C   UNL     1       0.264   9.860  21.083  0.00  0.00    +0.000 A 
ATOM      9  C   UNL     1       2.184   8.312  18.360  0.00  0.00    +0.000 C 
ATOM     10  O   UNL     1       2.684   8.358  17.254  0.00  0.00    +0.000 OA
ENDROOT
BRANCH   1  15
ATOM     11  C   UNL     1       5.411   5.297  18.866  0.00  0.00    +0.000 A 
ATOM     12  C   UNL     1       4.953   4.050  19.306  0.00  0.00    +0.000 A 
ATOM     13  C   UNL     1       3.659   3.884  19.830  0.00  0.00    +0.000 A 
ATOM     14  C   UNL     1       2.758   4.964  19.905  0.00  0.00    +0.000 A 
ATOM     15  C   UNL     1       3.158   6.211  19.457  0.00  0.00    +0.000 A 
ATOM     16  C   UNL     1       4.484   6.343  18.993  0.00  0.00    +0.000 A 
BRANCH  11  17
ATOM     17  C   UNL     1       6.885   5.601  18.264  0.00  0.00    +0.000 C 
ATOM     18  C   UNL     1       7.944   6.041  19.310  0.00  0.00    +0.000 C 
ATOM     19  O   UNL     1       8.149   7.316  18.675  0.00  0.00    +0.000 OA
ATOM     20  C   UNL     1       7.147   7.026  17.679  0.00  0.00    +0.000 C 
BRANCH  17  21
ATOM     21  C   UNL     1       7.375   4.465  17.324  0.00  0.00    +0.000 C 
BRANCH  21  27
ATOM     22  C   UNL     1       4.667   3.524  15.946  0.00  0.00    +0.000 C 
ATOM     23  N   UNL     1       5.781   4.193  15.326  0.00  0.00    +0.000 N 
ATOM     24  C   UNL     1       5.848   4.512  14.002  0.00  0.00    +0.000 A 
ATOM     25  N   UNL     1       7.004   5.072  13.744  0.00  0.00    +0.000 NA
ATOM     26  N   UNL     1       7.714   5.113  14.918  0.00  0.00    +0.000 NA
ATOM     27  C   UNL     1       6.968   4.611  15.885  0.00  0.00    +0.000 A 
ENDBRANCH  21  27
ENDBRANCH  17  21
ENDBRANCH  11  17
ENDBRANCH   1  15
BRANCH   8  28
ATOM     28  C   UNL     1      -0.021   9.498  22.519  0.00  0.00    +0.000 C 
ATOM     29  F   UNL     1      -0.665  10.470  23.217  0.00  0.00    +0.000 F 
ATOM     30  F   UNL     1      -0.786   8.378  22.626  0.00  0.00    +0.000 F 
ATOM     31  F   UNL     1       1.119   9.245  23.218  0.00  0.00    +0.000 F 
ENDBRANCH   8  28
BRANCH   6  32
ATOM     32  C   UNL     1      -0.657  12.625  18.588  0.00  0.00    +0.000 C 
BRANCH  32  33
ATOM     33  N   UNL     1       0.173  13.850  18.491  0.00  0.00    +0.000 NA
ATOM     34  C   UNL     1       0.096  14.645  19.736  0.00  0.00    +0.000 C 
ATOM     35  C   UNL     1       1.633  14.670  19.788  0.00  0.00    +0.000 C 
ATOM     36  C   UNL     1       1.581  13.504  18.787  0.00  0.00    +0.000 C 
BRANCH  35  37
ATOM     37  C   UNL     1       2.348  15.976  19.379  0.00  0.00    +0.000 C 
ATOM     38  O   UNL     1       2.821  16.792  20.167  0.00  0.00    +0.000 OA
BRANCH  37  39
ATOM     39  O   UNL     1       2.464  16.174  18.039  0.00  0.00    +0.000 OA
ATOM     40  H   UNL     1       3.379  16.034  17.717  0.00  0.00    +0.000 HD
ENDBRANCH  37  39
ENDBRANCH  35  37
ENDBRANCH  32  33
ENDBRANCH   6  32
TORSDOF 9
ENDMDL
MODEL 4
REMARK VINA RESULT:      -9.0      4.376     11.376
REMARK  Name = 
REMARK  10 active torsions:
REMARK  status: ('A' for Active; 'I' for Inactive)
REMARK    1  A    between atoms: C_1  and  N_2
REMARK    2  A    between atoms: C_6  and  C_7
REMARK    3  A    between atoms: C_7  and  C_8
REMARK    4  A    between atoms: C_8  and  C_9
REMARK    5  A    between atoms: C_13  and  N_14
REMARK    6  A    between atoms: C_19  and  C_20
REMARK    7  A    between atoms: C_20  and  N_21
REMARK    8  A    between atoms: C_23  and  C_24
REMARK    9  A    between atoms: C_24  and  O_26
REMARK   10  A    between atoms: C_29  and  C_30
REMARK                            x       y       z     vdW  Elec       q    Type
REMARK                         _______ _______ _______ _____ _____    ______ ____
ROOT
ATOM      1  N   UNL     1       1.377   9.167  19.589  0.00  0.00    +0.000 N 
ATOM      2  C   UNL     1       1.075  10.476  19.048  0.00  0.00    +0.000 C 
ATOM      3  C   UNL     1       0.108  11.055  20.002  0.00  0.00    +0.000 A 
ATOM      4  C   UNL     1      -0.014  10.225  21.110  0.00  0.00    +0.000 A 
ATOM      5  C   UNL     1      -0.787  10.614  22.193  0.00  0.00    +0.000 A 
ATOM      6  C   UNL     1      -1.475  11.854  22.122  0.00  0.00    +0.000 A 
ATOM      7  C   UNL     1      -1.386  12.634  20.945  0.00  0.00    +0.000 A 
ATOM      8  C   UNL     1      -0.583  12.253  19.867  0.00  0.00    +0.000 A 
ATOM      9  C   UNL     1       0.778   8.984  20.846  0.00  0.00    +0.000 C 
ATOM     10  O   UNL     1       0.817   8.034  21.601  0.00  0.00    +0.000 OA
ENDROOT
BRANCH   1  15
ATOM     11  C   UNL     1       2.909   5.898  18.571  0.00  0.00    +0.000 A 
ATOM     12  C   UNL     1       3.625   6.306  17.440  0.00  0.00    +0.000 A 
ATOM     13  C   UNL     1       3.559   7.629  16.965  0.00  0.00    +0.000 A 
ATOM     14  C   UNL     1       2.792   8.605  17.630  0.00  0.00    +0.000 A 
ATOM     15  C   UNL     1       2.088   8.253  18.768  0.00  0.00    +0.000 A 
ATOM     16  C   UNL     1       2.138   6.903  19.175  0.00  0.00    +0.000 A 
BRANCH  11  17
ATOM     17  C   UNL     1       2.901   4.400  19.191  0.00  0.00    +0.000 C 
ATOM     18  C   UNL     1       1.555   3.639  19.051  0.00  0.00    +0.000 C 
ATOM     19  O   UNL     1       1.394   3.513  20.476  0.00  0.00    +0.000 OA
ATOM     20  C   UNL     1       2.609   4.251  20.719  0.00  0.00    +0.000 C 
BRANCH  17  21
ATOM     21  C   UNL     1       4.133   3.573  18.730  0.00  0.00    +0.000 C 
BRANCH  21  27
ATOM     22  C   UNL     1       6.269   4.097  16.433  0.00  0.00    +0.000 C 
ATOM     23  N   UNL     1       6.349   4.495  17.813  0.00  0.00    +0.000 N 
ATOM     24  C   UNL     1       7.406   5.161  18.362  0.00  0.00    +0.000 A 
ATOM     25  N   UNL     1       7.194   5.337  19.643  0.00  0.00    +0.000 NA
ATOM     26  N   UNL     1       5.982   4.769  19.944  0.00  0.00    +0.000 NA
ATOM     27  C   UNL     1       5.452   4.284  18.836  0.00  0.00    +0.000 A 
ENDBRANCH  21  27
ENDBRANCH  17  21
ENDBRANCH  11  17
ENDBRANCH   1  15
BRANCH   8  28
ATOM     28  C   UNL     1      -0.487  13.115  18.633  0.00  0.00    +0.000 C 
ATOM     29  F   UNL     1      -0.902  14.395  18.819  0.00  0.00    +0.000 F 
ATOM     30  F   UNL     1       0.784  13.191  18.154  0.00  0.00    +0.000 F 
ATOM     31  F   UNL     1      -1.247  12.633  17.612  0.00  0.00    +0.000 F 
ENDBRANCH   8  28
BRANCH   6  32
ATOM     32  C   UNL     1      -2.188  12.399  23.347  0.00  0.00    +0.000 C 
BRANCH  32  33
ATOM     33  N   UNL     1      -3.654  12.173  23.384  0.00  0.00    +0.000 NA
ATOM     34  C   UNL     1      -4.197  12.416  24.738  0.00  0.00    +0.000 C 
ATOM     35  C   UNL     1      -5.245  13.359  24.124  0.00  0.00    +0.000 C 
ATOM     36  C   UNL     1      -4.341  13.383  22.881  0.00  0.00    +0.000 C 
BRANCH  35  37
ATOM     37  C   UNL     1      -6.692  12.839  23.988  0.00  0.00    +0.000 C 
ATOM     38  O   UNL     1      -7.016  11.819  23.383  0.00  0.00    +0.000 OA
BRANCH  37  39
ATOM     39  O   UNL     1      -7.634  13.582  24.627  0.00  0.00    +0.000 OA
ATOM     40  H   UNL     1      -8.114  14.183  24.020  0.00  0.00    +0.000 HD
ENDBRANCH  37  39
ENDBRANCH  35  37
ENDBRANCH  32  33
ENDBRANCH   6  32
TORSDOF 9
ENDMDL
MODEL 5
REMARK VINA RESULT:      -9.0      2.026      2.796
REMARK  Name = 
REMARK  10 active torsions:
REMARK  status: ('A' for Active; 'I' for Inactive)
REMARK    1  A    between atoms: C_1  and  N_2
REMARK    2  A    between atoms: C_6  and  C_7
REMARK    3  A    between atoms: C_7  and  C_8
REMARK    4  A    between atoms: C_8  and  C_9
REMARK    5  A    between atoms: C_13  and  N_14
REMARK    6  A    between atoms: C_19  and  C_20
REMARK    7  A    between atoms: C_20  and  N_21
REMARK    8  A    between atoms: C_23  and  C_24
REMARK    9  A    between atoms: C_24  and  O_26
REMARK   10  A    between atoms: C_29  and  C_30
REMARK                            x       y       z     vdW  Elec       q    Type
REMARK                         _______ _______ _______ _____ _____    ______ ____
ROOT
ATOM      1  N   UNL     1       1.762   7.622  20.085  0.00  0.00    +0.000 N 
ATOM      2  C   UNL     1       1.737   6.303  20.681  0.00  0.00    +0.000 C 
ATOM      3  C   UNL     1       2.296   5.417  19.641  0.00  0.00    +0.000 A 
ATOM      4  C   UNL     1       2.775   6.179  18.582  0.00  0.00    +0.000 A 
ATOM      5  C   UNL     1       3.445   5.573  17.531  0.00  0.00    +0.000 A 
ATOM      6  C   UNL     1       3.591   4.161  17.546  0.00  0.00    +0.000 A 
ATOM      7  C   UNL     1       3.020   3.413  18.604  0.00  0.00    +0.000 A 
ATOM      8  C   UNL     1       2.371   4.030  19.677  0.00  0.00    +0.000 A 
ATOM      9  C   UNL     1       2.412   7.607  18.840  0.00  0.00    +0.000 C 
ATOM     10  O   UNL     1       2.635   8.512  18.063  0.00  0.00    +0.000 OA
ENDROOT
BRANCH   1  15
ATOM     11  C   UNL     1      -0.483  10.609  20.410  0.00  0.00    +0.000 A 
ATOM     12  C   UNL     1      -0.273  10.927  21.756  0.00  0.00    +0.000 A 
ATOM     13  C   UNL     1       0.545  10.133  22.580  0.00  0.00    +0.000 A 
ATOM     14  C   UNL     1       1.212   9.001  22.073  0.00  0.00    +0.000 A 
ATOM     15  C   UNL     1       1.055   8.664  20.740  0.00  0.00    +0.000 A 
ATOM     16  C   UNL     1       0.180   9.455  19.966  0.00  0.00    +0.000 A 
BRANCH  11  17
ATOM     17  C   UNL     1      -1.416  11.444  19.380  0.00  0.00    +0.000 C 
ATOM     18  C   UNL     1      -0.654  12.150  18.226  0.00  0.00    +0.000 C 
ATOM     19  O   UNL     1      -1.090  13.457  18.640  0.00  0.00    +0.000 OA
ATOM     20  C   UNL     1      -1.795  12.908  19.772  0.00  0.00    +0.000 C 
BRANCH  17  21
ATOM     21  C   UNL     1      -2.639  10.614  18.900  0.00  0.00    +0.000 C 
BRANCH  21  27
ATOM     22  C   UNL     1      -4.905  11.958  17.119  0.00  0.00    +0.000 C 
ATOM     23  N   UNL     1      -3.807  11.142  16.673  0.00  0.00    +0.000 N 
ATOM     24  C   UNL     1      -3.585  10.795  15.373  0.00  0.00    +0.000 A 
ATOM     25  N   UNL     1      -2.535  10.014  15.302  0.00  0.00    +0.000 NA
ATOM     26  N   UNL     1      -2.065   9.836  16.578  0.00  0.00    +0.000 NA
ATOM     27  C   UNL     1      -2.812  10.540  17.409  0.00  0.00    +0.000 A 
ENDBRANCH  21  27
ENDBRANCH  17  21
ENDBRANCH  11  17
ENDBRANCH   1  15
BRANCH   8  28
ATOM     28  C   UNL     1       1.793   3.210  20.803  0.00  0.00    +0.000 C 
ATOM     29  F   UNL     1       1.946   1.869  20.647  0.00  0.00    +0.000 F 
ATOM     30  F   UNL     1       2.350   3.522  22.005  0.00  0.00    +0.000 F 
ATOM     31  F   UNL     1       0.454   3.408  20.944  0.00  0.00    +0.000 F 
ENDBRANCH   8  28
BRANCH   6  32
ATOM     32  C   UNL     1       4.464   3.474  16.510  0.00  0.00    +0.000 C 
BRANCH  32  33
ATOM     33  N   UNL     1       5.416   4.358  15.795  0.00  0.00    +0.000 NA
ATOM     34  C   UNL     1       6.739   3.711  15.651  0.00  0.00    +0.000 C 
ATOM     35  C   UNL     1       6.696   4.008  14.142  0.00  0.00    +0.000 C 
ATOM     36  C   UNL     1       5.188   4.235  14.337  0.00  0.00    +0.000 C 
BRANCH  35  37
ATOM     37  C   UNL     1       7.564   5.168  13.610  0.00  0.00    +0.000 C 
ATOM     38  O   UNL     1       8.125   6.003  14.314  0.00  0.00    +0.000 OA
BRANCH  37  39
ATOM     39  O   UNL     1       7.712   5.202  12.259  0.00  0.00    +0.000 OA
ATOM     40  H   UNL     1       6.857   5.129  11.786  0.00  0.00    +0.000 HD
ENDBRANCH  37  39
ENDBRANCH  35  37
ENDBRANCH  32  33
ENDBRANCH   6  32
TORSDOF 9
ENDMDL
MODEL 6
REMARK VINA RESULT:      -8.9      3.818     10.528
REMARK  Name = 
REMARK  10 active torsions:
REMARK  status: ('A' for Active; 'I' for Inactive)
REMARK    1  A    between atoms: C_1  and  N_2
REMARK    2  A    between atoms: C_6  and  C_7
REMARK    3  A    between atoms: C_7  and  C_8
REMARK    4  A    between atoms: C_8  and  C_9
REMARK    5  A    between atoms: C_13  and  N_14
REMARK    6  A    between atoms: C_19  and  C_20
REMARK    7  A    between atoms: C_20  and  N_21
REMARK    8  A    between atoms: C_23  and  C_24
REMARK    9  A    between atoms: C_24  and  O_26
REMARK   10  A    between atoms: C_29  and  C_30
REMARK                            x       y       z     vdW  Elec       q    Type
REMARK                         _______ _______ _______ _____ _____    ______ ____
ROOT
ATOM      1  N   UNL     1       1.971   7.716  19.273  0.00  0.00    +0.000 N 
ATOM      2  C   UNL     1       1.237   7.977  20.494  0.00  0.00    +0.000 C 
ATOM      3  C   UNL     1       0.798   9.381  20.367  0.00  0.00    +0.000 A 
ATOM      4  C   UNL     1       1.097   9.854  19.095  0.00  0.00    +0.000 A 
ATOM      5  C   UNL     1       0.682  11.117  18.703  0.00  0.00    +0.000 A 
ATOM      6  C   UNL     1      -0.017  11.921  19.642  0.00  0.00    +0.000 A 
ATOM      7  C   UNL     1      -0.234  11.433  20.952  0.00  0.00    +0.000 A 
ATOM      8  C   UNL     1       0.160  10.148  21.335  0.00  0.00    +0.000 A 
ATOM      9  C   UNL     1       1.882   8.798  18.384  0.00  0.00    +0.000 C 
ATOM     10  O   UNL     1       2.350   8.938  17.272  0.00  0.00    +0.000 OA
ENDROOT
BRANCH   1  15
ATOM     11  C   UNL     1       4.742   5.450  18.153  0.00  0.00    +0.000 A 
ATOM     12  C   UNL     1       4.310   4.242  18.711  0.00  0.00    +0.000 A 
ATOM     13  C   UNL     1       3.154   4.172  19.509  0.00  0.00    +0.000 A 
ATOM     14  C   UNL     1       2.366   5.314  19.753  0.00  0.00    +0.000 A 
ATOM     15  C   UNL     1       2.740   6.525  19.199  0.00  0.00    +0.000 A 
ATOM     16  C   UNL     1       3.937   6.559  18.454  0.00  0.00    +0.000 A 
BRANCH  11  17
ATOM     17  C   UNL     1       6.064   5.644  17.236  0.00  0.00    +0.000 C 
ATOM     18  C   UNL     1       7.342   6.070  18.008  0.00  0.00    +0.000 C 
ATOM     19  O   UNL     1       7.464   7.303  17.275  0.00  0.00    +0.000 OA
ATOM     20  C   UNL     1       6.259   7.026  16.531  0.00  0.00    +0.000 C 
BRANCH  17  21
ATOM     21  C   UNL     1       6.289   4.443  16.277  0.00  0.00    +0.000 C 
BRANCH  21  27
ATOM     22  C   UNL     1       5.286   3.579  13.385  0.00  0.00    +0.000 C 
ATOM     23  N   UNL     1       6.419   4.404  13.711  0.00  0.00    +0.000 N 
ATOM     24  C   UNL     1       7.273   4.937  12.790  0.00  0.00    +0.000 A 
ATOM     25  N   UNL     1       8.222   5.599  13.405  0.00  0.00    +0.000 NA
ATOM     26  N   UNL     1       7.993   5.492  14.754  0.00  0.00    +0.000 NA
ATOM     27  C   UNL     1       6.887   4.796  14.944  0.00  0.00    +0.000 A 
ENDBRANCH  21  27
ENDBRANCH  17  21
ENDBRANCH  11  17
ENDBRANCH   1  15
BRANCH   8  28
ATOM     28  C   UNL     1      -0.105   9.643  22.731  0.00  0.00    +0.000 C 
ATOM     29  F   UNL     1       1.017   9.304  23.419  0.00  0.00    +0.000 F 
ATOM     30  F   UNL     1      -0.760  10.559  23.494  0.00  0.00    +0.000 F 
ATOM     31  F   UNL     1      -0.882   8.525  22.732  0.00  0.00    +0.000 F 
ENDBRANCH   8  28
BRANCH   6  32
ATOM     32  C   UNL     1      -0.640  13.235  19.203  0.00  0.00    +0.000 C 
BRANCH  32  33
ATOM     33  N   UNL     1       0.312  14.256  18.704  0.00  0.00    +0.000 NA
ATOM     34  C   UNL     1      -0.268  15.615  18.792  0.00  0.00    +0.000 C 
ATOM     35  C   UNL     1       0.991  16.080  19.543  0.00  0.00    +0.000 C 
ATOM     36  C   UNL     1       1.273  14.587  19.781  0.00  0.00    +0.000 C 
BRANCH  35  37
ATOM     37  C   UNL     1       2.025  16.922  18.765  0.00  0.00    +0.000 C 
ATOM     38  O   UNL     1       2.273  18.105  18.985  0.00  0.00    +0.000 OA
BRANCH  37  39
ATOM     39  O   UNL     1       2.705  16.250  17.799  0.00  0.00    +0.000 OA
ATOM     40  H   UNL     1       3.537  15.854  18.132  0.00  0.00    +0.000 HD
ENDBRANCH  37  39
ENDBRANCH  35  37
ENDBRANCH  32  33
ENDBRANCH   6  32
TORSDOF 9
ENDMDL
MODEL 7
REMARK VINA RESULT:      -8.9      3.764     10.308
REMARK  Name = 
REMARK  10 active torsions:
REMARK  status: ('A' for Active; 'I' for Inactive)
REMARK    1  A    between atoms: C_1  and  N_2
REMARK    2  A    between atoms: C_6  and  C_7
REMARK    3  A    between atoms: C_7  and  C_8
REMARK    4  A    between atoms: C_8  and  C_9
REMARK    5  A    between atoms: C_13  and  N_14
REMARK    6  A    between atoms: C_19  and  C_20
REMARK    7  A    between atoms: C_20  and  N_21
REMARK    8  A    between atoms: C_23  and  C_24
REMARK    9  A    between atoms: C_24  and  O_26
REMARK   10  A    between atoms: C_29  and  C_30
REMARK                            x       y       z     vdW  Elec       q    Type
REMARK                         _______ _______ _______ _____ _____    ______ ____
ROOT
ATOM      1  N   UNL     1       2.213   7.398  19.118  0.00  0.00    +0.000 N 
ATOM      2  C   UNL     1       1.446   7.737  20.298  0.00  0.00    +0.000 C 
ATOM      3  C   UNL     1       1.117   9.167  20.126  0.00  0.00    +0.000 A 
ATOM      4  C   UNL     1       1.508   9.590  18.861  0.00  0.00    +0.000 A 
ATOM      5  C   UNL     1       1.205  10.870  18.427  0.00  0.00    +0.000 A 
ATOM      6  C   UNL     1       0.526  11.743  19.318  0.00  0.00    +0.000 A 
ATOM      7  C   UNL     1       0.214  11.300  20.625  0.00  0.00    +0.000 A 
ATOM      8  C   UNL     1       0.495   9.998  21.049  0.00  0.00    +0.000 A 
ATOM      9  C   UNL     1       2.245   8.465  18.206  0.00  0.00    +0.000 C 
ATOM     10  O   UNL     1       2.772   8.546  17.115  0.00  0.00    +0.000 OA
ENDROOT
BRANCH   1  15
ATOM     11  C   UNL     1       4.527   4.736  17.841  0.00  0.00    +0.000 A 
ATOM     12  C   UNL     1       4.207   3.694  18.717  0.00  0.00    +0.000 A 
ATOM     13  C   UNL     1       3.289   3.872  19.768  0.00  0.00    +0.000 A 
ATOM     14  C   UNL     1       2.630   5.101  19.961  0.00  0.00    +0.000 A 
ATOM     15  C   UNL     1       2.895   6.153  19.101  0.00  0.00    +0.000 A 
ATOM     16  C   UNL     1       3.865   5.946  18.098  0.00  0.00    +0.000 A 
BRANCH  11  17
ATOM     17  C   UNL     1       5.581   4.644  16.612  0.00  0.00    +0.000 C 
ATOM     18  C   UNL     1       5.258   5.559  15.400  0.00  0.00    +0.000 C 
ATOM     19  O   UNL     1       5.128   4.444  14.500  0.00  0.00    +0.000 OA
ATOM     20  C   UNL     1       5.372   3.503  15.565  0.00  0.00    +0.000 C 
BRANCH  17  21
ATOM     21  C   UNL     1       7.052   4.753  17.099  0.00  0.00    +0.000 C 
BRANCH  21  27
ATOM     22  C   UNL     1       8.183   5.726  19.908  0.00  0.00    +0.000 C 
ATOM     23  N   UNL     1       7.980   6.516  18.722  0.00  0.00    +0.000 N 
ATOM     24  C   UNL     1       8.233   7.853  18.636  0.00  0.00    +0.000 A 
ATOM     25  N   UNL     1       7.906   8.284  17.442  0.00  0.00    +0.000 NA
ATOM     26  N   UNL     1       7.420   7.214  16.735  0.00  0.00    +0.000 NA
ATOM     27  C   UNL     1       7.491   6.134  17.493  0.00  0.00    +0.000 A 
ENDBRANCH  21  27
ENDBRANCH  17  21
ENDBRANCH  11  17
ENDBRANCH   1  15
BRANCH   8  28
ATOM     28  C   UNL     1       0.130   9.544  22.440  0.00  0.00    +0.000 C 
ATOM     29  F   UNL     1       1.189   9.122  23.180  0.00  0.00    +0.000 F 
ATOM     30  F   UNL     1      -0.475  10.526  23.161  0.00  0.00    +0.000 F 
ATOM     31  F   UNL     1      -0.740   8.496  22.424  0.00  0.00    +0.000 F 
ENDBRANCH   8  28
BRANCH   6  32
ATOM     32  C   UNL     1       0.021  13.089  18.827  0.00  0.00    +0.000 C 
BRANCH  32  33
ATOM     33  N   UNL     1       0.660  14.274  19.449  0.00  0.00    +0.000 NA
ATOM     34  C   UNL     1       1.825  14.728  18.658  0.00  0.00    +0.000 C 
ATOM     35  C   UNL     1       1.236  16.149  18.649  0.00  0.00    +0.000 C 
ATOM     36  C   UNL     1      -0.090  15.488  19.058  0.00  0.00    +0.000 C 
BRANCH  35  37
ATOM     37  C   UNL     1       1.870  17.200  19.585  0.00  0.00    +0.000 C 
ATOM     38  O   UNL     1       1.929  18.404  19.348  0.00  0.00    +0.000 OA
BRANCH  37  39
ATOM     39  O   UNL     1       2.353  16.710  20.757  0.00  0.00    +0.000 OA
ATOM     40  H   UNL     1       2.221  15.742  20.842  0.00  0.00    +0.000 HD
ENDBRANCH  37  39
ENDBRANCH  35  37
ENDBRANCH  32  33
ENDBRANCH   6  32
TORSDOF 9
ENDMDL
MODEL 8
REMARK VINA RESULT:      -8.8      2.512      3.601
REMARK  Name = 
REMARK  10 active torsions:
REMARK  status: ('A' for Active; 'I' for Inactive)
REMARK    1  A    between atoms: C_1  and  N_2
REMARK    2  A    between atoms: C_6  and  C_7
REMARK    3  A    between atoms: C_7  and  C_8
REMARK    4  A    between atoms: C_8  and  C_9
REMARK    5  A    between atoms: C_13  and  N_14
REMARK    6  A    between atoms: C_19  and  C_20
REMARK    7  A    between atoms: C_20  and  N_21
REMARK    8  A    between atoms: C_23  and  C_24
REMARK    9  A    between atoms: C_24  and  O_26
REMARK   10  A    between atoms: C_29  and  C_30
REMARK                            x       y       z     vdW  Elec       q    Type
REMARK                         _______ _______ _______ _____ _____    ______ ____
ROOT
ATOM      1  N   UNL     1       1.731   7.930  19.831  0.00  0.00    +0.000 N 
ATOM      2  C   UNL     1       1.720   6.659  20.527  0.00  0.00    +0.000 C 
ATOM      3  C   UNL     1       2.309   5.707  19.565  0.00  0.00    +0.000 A 
ATOM      4  C   UNL     1       2.791   6.395  18.457  0.00  0.00    +0.000 A 
ATOM      5  C   UNL     1       3.487   5.722  17.465  0.00  0.00    +0.000 A 
ATOM      6  C   UNL     1       3.656   4.318  17.591  0.00  0.00    +0.000 A 
ATOM      7  C   UNL     1       3.083   3.643  18.695  0.00  0.00    +0.000 A 
ATOM      8  C   UNL     1       2.408   4.328  19.708  0.00  0.00    +0.000 A 
ATOM      9  C   UNL     1       2.400   7.831  18.601  0.00  0.00    +0.000 C 
ATOM     10  O   UNL     1       2.619   8.678  17.759  0.00  0.00    +0.000 OA
ENDROOT
BRANCH   1  15
ATOM     11  C   UNL     1      -0.571  10.890  19.897  0.00  0.00    +0.000 A 
ATOM     12  C   UNL     1      -0.385  11.314  21.216  0.00  0.00    +0.000 A 
ATOM     13  C   UNL     1       0.436  10.603  22.110  0.00  0.00    +0.000 A 
ATOM     14  C   UNL     1       1.130   9.448  21.700  0.00  0.00    +0.000 A 
ATOM     15  C   UNL     1       0.997   9.005  20.395  0.00  0.00    +0.000 A 
ATOM     16  C   UNL     1       0.118   9.718  19.552  0.00  0.00    +0.000 A 
BRANCH  11  17
ATOM     17  C   UNL     1      -1.506  11.624  18.794  0.00  0.00    +0.000 C 
ATOM     18  C   UNL     1      -2.874  12.131  19.326  0.00  0.00    +0.000 C 
ATOM     19  O   UNL     1      -3.618  11.291  18.425  0.00  0.00    +0.000 OA
ATOM     20  C   UNL     1      -2.407  10.719  17.892  0.00  0.00    +0.000 C 
BRANCH  17  21
ATOM     21  C   UNL     1      -0.720  12.690  17.982  0.00  0.00    +0.000 C 
BRANCH  21  27
ATOM     22  C   UNL     1       2.433  12.602  18.384  0.00  0.00    +0.000 C 
ATOM     23  N   UNL     1       1.502  13.542  18.950  0.00  0.00    +0.000 N 
ATOM     24  C   UNL     1       1.850  14.558  19.791  0.00  0.00    +0.000 A 
ATOM     25  N   UNL     1       0.773  15.206  20.164  0.00  0.00    +0.000 NA
ATOM     26  N   UNL     1      -0.302  14.599  19.565  0.00  0.00    +0.000 NA
ATOM     27  C   UNL     1       0.135  13.612  18.804  0.00  0.00    +0.000 A 
ENDBRANCH  21  27
ENDBRANCH  17  21
ENDBRANCH  11  17
ENDBRANCH   1  15
BRANCH   8  28
ATOM     28  C   UNL     1       1.827   3.587  20.887  0.00  0.00    +0.000 C 
ATOM     29  F   UNL     1       2.264   4.036  22.092  0.00  0.00    +0.000 F 
ATOM     30  F   UNL     1       0.469   3.658  20.921  0.00  0.00    +0.000 F 
ATOM     31  F   UNL     1       2.137   2.262  20.860  0.00  0.00    +0.000 F 
ENDBRANCH   8  28
BRANCH   6  32
ATOM     32  C   UNL     1       4.556   3.570  16.622  0.00  0.00    +0.000 C 
BRANCH  32  33
ATOM     33  N   UNL     1       5.524   4.410  15.875  0.00  0.00    +0.000 NA
ATOM     34  C   UNL     1       6.752   3.650  15.554  0.00  0.00    +0.000 C 
ATOM     35  C   UNL     1       6.598   4.067  14.082  0.00  0.00    +0.000 C 
ATOM     36  C   UNL     1       5.147   4.423  14.444  0.00  0.00    +0.000 C 
BRANCH  35  37
ATOM     37  C   UNL     1       7.529   5.175  13.543  0.00  0.00    +0.000 C 
ATOM     38  O   UNL     1       8.163   5.959  14.245  0.00  0.00    +0.000 OA
BRANCH  37  39
ATOM     39  O   UNL     1       7.644   5.222  12.190  0.00  0.00    +0.000 OA
ATOM     40  H   UNL     1       8.564   5.387  11.897  0.00  0.00    +0.000 HD
ENDBRANCH  37  39
ENDBRANCH  35  37
ENDBRANCH  32  33
ENDBRANCH   6  32
TORSDOF 9
ENDMDL
MODEL 9
REMARK VINA RESULT:      -8.8      3.846     10.708
REMARK  Name = 
REMARK  10 active torsions:
REMARK  status: ('A' for Active; 'I' for Inactive)
REMARK    1  A    between atoms: C_1  and  N_2
REMARK    2  A    between atoms: C_6  and  C_7
REMARK    3  A    between atoms: C_7  and  C_8
REMARK    4  A    between atoms: C_8  and  C_9
REMARK    5  A    between atoms: C_13  and  N_14
REMARK    6  A    between atoms: C_19  and  C_20
REMARK    7  A    between atoms: C_20  and  N_21
REMARK    8  A    between atoms: C_23  and  C_24
REMARK    9  A    between atoms: C_24  and  O_26
REMARK   10  A    between atoms: C_29  and  C_30
REMARK                            x       y       z     vdW  Elec       q    Type
REMARK                         _______ _______ _______ _____ _____    ______ ____
ROOT
ATOM      1  N   UNL     1       2.316   7.414  19.405  0.00  0.00    +0.000 N 
ATOM      2  C   UNL     1       1.524   7.724  20.577  0.00  0.00    +0.000 C 
ATOM      3  C   UNL     1       1.053   9.105  20.350  0.00  0.00    +0.000 A 
ATOM      4  C   UNL     1       1.395   9.513  19.065  0.00  0.00    +0.000 A 
ATOM      5  C   UNL     1       0.963  10.738  18.583  0.00  0.00    +0.000 A 
ATOM      6  C   UNL     1       0.204  11.574  19.444  0.00  0.00    +0.000 A 
ATOM      7  C   UNL     1      -0.056  11.156  20.770  0.00  0.00    +0.000 A 
ATOM      8  C   UNL     1       0.355   9.907  21.243  0.00  0.00    +0.000 A 
ATOM      9  C   UNL     1       2.238   8.441  18.450  0.00  0.00    +0.000 C 
ATOM     10  O   UNL     1       2.749   8.530  17.352  0.00  0.00    +0.000 OA
ENDROOT
BRANCH   1  15
ATOM     11  C   UNL     1       5.343   5.279  18.813  0.00  0.00    +0.000 A 
ATOM     12  C   UNL     1       4.832   4.028  19.172  0.00  0.00    +0.000 A 
ATOM     13  C   UNL     1       3.525   3.881  19.672  0.00  0.00    +0.000 A 
ATOM     14  C   UNL     1       2.666   4.990  19.801  0.00  0.00    +0.000 A 
ATOM     15  C   UNL     1       3.119   6.244  19.433  0.00  0.00    +0.000 A 
ATOM     16  C   UNL     1       4.456   6.351  18.991  0.00  0.00    +0.000 A 
BRANCH  11  17
ATOM     17  C   UNL     1       6.835   5.560  18.246  0.00  0.00    +0.000 C 
ATOM     18  C   UNL     1       7.882   5.963  19.320  0.00  0.00    +0.000 C 
ATOM     19  O   UNL     1       8.126   7.242  18.707  0.00  0.00    +0.000 OA
ATOM     20  C   UNL     1       7.140   6.988  17.687  0.00  0.00    +0.000 C 
BRANCH  17  21
ATOM     21  C   UNL     1       7.321   4.427  17.300  0.00  0.00    +0.000 C 
BRANCH  21  27
ATOM     22  C   UNL     1       4.693   3.437  15.808  0.00  0.00    +0.000 C 
ATOM     23  N   UNL     1       5.800   4.164  15.245  0.00  0.00    +0.000 N 
ATOM     24  C   UNL     1       5.895   4.527  13.934  0.00  0.00    +0.000 A 
ATOM     25  N   UNL     1       7.038   5.136  13.731  0.00  0.00    +0.000 NA
ATOM     26  N   UNL     1       7.710   5.164  14.927  0.00  0.00    +0.000 NA
ATOM     27  C   UNL     1       6.953   4.606  15.854  0.00  0.00    +0.000 A 
ENDBRANCH  21  27
ENDBRANCH  17  21
ENDBRANCH  11  17
ENDBRANCH   1  15
BRANCH   8  28
ATOM     28  C   UNL     1       0.043   9.476  22.655  0.00  0.00    +0.000 C 
ATOM     29  F   UNL     1      -0.769   8.390  22.735  0.00  0.00    +0.000 F 
ATOM     30  F   UNL     1       1.165   9.167  23.359  0.00  0.00    +0.000 F 
ATOM     31  F   UNL     1      -0.589  10.453  23.360  0.00  0.00    +0.000 F 
ENDBRANCH   8  28
BRANCH   6  32
ATOM     32  C   UNL     1      -0.435  12.842  18.903  0.00  0.00    +0.000 C 
BRANCH  32  33
ATOM     33  N   UNL     1      -0.079  14.090  19.621  0.00  0.00    +0.000 NA
ATOM     34  C   UNL     1       0.390  15.131  18.680  0.00  0.00    +0.000 C 
ATOM     35  C   UNL     1      -0.626  16.110  19.292  0.00  0.00    +0.000 C 
ATOM     36  C   UNL     1      -1.313  14.867  19.879  0.00  0.00    +0.000 C 
BRANCH  35  37
ATOM     37  C   UNL     1      -0.094  17.195  20.253  0.00  0.00    +0.000 C 
ATOM     38  O   UNL     1      -0.557  18.329  20.354  0.00  0.00    +0.000 OA
BRANCH  37  39
ATOM     39  O   UNL     1       0.941  16.806  21.043  0.00  0.00    +0.000 OA
ATOM     40  H   UNL     1       1.719  17.396  20.961  0.00  0.00    +0.000 HD
ENDBRANCH  37  39
ENDBRANCH  35  37
ENDBRANCH  32  33
ENDBRANCH   6  32
TORSDOF 9
ENDMDL
