MODEL 1
REMARK VINA RESULT:     -10.6      0.000      0.000
REMARK  Name = 
REMARK  9 active torsions:
REMARK  status: ('A' for Active; 'I' for Inactive)
REMARK    1  A    between atoms: C_1  and  C_2
REMARK    2  A    between atoms: C_2  and  C_3
REMARK    3  A    between atoms: C_2  and  N_33
REMARK    4  A    between atoms: C_7  and  C_8
REMARK    5  A    between atoms: N_13  and  C_14
REMARK    6  A    between atoms: C_18  and  C_19
REMARK    7  A    between atoms: C_19  and  C_20
REMARK    8  A    between atoms: C_20  and  C_21
REMARK    9  A    between atoms: N_25  and  C_26
REMARK                            x       y       z     vdW  Elec       q    Type
REMARK                         _______ _______ _______ _____ _____    ______ ____
ROOT
ATOM      1  C   UNL     1      -0.035  11.130  19.197  0.00  0.00    +0.000 A 
ATOM      2  C   UNL     1       0.914  10.526  18.381  0.00  0.00    +0.000 A 
ATOM      3  C   UNL     1       1.453   9.364  18.869  0.00  0.00    +0.000 A 
ATOM      4  C   UNL     1       1.114   8.839  20.103  0.00  0.00    +0.000 A 
ATOM      5  C   UNL     1       0.207   9.494  20.898  0.00  0.00    +0.000 A 
ATOM      6  N   UNL     1      -0.361  10.632  20.432  0.00  0.00    +0.000 NA
ATOM      7  C   UNL     1       1.789   7.535  20.306  0.00  0.00    +0.000 C 
ATOM      8  N   UNL     1       2.418   7.290  19.011  0.00  0.00    +0.000 N 
ATOM      9  C   UNL     1       2.291   8.394  18.167  0.00  0.00    +0.000 C 
ATOM     10  O   UNL     1       2.698   8.585  17.034  0.00  0.00    +0.000 OA
ENDROOT
BRANCH   8  11
ATOM     11  C   UNL     1       2.814   5.987  18.626  0.00  0.00    +0.000 A 
ATOM     12  C   UNL     1       2.329   4.855  19.283  0.00  0.00    +0.000 A 
ATOM     13  C   UNL     1       2.846   3.595  18.995  0.00  0.00    +0.000 A 
ATOM     14  C   UNL     1       3.862   3.457  18.050  0.00  0.00    +0.000 A 
ATOM     15  C   UNL     1       4.389   4.566  17.363  0.00  0.00    +0.000 A 
ATOM     16  C   UNL     1       3.803   5.816  17.646  0.00  0.00    +0.000 A 
BRANCH  15  17
ATOM     17  C   UNL     1       5.650   4.438  16.384  0.00  0.00    +0.000 C 
ATOM     18  C   UNL     1       5.622   3.350  15.270  0.00  0.00    +0.000 C 
ATOM     19  O   UNL     1       6.049   4.322  14.276  0.00  0.00    +0.000 OA
ATOM     20  C   UNL     1       5.617   5.389  15.153  0.00  0.00    +0.000 C 
BRANCH  17  21
ATOM     21  C   UNL     1       6.987   4.515  17.138  0.00  0.00    +0.000 C 
BRANCH  21  22
ATOM     22  C   UNL     1       7.426   5.911  17.430  0.00  0.00    +0.000 A 
ATOM     23  N   UNL     1       7.438   6.915  16.574  0.00  0.00    +0.000 NA
ATOM     24  N   UNL     1       7.848   8.046  17.238  0.00  0.00    +0.000 NA
ATOM     25  C   UNL     1       8.077   7.713  18.485  0.00  0.00    +0.000 A 
ATOM     26  N   UNL     1       7.845   6.382  18.649  0.00  0.00    +0.000 N 
ATOM     27  C   UNL     1       8.003   5.653  19.878  0.00  0.00    +0.000 C 
ENDBRANCH  21  22
ENDBRANCH  17  21
ENDBRANCH  15  17
ENDBRANCH   8  11
BRANCH   5  28
ATOM     28  C   UNL     1      -0.240   8.954  22.230  0.00  0.00    +0.000 C 
ATOM     29  C   UNL     1       0.518   9.316  23.486  0.00  0.00    +0.000 C 
ATOM     30  C   UNL     1      -0.846   9.890  23.249  0.00  0.00    +0.000 C 
ENDBRANCH   5  28
BRANCH   1  32
ATOM     31  C   UNL     1      -1.765  12.844  19.757  0.00  0.00    +0.000 C 
ATOM     32  C   UNL     1      -0.905  12.256  18.628  0.00  0.00    +0.000 C 
BRANCH  32  33
ATOM     33  N   UNL     1      -1.784  11.724  17.578  0.00  0.00    +0.000 NA
ATOM     34  C   UNL     1      -3.165  11.505  18.038  0.00  0.00    +0.000 C 
ATOM     35  C   UNL     1      -3.208  10.357  17.020  0.00  0.00    +0.000 C 
ATOM     36  C   UNL     1      -4.066  11.039  15.863  0.00  0.00    +0.000 C 
ATOM     37  C   UNL     1      -3.244   9.911  15.533  0.00  0.00    +0.000 C 
ATOM     38  C   UNL     1      -1.711  10.271  17.427  0.00  0.00    +0.000 C 
ENDBRANCH  32  33
ENDBRANCH   1  32
TORSDOF 7
ENDMDL
MODEL 2
REMARK VINA RESULT:      -9.9      1.488      2.466
REMARK  Name = 
REMARK  9 active torsions:
REMARK  status: ('A' for Active; 'I' for Inactive)
REMARK    1  A    between atoms: C_1  and  C_2
REMARK    2  A    between atoms: C_2  and  C_3
REMARK    3  A    between atoms: C_2  and  N_33
REMARK    4  A    between atoms: C_7  and  C_8
REMARK    5  A    between atoms: N_13  and  C_14
REMARK    6  A    between atoms: C_18  and  C_19
REMARK    7  A    between atoms: C_19  and  C_20
REMARK    8  A    between atoms: C_20  and  C_21
REMARK    9  A    between atoms: N_25  and  C_26
REMARK                            x       y       z     vdW  Elec       q    Type
REMARK                         _______ _______ _______ _____ _____    ______ ____
ROOT
ATOM      1  C   UNL     1      -0.118  11.519  19.355  0.00  0.00    +0.000 A 
ATOM      2  C   UNL     1       0.834  10.975  18.502  0.00  0.00    +0.000 A 
ATOM      3  C   UNL     1       1.357   9.771  18.898  0.00  0.00    +0.000 A 
ATOM      4  C   UNL     1       0.999   9.151  20.083  0.00  0.00    +0.000 A 
ATOM      5  C   UNL     1       0.090   9.749  20.919  0.00  0.00    +0.000 A 
ATOM      6  N   UNL     1      -0.462  10.927  20.542  0.00  0.00    +0.000 NA
ATOM      7  C   UNL     1       1.659   7.827  20.185  0.00  0.00    +0.000 C 
ATOM      8  N   UNL     1       2.300   7.682  18.881  0.00  0.00    +0.000 N 
ATOM      9  C   UNL     1       2.192   8.852  18.128  0.00  0.00    +0.000 C 
ATOM     10  O   UNL     1       2.614   9.131  17.019  0.00  0.00    +0.000 OA
ENDROOT
BRANCH   8  11
ATOM     11  C   UNL     1       2.687   6.411  18.394  0.00  0.00    +0.000 A 
ATOM     12  C   UNL     1       1.910   5.275  18.628  0.00  0.00    +0.000 A 
ATOM     13  C   UNL     1       2.381   4.013  18.279  0.00  0.00    +0.000 A 
ATOM     14  C   UNL     1       3.642   3.874  17.699  0.00  0.00    +0.000 A 
ATOM     15  C   UNL     1       4.467   4.986  17.448  0.00  0.00    +0.000 A 
ATOM     16  C   UNL     1       3.931   6.249  17.768  0.00  0.00    +0.000 A 
BRANCH  15  17
ATOM     17  C   UNL     1       5.969   4.827  16.917  0.00  0.00    +0.000 C 
ATOM     18  C   UNL     1       6.863   6.099  16.816  0.00  0.00    +0.000 C 
ATOM     19  O   UNL     1       7.954   5.416  17.494  0.00  0.00    +0.000 OA
ATOM     20  C   UNL     1       7.010   4.449  18.010  0.00  0.00    +0.000 C 
BRANCH  17  21
ATOM     21  C   UNL     1       6.063   3.908  15.688  0.00  0.00    +0.000 C 
BRANCH  21  22
ATOM     22  C   UNL     1       6.780   4.529  14.536  0.00  0.00    +0.000 A 
ATOM     23  N   UNL     1       7.754   5.416  14.615  0.00  0.00    +0.000 NA
ATOM     24  N   UNL     1       8.191   5.695  13.342  0.00  0.00    +0.000 NA
ATOM     25  C   UNL     1       7.478   4.972  12.511  0.00  0.00    +0.000 A 
ATOM     26  N   UNL     1       6.568   4.241  13.211  0.00  0.00    +0.000 N 
ATOM     27  C   UNL     1       5.603   3.342  12.638  0.00  0.00    +0.000 C 
ENDBRANCH  21  22
ENDBRANCH  17  21
ENDBRANCH  15  17
ENDBRANCH   8  11
BRANCH   5  28
ATOM     28  C   UNL     1      -0.377   9.106  22.198  0.00  0.00    +0.000 C 
ATOM     29  C   UNL     1       0.397   9.320  23.478  0.00  0.00    +0.000 C 
ATOM     30  C   UNL     1      -0.944   9.968  23.302  0.00  0.00    +0.000 C 
ENDBRANCH   5  28
BRANCH   1  32
ATOM     31  C   UNL     1      -1.613  13.384  20.087  0.00  0.00    +0.000 C 
ATOM     32  C   UNL     1      -0.971  12.698  18.871  0.00  0.00    +0.000 C 
BRANCH  32  33
ATOM     33  N   UNL     1      -2.030  12.211  17.976  0.00  0.00    +0.000 NA
ATOM     34  C   UNL     1      -3.182  11.647  18.698  0.00  0.00    +0.000 C 
ATOM     35  C   UNL     1      -3.354  10.724  17.484  0.00  0.00    +0.000 C 
ATOM     36  C   UNL     1      -4.588  11.431  16.765  0.00  0.00    +0.000 C 
ATOM     37  C   UNL     1      -3.746  10.565  15.990  0.00  0.00    +0.000 C 
ATOM     38  C   UNL     1      -1.805  10.854  17.479  0.00  0.00    +0.000 C 
ENDBRANCH  32  33
ENDBRANCH   1  32
TORSDOF 7
ENDMDL
MODEL 3
REMARK VINA RESULT:      -9.9      2.357      8.999
REMARK  Name = 
REMARK  9 active torsions:
REMARK  status: ('A' for Active; 'I' for Inactive)
REMARK    1  A    between atoms: C_1  and  C_2
REMARK    2  A    between atoms: C_2  and  C_3
REMARK    3  A    between atoms: C_2  and  N_33
REMARK    4  A    between atoms: C_7  and  C_8
REMARK    5  A    between atoms: N_13  and  C_14
REMARK    6  A    between atoms: C_18  and  C_19
REMARK    7  A    between atoms: C_19  and  C_20
REMARK    8  A    between atoms: C_20  and  C_21
REMARK    9  A    between atoms: N_25  and  C_26
REMARK                            x       y       z     vdW  Elec       q    Type
REMARK                         _______ _______ _______ _____ _____    ______ ____
ROOT
ATOM      1  C   UNL     1       4.917   5.666  17.730  0.00  0.00    +0.000 A 
ATOM      2  C   UNL     1       4.211   6.831  17.453  0.00  0.00    +0.000 A 
ATOM      3  C   UNL     1       3.150   7.085  18.283  0.00  0.00    +0.000 A 
ATOM      4  C   UNL     1       2.774   6.231  19.304  0.00  0.00    +0.000 A 
ATOM      5  C   UNL     1       3.470   5.067  19.512  0.00  0.00    +0.000 A 
ATOM      6  N   UNL     1       4.539   4.800  18.723  0.00  0.00    +0.000 NA
ATOM      7  C   UNL     1       1.657   6.822  20.080  0.00  0.00    +0.000 C 
ATOM      8  N   UNL     1       1.537   8.160  19.506  0.00  0.00    +0.000 N 
ATOM      9  C   UNL     1       2.365   8.313  18.393  0.00  0.00    +0.000 C 
ATOM     10  O   UNL     1       2.525   9.257  17.640  0.00  0.00    +0.000 OA
ENDROOT
BRANCH   8  11
ATOM     11  C   UNL     1       0.886   9.201  20.210  0.00  0.00    +0.000 A 
ATOM     12  C   UNL     1       0.872   9.237  21.606  0.00  0.00    +0.000 A 
ATOM     13  C   UNL     1       0.099  10.178  22.280  0.00  0.00    +0.000 A 
ATOM     14  C   UNL     1      -0.678  11.088  21.562  0.00  0.00    +0.000 A 
ATOM     15  C   UNL     1      -0.703  11.089  20.155  0.00  0.00    +0.000 A 
ATOM     16  C   UNL     1       0.133  10.156  19.511  0.00  0.00    +0.000 A 
BRANCH  15  17
ATOM     17  C   UNL     1      -1.697  12.031  19.325  0.00  0.00    +0.000 C 
ATOM     18  C   UNL     1      -2.889  11.372  18.567  0.00  0.00    +0.000 C 
ATOM     19  O   UNL     1      -3.811  12.355  19.114  0.00  0.00    +0.000 OA
ATOM     20  C   UNL     1      -2.855  12.652  20.159  0.00  0.00    +0.000 C 
BRANCH  17  21
ATOM     21  C   UNL     1      -0.949  13.088  18.497  0.00  0.00    +0.000 C 
BRANCH  21  22
ATOM     22  C   UNL     1       0.046  13.868  19.290  0.00  0.00    +0.000 A 
ATOM     23  N   UNL     1      -0.232  14.738  20.243  0.00  0.00    +0.000 NA
ATOM     24  N   UNL     1       0.952  15.196  20.770  0.00  0.00    +0.000 NA
ATOM     25  C   UNL     1       1.928  14.597  20.132  0.00  0.00    +0.000 A 
ATOM     26  N   UNL     1       1.410  13.771  19.182  0.00  0.00    +0.000 N 
ATOM     27  C   UNL     1       2.176  12.959  18.276  0.00  0.00    +0.000 C 
ENDBRANCH  21  22
ENDBRANCH  17  21
ENDBRANCH  15  17
ENDBRANCH   8  11
BRANCH   5  28
ATOM     28  C   UNL     1       3.143   4.117  20.633  0.00  0.00    +0.000 C 
ATOM     29  C   UNL     1       2.023   3.115  20.473  0.00  0.00    +0.000 C 
ATOM     30  C   UNL     1       3.446   2.645  20.477  0.00  0.00    +0.000 C 
ENDBRANCH   5  28
BRANCH   1  32
ATOM     31  C   UNL     1       7.092   6.740  17.131  0.00  0.00    +0.000 C 
ATOM     32  C   UNL     1       6.278   5.439  17.063  0.00  0.00    +0.000 C 
BRANCH  32  33
ATOM     33  N   UNL     1       6.086   5.063  15.656  0.00  0.00    +0.000 NA
ATOM     34  C   UNL     1       5.743   3.642  15.479  0.00  0.00    +0.000 C 
ATOM     35  C   UNL     1       6.471   3.744  14.132  0.00  0.00    +0.000 C 
ATOM     36  C   UNL     1       5.224   3.814  13.142  0.00  0.00    +0.000 C 
ATOM     37  C   UNL     1       6.494   4.297  12.681  0.00  0.00    +0.000 C 
ATOM     38  C   UNL     1       7.330   4.746  14.954  0.00  0.00    +0.000 C 
ENDBRANCH  32  33
ENDBRANCH   1  32
TORSDOF 7
ENDMDL
MODEL 4
REMARK VINA RESULT:      -9.9      1.334      2.051
REMARK  Name = 
REMARK  9 active torsions:
REMARK  status: ('A' for Active; 'I' for Inactive)
REMARK    1  A    between atoms: C_1  and  C_2
REMARK    2  A    between atoms: C_2  and  C_3
REMARK    3  A    between atoms: C_2  and  N_33
REMARK    4  A    between atoms: C_7  and  C_8
REMARK    5  A    between atoms: N_13  and  C_14
REMARK    6  A    between atoms: C_18  and  C_19
REMARK    7  A    between atoms: C_19  and  C_20
REMARK    8  A    between atoms: C_20  and  C_21
REMARK    9  A    between atoms: N_25  and  C_26
REMARK                            x       y       z     vdW  Elec       q    Type
REMARK                         _______ _______ _______ _____ _____    ______ ____
ROOT
ATOM      1  C   UNL     1      -0.098  11.021  19.364  0.00  0.00    +0.000 A 
ATOM      2  C   UNL     1       0.796  10.458  18.460  0.00  0.00    +0.000 A 
ATOM      3  C   UNL     1       1.406   9.305  18.881  0.00  0.00    +0.000 A 
ATOM      4  C   UNL     1       1.186   8.751  20.130  0.00  0.00    +0.000 A 
ATOM      5  C   UNL     1       0.331   9.367  21.009  0.00  0.00    +0.000 A 
ATOM      6  N   UNL     1      -0.305  10.495  20.613  0.00  0.00    +0.000 NA
ATOM      7  C   UNL     1       1.911   7.463  20.252  0.00  0.00    +0.000 C 
ATOM      8  N   UNL     1       2.436   7.257  18.905  0.00  0.00    +0.000 N 
ATOM      9  C   UNL     1       2.208   8.369  18.094  0.00  0.00    +0.000 C 
ATOM     10  O   UNL     1       2.513   8.590  16.935  0.00  0.00    +0.000 OA
ENDROOT
BRANCH   8  11
ATOM     11  C   UNL     1       2.833   5.972  18.464  0.00  0.00    +0.000 A 
ATOM     12  C   UNL     1       2.332   4.812  19.057  0.00  0.00    +0.000 A 
ATOM     13  C   UNL     1       2.849   3.565  18.718  0.00  0.00    +0.000 A 
ATOM     14  C   UNL     1       3.883   3.467  17.787  0.00  0.00    +0.000 A 
ATOM     15  C   UNL     1       4.426   4.606  17.164  0.00  0.00    +0.000 A 
ATOM     16  C   UNL     1       3.840   5.843  17.496  0.00  0.00    +0.000 A 
BRANCH  15  17
ATOM     17  C   UNL     1       5.705   4.520  16.204  0.00  0.00    +0.000 C 
ATOM     18  C   UNL     1       5.693   3.487  15.037  0.00  0.00    +0.000 C 
ATOM     19  O   UNL     1       6.143   4.504  14.100  0.00  0.00    +0.000 OA
ATOM     20  C   UNL     1       5.700   5.529  15.020  0.00  0.00    +0.000 C 
BRANCH  17  21
ATOM     21  C   UNL     1       7.028   4.552  16.985  0.00  0.00    +0.000 C 
BRANCH  21  22
ATOM     22  C   UNL     1       7.468   5.930  17.351  0.00  0.00    +0.000 A 
ATOM     23  N   UNL     1       7.586   6.952  16.525  0.00  0.00    +0.000 NA
ATOM     24  N   UNL     1       7.956   8.057  17.253  0.00  0.00    +0.000 NA
ATOM     25  C   UNL     1       8.056   7.691  18.508  0.00  0.00    +0.000 A 
ATOM     26  N   UNL     1       7.779   6.362  18.616  0.00  0.00    +0.000 N 
ATOM     27  C   UNL     1       7.801   5.603  19.837  0.00  0.00    +0.000 C 
ENDBRANCH  21  22
ENDBRANCH  17  21
ENDBRANCH  15  17
ENDBRANCH   8  11
BRANCH   5  28
ATOM     28  C   UNL     1       0.012   8.793  22.363  0.00  0.00    +0.000 C 
ATOM     29  C   UNL     1       0.734   9.302  23.590  0.00  0.00    +0.000 C 
ATOM     30  C   UNL     1      -0.710   9.643  23.383  0.00  0.00    +0.000 C 
ENDBRANCH   5  28
BRANCH   1  32
ATOM     31  C   UNL     1      -0.210  13.349  18.463  0.00  0.00    +0.000 C 
ATOM     32  C   UNL     1      -1.043  12.130  18.890  0.00  0.00    +0.000 C 
BRANCH  32  33
ATOM     33  N   UNL     1      -1.942  12.520  19.984  0.00  0.00    +0.000 NA
ATOM     34  C   UNL     1      -3.363  12.502  19.598  0.00  0.00    +0.000 C 
ATOM     35  C   UNL     1      -3.543  13.637  20.615  0.00  0.00    +0.000 C 
ATOM     36  C   UNL     1      -4.213  12.835  21.818  0.00  0.00    +0.000 C 
ATOM     37  C   UNL     1      -3.574  14.087  22.101  0.00  0.00    +0.000 C 
ATOM     38  C   UNL     1      -2.105  13.967  20.128  0.00  0.00    +0.000 C 
ENDBRANCH  32  33
ENDBRANCH   1  32
TORSDOF 7
ENDMDL
MODEL 5
REMARK VINA RESULT:      -9.8      2.000      9.275
REMARK  Name = 
REMARK  9 active torsions:
REMARK  status: ('A' for Active; 'I' for Inactive)
REMARK    1  A    between atoms: C_1  and  C_2
REMARK    2  A    between atoms: C_2  and  C_3
REMARK    3  A    between atoms: C_2  and  N_33
REMARK    4  A    between atoms: C_7  and  C_8
REMARK    5  A    between atoms: N_13  and  C_14
REMARK    6  A    between atoms: C_18  and  C_19
REMARK    7  A    between atoms: C_19  and  C_20
REMARK    8  A    between atoms: C_20  and  C_21
REMARK    9  A    between atoms: N_25  and  C_26
REMARK                            x       y       z     vdW  Elec       q    Type
REMARK                         _______ _______ _______ _____ _____    ______ ____
ROOT
ATOM      1  C   UNL     1       4.612   5.407  18.299  0.00  0.00    +0.000 A 
ATOM      2  C   UNL     1       4.002   6.620  18.002  0.00  0.00    +0.000 A 
ATOM      3  C   UNL     1       2.921   6.939  18.782  0.00  0.00    +0.000 A 
ATOM      4  C   UNL     1       2.436   6.102  19.771  0.00  0.00    +0.000 A 
ATOM      5  C   UNL     1       3.040   4.890  19.998  0.00  0.00    +0.000 A 
ATOM      6  N   UNL     1       4.126   4.559  19.259  0.00  0.00    +0.000 NA
ATOM      7  C   UNL     1       1.325   6.761  20.498  0.00  0.00    +0.000 C 
ATOM      8  N   UNL     1       1.325   8.110  19.937  0.00  0.00    +0.000 N 
ATOM      9  C   UNL     1       2.217   8.216  18.870  0.00  0.00    +0.000 C 
ATOM     10  O   UNL     1       2.479   9.155  18.138  0.00  0.00    +0.000 OA
ENDROOT
BRANCH   8  11
ATOM     11  C   UNL     1       0.712   9.186  20.623  0.00  0.00    +0.000 A 
ATOM     12  C   UNL     1       0.478   9.134  21.998  0.00  0.00    +0.000 A 
ATOM     13  C   UNL     1      -0.263  10.131  22.626  0.00  0.00    +0.000 A 
ATOM     14  C   UNL     1      -0.786  11.188  21.881  0.00  0.00    +0.000 A 
ATOM     15  C   UNL     1      -0.582  11.284  20.492  0.00  0.00    +0.000 A 
ATOM     16  C   UNL     1       0.216  10.283  19.904  0.00  0.00    +0.000 A 
BRANCH  15  17
ATOM     17  C   UNL     1      -1.295  12.411  19.605  0.00  0.00    +0.000 C 
ATOM     18  C   UNL     1      -1.128  13.903  20.021  0.00  0.00    +0.000 C 
ATOM     19  O   UNL     1      -0.792  14.271  18.654  0.00  0.00    +0.000 OA
ATOM     20  C   UNL     1      -0.472  12.888  18.374  0.00  0.00    +0.000 C 
BRANCH  17  21
ATOM     21  C   UNL     1      -2.736  12.034  19.226  0.00  0.00    +0.000 C 
BRANCH  21  22
ATOM     22  C   UNL     1      -2.854  11.426  17.868  0.00  0.00    +0.000 A 
ATOM     23  N   UNL     1      -1.929  10.712  17.256  0.00  0.00    +0.000 NA
ATOM     24  N   UNL     1      -2.438  10.281  16.054  0.00  0.00    +0.000 NA
ATOM     25  C   UNL     1      -3.664  10.738  15.957  0.00  0.00    +0.000 A 
ATOM     26  N   UNL     1      -3.961  11.478  17.060  0.00  0.00    +0.000 N 
ATOM     27  C   UNL     1      -5.209  12.150  17.301  0.00  0.00    +0.000 C 
ENDBRANCH  21  22
ENDBRANCH  17  21
ENDBRANCH  15  17
ENDBRANCH   8  11
BRANCH   5  28
ATOM     28  C   UNL     1       2.592   3.954  21.089  0.00  0.00    +0.000 C 
ATOM     29  C   UNL     1       1.604   2.853  20.781  0.00  0.00    +0.000 C 
ATOM     30  C   UNL     1       3.036   2.511  21.061  0.00  0.00    +0.000 C 
ENDBRANCH   5  28
BRANCH   1  32
ATOM     31  C   UNL     1       6.828   6.378  17.674  0.00  0.00    +0.000 C 
ATOM     32  C   UNL     1       5.986   5.093  17.696  0.00  0.00    +0.000 C 
BRANCH  32  33
ATOM     33  N   UNL     1       5.826   4.597  16.323  0.00  0.00    +0.000 NA
ATOM     34  C   UNL     1       7.091   4.559  15.571  0.00  0.00    +0.000 C 
ATOM     35  C   UNL     1       6.235   4.824  14.325  0.00  0.00    +0.000 C 
ATOM     36  C   UNL     1       6.209   3.365  13.686  0.00  0.00    +0.000 C 
ATOM     37  C   UNL     1       5.189   4.298  13.305  0.00  0.00    +0.000 C 
ATOM     38  C   UNL     1       5.407   5.624  15.369  0.00  0.00    +0.000 C 
ENDBRANCH  32  33
ENDBRANCH   1  32
TORSDOF 7
ENDMDL
MODEL 6
REMARK VINA RESULT:      -9.7      2.443      9.841
REMARK  Name = 
REMARK  9 active torsions:
REMARK  status: ('A' for Active; 'I' for Inactive)
REMARK    1  A    between atoms: C_1  and  C_2
REMARK    2  A    between atoms: C_2  and  C_3
REMARK    3  A    between atoms: C_2  and  N_33
REMARK    4  A    between atoms: C_7  and  C_8
REMARK    5  A    between atoms: N_13  and  C_14
REMARK    6  A    between atoms: C_18  and  C_19
REMARK    7  A    between atoms: C_19  and  C_20
REMARK    8  A    between atoms: C_20  and  C_21
REMARK    9  A    between atoms: N_25  and  C_26
REMARK                            x       y       z     vdW  Elec       q    Type
REMARK                         _______ _______ _______ _____ _____    ______ ____
ROOT
ATOM      1  C   UNL     1       4.712   5.594  18.141  0.00  0.00    +0.000 A 
ATOM      2  C   UNL     1       4.059   6.778  17.819  0.00  0.00    +0.000 A 
ATOM      3  C   UNL     1       2.972   7.079  18.599  0.00  0.00    +0.000 A 
ATOM      4  C   UNL     1       2.522   6.250  19.612  0.00  0.00    +0.000 A 
ATOM      5  C   UNL     1       3.169   5.066  19.863  0.00  0.00    +0.000 A 
ATOM      6  N   UNL     1       4.261   4.754  19.125  0.00  0.00    +0.000 NA
ATOM      7  C   UNL     1       1.394   6.889  20.330  0.00  0.00    +0.000 C 
ATOM      8  N   UNL     1       1.345   8.223  19.737  0.00  0.00    +0.000 N 
ATOM      9  C   UNL     1       2.225   8.333  18.661  0.00  0.00    +0.000 C 
ATOM     10  O   UNL     1       2.450   9.262  17.904  0.00  0.00    +0.000 OA
ENDROOT
BRANCH   8  11
ATOM     11  C   UNL     1       0.700   9.294  20.401  0.00  0.00    +0.000 A 
ATOM     12  C   UNL     1       0.786   9.450  21.785  0.00  0.00    +0.000 A 
ATOM     13  C   UNL     1       0.021  10.413  22.436  0.00  0.00    +0.000 A 
ATOM     14  C   UNL     1      -0.846  11.227  21.707  0.00  0.00    +0.000 A 
ATOM     15  C   UNL     1      -0.973  11.107  20.311  0.00  0.00    +0.000 A 
ATOM     16  C   UNL     1      -0.144  10.155  19.684  0.00  0.00    +0.000 A 
BRANCH  15  17
ATOM     17  C   UNL     1      -2.067  11.934  19.483  0.00  0.00    +0.000 C 
ATOM     18  C   UNL     1      -1.804  12.214  17.973  0.00  0.00    +0.000 C 
ATOM     19  O   UNL     1      -3.148  11.774  17.633  0.00  0.00    +0.000 OA
ATOM     20  C   UNL     1      -3.226  11.076  18.898  0.00  0.00    +0.000 C 
BRANCH  17  21
ATOM     21  C   UNL     1      -2.586  13.157  20.256  0.00  0.00    +0.000 C 
BRANCH  21  22
ATOM     22  C   UNL     1      -3.814  12.876  21.056  0.00  0.00    +0.000 A 
ATOM     23  N   UNL     1      -3.850  12.338  22.261  0.00  0.00    +0.000 NA
ATOM     24  N   UNL     1      -5.158  12.301  22.681  0.00  0.00    +0.000 NA
ATOM     25  C   UNL     1      -5.895  12.818  21.727  0.00  0.00    +0.000 A 
ATOM     26  N   UNL     1      -5.100  13.174  20.681  0.00  0.00    +0.000 N 
ATOM     27  C   UNL     1      -5.556  13.761  19.450  0.00  0.00    +0.000 C 
ENDBRANCH  21  22
ENDBRANCH  17  21
ENDBRANCH  15  17
ENDBRANCH   8  11
BRANCH   5  28
ATOM     28  C   UNL     1       2.760   4.142  20.979  0.00  0.00    +0.000 C 
ATOM     29  C   UNL     1       1.651   3.138  20.762  0.00  0.00    +0.000 C 
ATOM     30  C   UNL     1       3.070   2.667  20.878  0.00  0.00    +0.000 C 
ENDBRANCH   5  28
BRANCH   1  32
ATOM     31  C   UNL     1       6.981   6.552  17.720  0.00  0.00    +0.000 C 
ATOM     32  C   UNL     1       6.092   5.312  17.536  0.00  0.00    +0.000 C 
BRANCH  32  33
ATOM     33  N   UNL     1       5.958   5.023  16.102  0.00  0.00    +0.000 NA
ATOM     34  C   UNL     1       5.619   3.617  15.826  0.00  0.00    +0.000 C 
ATOM     35  C   UNL     1       6.403   3.797  14.519  0.00  0.00    +0.000 C 
ATOM     36  C   UNL     1       5.200   3.933  13.484  0.00  0.00    +0.000 C 
ATOM     37  C   UNL     1       6.489   4.436  13.106  0.00  0.00    +0.000 C 
ATOM     38  C   UNL     1       7.230   4.742  15.435  0.00  0.00    +0.000 C 
ENDBRANCH  32  33
ENDBRANCH   1  32
TORSDOF 7
ENDMDL
MODEL 7
REMARK VINA RESULT:      -9.7      2.369      9.032
REMARK  Name = 
REMARK  9 active torsions:
REMARK  status: ('A' for Active; 'I' for Inactive)
REMARK    1  A    between atoms: C_1  and  C_2
REMARK    2  A    between atoms: C_2  and  C_3
REMARK    3  A    between atoms: C_2  and  N_33
REMARK    4  A    between atoms: C_7  and  C_8
REMARK    5  A    between atoms: N_13  and  C_14
REMARK    6  A    between atoms: C_18  and  C_19
REMARK    7  A    between atoms: C_19  and  C_20
REMARK    8  A    between atoms: C_20  and  C_21
REMARK    9  A    between atoms: N_25  and  C_26
REMARK                            x       y       z     vdW  Elec       q    Type
REMARK                         _______ _______ _______ _____ _____    ______ ____
ROOT
ATOM      1  C   UNL     1       4.021   5.848  18.417  0.00  0.00    +0.000 A 
ATOM      2  C   UNL     1       3.358   7.052  18.210  0.00  0.00    +0.000 A 
ATOM      3  C   UNL     1       2.335   7.315  19.084  0.00  0.00    +0.000 A 
ATOM      4  C   UNL     1       1.955   6.436  20.083  0.00  0.00    +0.000 A 
ATOM      5  C   UNL     1       2.608   5.236  20.221  0.00  0.00    +0.000 A 
ATOM      6  N   UNL     1       3.638   4.959  19.387  0.00  0.00    +0.000 NA
ATOM      7  C   UNL     1       0.890   7.041  20.918  0.00  0.00    +0.000 C 
ATOM      8  N   UNL     1       0.809   8.405  20.402  0.00  0.00    +0.000 N 
ATOM      9  C   UNL     1       1.607   8.569  19.269  0.00  0.00    +0.000 C 
ATOM     10  O   UNL     1       1.783   9.536  18.549  0.00  0.00    +0.000 OA
ENDROOT
BRANCH   8  11
ATOM     11  C   UNL     1       0.226   9.442  21.168  0.00  0.00    +0.000 A 
ATOM     12  C   UNL     1       0.186   9.382  22.562  0.00  0.00    +0.000 A 
ATOM     13  C   UNL     1      -0.527  10.332  23.290  0.00  0.00    +0.000 A 
ATOM     14  C   UNL     1      -1.216  11.347  22.626  0.00  0.00    +0.000 A 
ATOM     15  C   UNL     1      -1.211  11.449  21.223  0.00  0.00    +0.000 A 
ATOM     16  C   UNL     1      -0.436  10.499  20.527  0.00  0.00    +0.000 A 
BRANCH  15  17
ATOM     17  C   UNL     1      -2.113  12.521  20.446  0.00  0.00    +0.000 C 
ATOM     18  C   UNL     1      -2.934  12.048  19.210  0.00  0.00    +0.000 C 
ATOM     19  O   UNL     1      -4.126  12.709  19.718  0.00  0.00    +0.000 OA
ATOM     20  C   UNL     1      -3.536  12.727  21.039  0.00  0.00    +0.000 C 
BRANCH  17  21
ATOM     21  C   UNL     1      -1.379  13.854  20.226  0.00  0.00    +0.000 C 
BRANCH  21  22
ATOM     22  C   UNL     1      -0.019  13.693  19.634  0.00  0.00    +0.000 A 
ATOM     23  N   UNL     1       0.249  13.321  18.396  0.00  0.00    +0.000 NA
ATOM     24  N   UNL     1       1.612  13.351  18.220  0.00  0.00    +0.000 NA
ATOM     25  C   UNL     1       2.149  13.742  19.351  0.00  0.00    +0.000 A 
ATOM     26  N   UNL     1       1.169  13.948  20.272  0.00  0.00    +0.000 N 
ATOM     27  C   UNL     1       1.377  14.368  21.631  0.00  0.00    +0.000 C 
ENDBRANCH  21  22
ENDBRANCH  17  21
ENDBRANCH  15  17
ENDBRANCH   8  11
BRANCH   5  28
ATOM     28  C   UNL     1       2.276   4.256  21.314  0.00  0.00    +0.000 C 
ATOM     29  C   UNL     1       1.232   3.188  21.080  0.00  0.00    +0.000 C 
ATOM     30  C   UNL     1       2.680   2.808  21.165  0.00  0.00    +0.000 C 
ENDBRANCH   5  28
BRANCH   1  32
ATOM     31  C   UNL     1       5.990   4.317  18.266  0.00  0.00    +0.000 C 
ATOM     32  C   UNL     1       5.350   5.592  17.696  0.00  0.00    +0.000 C 
BRANCH  32  33
ATOM     33  N   UNL     1       6.259   6.726  17.910  0.00  0.00    +0.000 NA
ATOM     34  C   UNL     1       7.055   7.060  16.718  0.00  0.00    +0.000 C 
ATOM     35  C   UNL     1       8.139   7.520  17.703  0.00  0.00    +0.000 C 
ATOM     36  C   UNL     1       7.959   9.100  17.604  0.00  0.00    +0.000 C 
ATOM     37  C   UNL     1       8.611   8.555  18.760  0.00  0.00    +0.000 C 
ATOM     38  C   UNL     1       7.531   6.354  18.531  0.00  0.00    +0.000 C 
ENDBRANCH  32  33
ENDBRANCH   1  32
TORSDOF 7
ENDMDL
MODEL 8
REMARK VINA RESULT:      -9.6      2.432      9.279
REMARK  Name = 
REMARK  9 active torsions:
REMARK  status: ('A' for Active; 'I' for Inactive)
REMARK    1  A    between atoms: C_1  and  C_2
REMARK    2  A    between atoms: C_2  and  C_3
REMARK    3  A    between atoms: C_2  and  N_33
REMARK    4  A    between atoms: C_7  and  C_8
REMARK    5  A    between atoms: N_13  and  C_14
REMARK    6  A    between atoms: C_18  and  C_19
REMARK    7  A    between atoms: C_19  and  C_20
REMARK    8  A    between atoms: C_20  and  C_21
REMARK    9  A    between atoms: N_25  and  C_26
REMARK                            x       y       z     vdW  Elec       q    Type
REMARK                         _______ _______ _______ _____ _____    ______ ____
ROOT
ATOM      1  C   UNL     1       4.992   5.465  17.514  0.00  0.00    +0.000 A 
ATOM      2  C   UNL     1       4.280   6.651  17.371  0.00  0.00    +0.000 A 
ATOM      3  C   UNL     1       3.255   6.830  18.262  0.00  0.00    +0.000 A 
ATOM      4  C   UNL     1       2.915   5.888  19.217  0.00  0.00    +0.000 A 
ATOM      5  C   UNL     1       3.615   4.709  19.292  0.00  0.00    +0.000 A 
ATOM      6  N   UNL     1       4.650   4.514  18.440  0.00  0.00    +0.000 NA
ATOM      7  C   UNL     1       1.833   6.408  20.086  0.00  0.00    +0.000 C 
ATOM      8  N   UNL     1       1.695   7.792  19.640  0.00  0.00    +0.000 N 
ATOM      9  C   UNL     1       2.479   8.043  18.514  0.00  0.00    +0.000 C 
ATOM     10  O   UNL     1       2.613   9.051  17.842  0.00  0.00    +0.000 OA
ENDROOT
BRANCH   8  11
ATOM     11  C   UNL     1       1.078   8.766  20.461  0.00  0.00    +0.000 A 
ATOM     12  C   UNL     1       0.686   8.473  21.768  0.00  0.00    +0.000 A 
ATOM     13  C   UNL     1      -0.057   9.391  22.505  0.00  0.00    +0.000 A 
ATOM     14  C   UNL     1      -0.425  10.610  21.934  0.00  0.00    +0.000 A 
ATOM     15  C   UNL     1      -0.060  10.951  20.619  0.00  0.00    +0.000 A 
ATOM     16  C   UNL     1       0.736  10.016  19.927  0.00  0.00    +0.000 A 
BRANCH  15  17
ATOM     17  C   UNL     1      -0.596  12.281  19.907  0.00  0.00    +0.000 C 
ATOM     18  C   UNL     1       0.317  12.985  18.858  0.00  0.00    +0.000 C 
ATOM     19  O   UNL     1      -0.792  13.079  17.921  0.00  0.00    +0.000 OA
ATOM     20  C   UNL     1      -1.480  12.036  18.650  0.00  0.00    +0.000 C 
BRANCH  17  21
ATOM     21  C   UNL     1      -1.257  13.252  20.898  0.00  0.00    +0.000 C 
BRANCH  21  22
ATOM     22  C   UNL     1      -0.325  14.292  21.422  0.00  0.00    +0.000 A 
ATOM     23  N   UNL     1       0.618  14.105  22.326  0.00  0.00    +0.000 NA
ATOM     24  N   UNL     1       1.298  15.287  22.495  0.00  0.00    +0.000 NA
ATOM     25  C   UNL     1       0.759  16.173  21.691  0.00  0.00    +0.000 A 
ATOM     26  N   UNL     1      -0.274  15.601  21.014  0.00  0.00    +0.000 N 
ATOM     27  C   UNL     1      -1.111  16.268  20.053  0.00  0.00    +0.000 C 
ENDBRANCH  21  22
ENDBRANCH  17  21
ENDBRANCH  15  17
ENDBRANCH   8  11
BRANCH   5  28
ATOM     28  C   UNL     1       3.329   3.663  20.336  0.00  0.00    +0.000 C 
ATOM     29  C   UNL     1       2.144   2.739  20.175  0.00  0.00    +0.000 C 
ATOM     30  C   UNL     1       3.533   2.203  20.004  0.00  0.00    +0.000 C 
ENDBRANCH   5  28
BRANCH   1  32
ATOM     31  C   UNL     1       7.089   6.630  16.814  0.00  0.00    +0.000 C 
ATOM     32  C   UNL     1       6.324   5.298  16.775  0.00  0.00    +0.000 C 
BRANCH  32  33
ATOM     33  N   UNL     1       6.074   4.926  15.376  0.00  0.00    +0.000 NA
ATOM     34  C   UNL     1       5.876   3.479  15.189  0.00  0.00    +0.000 C 
ATOM     35  C   UNL     1       6.491   3.683  13.798  0.00  0.00    +0.000 C 
ATOM     36  C   UNL     1       5.176   3.631  12.899  0.00  0.00    +0.000 C 
ATOM     37  C   UNL     1       6.349   4.259  12.363  0.00  0.00    +0.000 C 
ATOM     38  C   UNL     1       7.291   4.760  14.582  0.00  0.00    +0.000 C 
ENDBRANCH  32  33
ENDBRANCH   1  32
TORSDOF 7
ENDMDL
MODEL 9
REMARK VINA RESULT:      -9.6      2.560      9.091
REMARK  Name = 
REMARK  9 active torsions:
REMARK  status: ('A' for Active; 'I' for Inactive)
REMARK    1  A    between atoms: C_1  and  C_2
REMARK    2  A    between atoms: C_2  and  C_3
REMARK    3  A    between atoms: C_2  and  N_33
REMARK    4  A    between atoms: C_7  and  C_8
REMARK    5  A    between atoms: N_13  and  C_14
REMARK    6  A    between atoms: C_18  and  C_19
REMARK    7  A    between atoms: C_19  and  C_20
REMARK    8  A    between atoms: C_20  and  C_21
REMARK    9  A    between atoms: N_25  and  C_26
REMARK                            x       y       z     vdW  Elec       q    Type
REMARK                         _______ _______ _______ _____ _____    ______ ____
ROOT
ATOM      1  C   UNL     1       4.721   5.898  17.964  0.00  0.00    +0.000 A 
ATOM      2  C   UNL     1       4.021   7.088  17.809  0.00  0.00    +0.000 A 
ATOM      3  C   UNL     1       2.955   7.255  18.655  0.00  0.00    +0.000 A 
ATOM      4  C   UNL     1       2.569   6.297  19.575  0.00  0.00    +0.000 A 
ATOM      5  C   UNL     1       3.261   5.115  19.661  0.00  0.00    +0.000 A 
ATOM      6  N   UNL     1       4.334   4.931  18.855  0.00  0.00    +0.000 NA
ATOM      7  C   UNL     1       1.449   6.805  20.403  0.00  0.00    +0.000 C 
ATOM      8  N   UNL     1       1.336   8.197  19.976  0.00  0.00    +0.000 N 
ATOM      9  C   UNL     1       2.172   8.466  18.892  0.00  0.00    +0.000 C 
ATOM     10  O   UNL     1       2.339   9.486  18.245  0.00  0.00    +0.000 OA
ENDROOT
BRANCH   8  11
ATOM     11  C   UNL     1       0.683   9.159  20.784  0.00  0.00    +0.000 A 
ATOM     12  C   UNL     1       0.349   8.886  22.112  0.00  0.00    +0.000 A 
ATOM     13  C   UNL     1      -0.428   9.781  22.842  0.00  0.00    +0.000 A 
ATOM     14  C   UNL     1      -0.887  10.956  22.246  0.00  0.00    +0.000 A 
ATOM     15  C   UNL     1      -0.582  11.275  20.910  0.00  0.00    +0.000 A 
ATOM     16  C   UNL     1       0.250  10.368  20.222  0.00  0.00    +0.000 A 
BRANCH  15  17
ATOM     17  C   UNL     1      -1.219  12.545  20.173  0.00  0.00    +0.000 C 
ATOM     18  C   UNL     1      -2.754  12.560  19.906  0.00  0.00    +0.000 C 
ATOM     19  O   UNL     1      -2.858  13.910  20.440  0.00  0.00    +0.000 OA
ATOM     20  C   UNL     1      -1.592  13.726  21.115  0.00  0.00    +0.000 C 
BRANCH  17  21
ATOM     21  C   UNL     1      -0.380  13.008  18.971  0.00  0.00    +0.000 C 
BRANCH  21  22
ATOM     22  C   UNL     1       0.728  13.936  19.342  0.00  0.00    +0.000 A 
ATOM     23  N   UNL     1       1.883  13.591  19.877  0.00  0.00    +0.000 NA
ATOM     24  N   UNL     1       2.653  14.721  20.012  0.00  0.00    +0.000 NA
ATOM     25  C   UNL     1       1.956  15.733  19.556  0.00  0.00    +0.000 A 
ATOM     26  N   UNL     1       0.735  15.295  19.144  0.00  0.00    +0.000 N 
ATOM     27  C   UNL     1      -0.306  16.121  18.597  0.00  0.00    +0.000 C 
ENDBRANCH  21  22
ENDBRANCH  17  21
ENDBRANCH  15  17
ENDBRANCH   8  11
BRANCH   5  28
ATOM     28  C   UNL     1       2.924   4.051  20.671  0.00  0.00    +0.000 C 
ATOM     29  C   UNL     1       1.790   3.087  20.405  0.00  0.00    +0.000 C 
ATOM     30  C   UNL     1       3.208   2.602  20.352  0.00  0.00    +0.000 C 
ENDBRANCH   5  28
BRANCH   1  32
ATOM     31  C   UNL     1       6.788   7.105  17.246  0.00  0.00    +0.000 C 
ATOM     32  C   UNL     1       6.086   5.739  17.284  0.00  0.00    +0.000 C 
BRANCH  32  33
ATOM     33  N   UNL     1       5.904   5.250  15.910  0.00  0.00    +0.000 NA
ATOM     34  C   UNL     1       5.540   3.826  15.848  0.00  0.00    +0.000 C 
ATOM     35  C   UNL     1       6.286   3.804  14.506  0.00  0.00    +0.000 C 
ATOM     36  C   UNL     1       5.053   3.811  13.498  0.00  0.00    +0.000 C 
ATOM     37  C   UNL     1       6.335   4.235  13.015  0.00  0.00    +0.000 C 
ATOM     38  C   UNL     1       7.151   4.857  15.254  0.00  0.00    +0.000 C 
ENDBRANCH  32  33
ENDBRANCH   1  32
TORSDOF 7
ENDMDL
