MODEL 1
REMARK VINA RESULT:      -8.6      0.000      0.000
REMARK  Name = 
REMARK  8 active torsions:
REMARK  status: ('A' for Active; 'I' for Inactive)
REMARK    1  A    between atoms: C_1  and  C_2
REMARK    2  A    between atoms: C_2  and  S_3
REMARK    3  A    between atoms: C_2  and  C_10
REMARK    4  A    between atoms: S_3  and  C_4
REMARK    5  A    between atoms: N_8  and  C_9
REMARK    6  A    between atoms: C_14  and  N_15
REMARK    7  A    between atoms: C_16  and  C_18
REMARK    8  A    between atoms: C_22  and  N_23
REMARK                            x       y       z     vdW  Elec       q    Type
REMARK                         _______ _______ _______ _____ _____    ______ ____
ROOT
ATOM      1  C   UNL     1       6.262   6.024  17.372  0.00  0.00    +0.000 A 
ATOM      2  C   UNL     1       6.866   5.260  18.383  0.00  0.00    +0.000 A 
ATOM      3  C   UNL     1       7.890   5.786  19.164  0.00  0.00    +0.000 A 
ATOM      4  C   UNL     1       8.355   7.076  18.930  0.00  0.00    +0.000 A 
ATOM      5  C   UNL     1       7.800   7.867  17.921  0.00  0.00    +0.000 A 
ATOM      6  C   UNL     1       6.725   7.350  17.180  0.00  0.00    +0.000 A 
ENDROOT
BRANCH   5   7
ATOM      7  N   UNL     1       8.297   9.162  17.611  0.00  0.00    +0.000 N 
ATOM      8  C   UNL     1       8.944   9.986  18.524  0.00  0.00    +0.000 C 
ATOM      9  O   UNL     1       9.224   9.696  19.683  0.00  0.00    +0.000 OA
ATOM     10  H   UNL     1       8.340   9.413  16.631  0.00  0.00    +0.000 HD
BRANCH   8  11
ATOM     11  C   UNL     1       9.385  11.327  18.055  0.00  0.00    +0.000 A 
ATOM     12  C   UNL     1      10.756  11.493  17.803  0.00  0.00    +0.000 A 
ATOM     13  C   UNL     1      11.263  12.742  17.464  0.00  0.00    +0.000 A 
ATOM     14  C   UNL     1      10.403  13.837  17.398  0.00  0.00    +0.000 A 
ATOM     15  C   UNL     1       9.043  13.701  17.698  0.00  0.00    +0.000 A 
ATOM     16  C   UNL     1       8.524  12.428  17.970  0.00  0.00    +0.000 A 
BRANCH  15  17
ATOM     17  N   UNL     1       8.185  14.795  17.525  0.00  0.00    +0.000 N 
ATOM     18  H   UNL     1       7.510  14.662  16.776  0.00  0.00    +0.000 HD
ATOM     19  H   UNL     1       8.660  15.688  17.449  0.00  0.00    +0.000 HD
ENDBRANCH  15  17
ENDBRANCH   8  11
ENDBRANCH   5   7
BRANCH   1  21
ATOM     20  C   UNL     1       3.849   5.138  17.205  0.00  0.00    +0.000 C 
ATOM     21  C   UNL     1       5.162   5.452  16.467  0.00  0.00    +0.000 C 
BRANCH  21  22
ATOM     22  S   UNL     1       5.794   3.920  15.651  0.00  0.00    +0.000 S 
BRANCH  22  23
ATOM     23  C   UNL     1       6.838   4.552  14.432  0.00  0.00    +0.000 A 
ATOM     24  N   UNL     1       7.812   5.420  14.586  0.00  0.00    +0.000 NA
ATOM     25  N   UNL     1       8.298   5.727  13.333  0.00  0.00    +0.000 NA
ATOM     26  C   UNL     1       7.618   5.020  12.459  0.00  0.00    +0.000 A 
ATOM     27  N   UNL     1       6.715   4.236  13.110  0.00  0.00    +0.000 N 
ATOM     28  C   UNL     1       5.823   3.286  12.503  0.00  0.00    +0.000 C 
ENDBRANCH  22  23
ENDBRANCH  21  22
ENDBRANCH   1  21
TORSDOF 6
ENDMDL
MODEL 2
REMARK VINA RESULT:      -8.1      3.779      5.134
REMARK  Name = 
REMARK  8 active torsions:
REMARK  status: ('A' for Active; 'I' for Inactive)
REMARK    1  A    between atoms: C_1  and  C_2
REMARK    2  A    between atoms: C_2  and  S_3
REMARK    3  A    between atoms: C_2  and  C_10
REMARK    4  A    between atoms: S_3  and  C_4
REMARK    5  A    between atoms: N_8  and  C_9
REMARK    6  A    between atoms: C_14  and  N_15
REMARK    7  A    between atoms: C_16  and  C_18
REMARK    8  A    between atoms: C_22  and  N_23
REMARK                            x       y       z     vdW  Elec       q    Type
REMARK                         _______ _______ _______ _____ _____    ______ ____
ROOT
ATOM      1  C   UNL     1       4.440   4.934  16.980  0.00  0.00    +0.000 A 
ATOM      2  C   UNL     1       5.158   4.011  16.204  0.00  0.00    +0.000 A 
ATOM      3  C   UNL     1       6.457   4.282  15.787  0.00  0.00    +0.000 A 
ATOM      4  C   UNL     1       7.056   5.495  16.111  0.00  0.00    +0.000 A 
ATOM      5  C   UNL     1       6.374   6.454  16.864  0.00  0.00    +0.000 A 
ATOM      6  C   UNL     1       5.086   6.146  17.332  0.00  0.00    +0.000 A 
ENDROOT
BRANCH   5   7
ATOM      7  N   UNL     1       6.930   7.729  17.154  0.00  0.00    +0.000 N 
ATOM      8  C   UNL     1       7.903   7.952  18.121  0.00  0.00    +0.000 C 
ATOM      9  O   UNL     1       8.447   7.092  18.807  0.00  0.00    +0.000 OA
ATOM     10  H   UNL     1       6.737   8.473  16.494  0.00  0.00    +0.000 HD
BRANCH   8  11
ATOM     11  C   UNL     1       8.368   9.350  18.325  0.00  0.00    +0.000 A 
ATOM     12  C   UNL     1       7.912  10.312  17.411  0.00  0.00    +0.000 A 
ATOM     13  C   UNL     1       8.383  11.618  17.468  0.00  0.00    +0.000 A 
ATOM     14  C   UNL     1       9.333  11.963  18.428  0.00  0.00    +0.000 A 
ATOM     15  C   UNL     1       9.840  11.005  19.313  0.00  0.00    +0.000 A 
ATOM     16  C   UNL     1       9.310   9.707  19.298  0.00  0.00    +0.000 A 
BRANCH  15  17
ATOM     17  N   UNL     1      10.716  11.402  20.332  0.00  0.00    +0.000 N 
ATOM     18  H   UNL     1      11.250  10.631  20.727  0.00  0.00    +0.000 HD
ATOM     19  H   UNL     1      10.284  11.969  21.054  0.00  0.00    +0.000 HD
ENDBRANCH  15  17
ENDBRANCH   8  11
ENDBRANCH   5   7
BRANCH   1  21
ATOM     20  C   UNL     1       2.577   5.440  18.686  0.00  0.00    +0.000 C 
ATOM     21  C   UNL     1       2.989   4.679  17.413  0.00  0.00    +0.000 C 
BRANCH  21  22
ATOM     22  S   UNL     1       2.751   2.866  17.674  0.00  0.00    +0.000 S 
BRANCH  22  23
ATOM     23  C   UNL     1       2.298   2.787  19.337  0.00  0.00    +0.000 A 
ATOM     24  N   UNL     1       1.102   2.964  19.849  0.00  0.00    +0.000 NA
ATOM     25  N   UNL     1       1.226   2.928  21.221  0.00  0.00    +0.000 NA
ATOM     26  C   UNL     1       2.491   2.708  21.500  0.00  0.00    +0.000 A 
ATOM     27  N   UNL     1       3.196   2.573  20.343  0.00  0.00    +0.000 N 
ATOM     28  C   UNL     1       4.598   2.276  20.233  0.00  0.00    +0.000 C 
ENDBRANCH  22  23
ENDBRANCH  21  22
ENDBRANCH   1  21
TORSDOF 6
ENDMDL
MODEL 3
REMARK VINA RESULT:      -8.0      5.100      6.466
REMARK  Name = 
REMARK  8 active torsions:
REMARK  status: ('A' for Active; 'I' for Inactive)
REMARK    1  A    between atoms: C_1  and  C_2
REMARK    2  A    between atoms: C_2  and  S_3
REMARK    3  A    between atoms: C_2  and  C_10
REMARK    4  A    between atoms: S_3  and  C_4
REMARK    5  A    between atoms: N_8  and  C_9
REMARK    6  A    between atoms: C_14  and  N_15
REMARK    7  A    between atoms: C_16  and  C_18
REMARK    8  A    between atoms: C_22  and  N_23
REMARK                            x       y       z     vdW  Elec       q    Type
REMARK                         _______ _______ _______ _____ _____    ______ ____
ROOT
ATOM      1  C   UNL     1       4.397   5.111  17.731  0.00  0.00    +0.000 A 
ATOM      2  C   UNL     1       4.157   3.781  18.113  0.00  0.00    +0.000 A 
ATOM      3  C   UNL     1       3.250   3.478  19.123  0.00  0.00    +0.000 A 
ATOM      4  C   UNL     1       2.589   4.500  19.797  0.00  0.00    +0.000 A 
ATOM      5  C   UNL     1       2.811   5.839  19.466  0.00  0.00    +0.000 A 
ATOM      6  C   UNL     1       3.680   6.132  18.404  0.00  0.00    +0.000 A 
ENDROOT
BRANCH   5   7
ATOM      7  N   UNL     1       2.203   6.908  20.179  0.00  0.00    +0.000 N 
ATOM      8  C   UNL     1       1.746   8.079  19.586  0.00  0.00    +0.000 C 
ATOM      9  O   UNL     1       1.749   8.326  18.385  0.00  0.00    +0.000 OA
ATOM     10  H   UNL     1       1.928   6.721  21.136  0.00  0.00    +0.000 HD
BRANCH   8  11
ATOM     11  C   UNL     1       1.155   9.118  20.472  0.00  0.00    +0.000 A 
ATOM     12  C   UNL     1       0.782   8.715  21.764  0.00  0.00    +0.000 A 
ATOM     13  C   UNL     1       0.127   9.597  22.615  0.00  0.00    +0.000 A 
ATOM     14  C   UNL     1      -0.179  10.881  22.169  0.00  0.00    +0.000 A 
ATOM     15  C   UNL     1       0.136  11.283  20.865  0.00  0.00    +0.000 A 
ATOM     16  C   UNL     1       0.859  10.415  20.035  0.00  0.00    +0.000 A 
BRANCH  15  17
ATOM     17  N   UNL     1      -0.092  12.610  20.477  0.00  0.00    +0.000 N 
ATOM     18  H   UNL     1      -1.023  12.764  20.098  0.00  0.00    +0.000 HD
ATOM     19  H   UNL     1       0.628  12.996  19.876  0.00  0.00    +0.000 HD
ENDBRANCH  15  17
ENDBRANCH   8  11
ENDBRANCH   5   7
BRANCH   1  21
ATOM     20  C   UNL     1       4.974   6.611  15.717  0.00  0.00    +0.000 C 
ATOM     21  C   UNL     1       5.426   5.474  16.651  0.00  0.00    +0.000 C 
BRANCH  21  22
ATOM     22  S   UNL     1       5.803   3.967  15.650  0.00  0.00    +0.000 S 
BRANCH  22  23
ATOM     23  C   UNL     1       6.844   4.588  14.422  0.00  0.00    +0.000 A 
ATOM     24  N   UNL     1       7.827   5.448  14.569  0.00  0.00    +0.000 NA
ATOM     25  N   UNL     1       8.307   5.748  13.312  0.00  0.00    +0.000 NA
ATOM     26  C   UNL     1       7.615   5.045  12.444  0.00  0.00    +0.000 A 
ATOM     27  N   UNL     1       6.709   4.271  13.102  0.00  0.00    +0.000 N 
ATOM     28  C   UNL     1       5.804   3.328  12.504  0.00  0.00    +0.000 C 
ENDBRANCH  22  23
ENDBRANCH  21  22
ENDBRANCH   1  21
TORSDOF 6
ENDMDL
MODEL 4
REMARK VINA RESULT:      -7.9      2.660      3.850
REMARK  Name = 
REMARK  8 active torsions:
REMARK  status: ('A' for Active; 'I' for Inactive)
REMARK    1  A    between atoms: C_1  and  C_2
REMARK    2  A    between atoms: C_2  and  S_3
REMARK    3  A    between atoms: C_2  and  C_10
REMARK    4  A    between atoms: S_3  and  C_4
REMARK    5  A    between atoms: N_8  and  C_9
REMARK    6  A    between atoms: C_14  and  N_15
REMARK    7  A    between atoms: C_16  and  C_18
REMARK    8  A    between atoms: C_22  and  N_23
REMARK                            x       y       z     vdW  Elec       q    Type
REMARK                         _______ _______ _______ _____ _____    ______ ____
ROOT
ATOM      1  C   UNL     1       6.242   6.150  17.629  0.00  0.00    +0.000 A 
ATOM      2  C   UNL     1       6.858   5.368  18.619  0.00  0.00    +0.000 A 
ATOM      3  C   UNL     1       7.948   5.848  19.337  0.00  0.00    +0.000 A 
ATOM      4  C   UNL     1       8.468   7.108  19.057  0.00  0.00    +0.000 A 
ATOM      5  C   UNL     1       7.902   7.915  18.067  0.00  0.00    +0.000 A 
ATOM      6  C   UNL     1       6.764   7.446  17.392  0.00  0.00    +0.000 A 
ENDROOT
BRANCH   5   7
ATOM      7  N   UNL     1       8.449   9.176  17.711  0.00  0.00    +0.000 N 
ATOM      8  C   UNL     1       8.948  10.095  18.628  0.00  0.00    +0.000 C 
ATOM      9  O   UNL     1       9.037   9.927  19.840  0.00  0.00    +0.000 OA
ATOM     10  H   UNL     1       8.650   9.328  16.730  0.00  0.00    +0.000 HD
BRANCH   8  11
ATOM     11  C   UNL     1       9.465  11.386  18.102  0.00  0.00    +0.000 A 
ATOM     12  C   UNL     1      10.826  11.435  17.762  0.00  0.00    +0.000 A 
ATOM     13  C   UNL     1      11.411  12.631  17.364  0.00  0.00    +0.000 A 
ATOM     14  C   UNL     1      10.641  13.792  17.326  0.00  0.00    +0.000 A 
ATOM     15  C   UNL     1       9.296  13.774  17.713  0.00  0.00    +0.000 A 
ATOM     16  C   UNL     1       8.693  12.553  18.045  0.00  0.00    +0.000 A 
BRANCH  15  17
ATOM     17  N   UNL     1       8.520  14.932  17.568  0.00  0.00    +0.000 N 
ATOM     18  H   UNL     1       8.956  15.761  17.964  0.00  0.00    +0.000 HD
ATOM     19  H   UNL     1       7.559  14.829  17.876  0.00  0.00    +0.000 HD
ENDBRANCH  15  17
ENDBRANCH   8  11
ENDBRANCH   5   7
BRANCH   1  21
ATOM     20  C   UNL     1       5.025   6.185  15.359  0.00  0.00    +0.000 C 
ATOM     21  C   UNL     1       5.067   5.626  16.792  0.00  0.00    +0.000 C 
BRANCH  21  22
ATOM     22  S   UNL     1       3.486   6.030  17.658  0.00  0.00    +0.000 S 
BRANCH  22  23
ATOM     23  C   UNL     1       2.820   4.467  17.962  0.00  0.00    +0.000 A 
ATOM     24  N   UNL     1       2.680   3.479  17.109  0.00  0.00    +0.000 NA
ATOM     25  N   UNL     1       1.998   2.468  17.752  0.00  0.00    +0.000 NA
ATOM     26  C   UNL     1       1.764   2.866  18.982  0.00  0.00    +0.000 A 
ATOM     27  N   UNL     1       2.299   4.103  19.170  0.00  0.00    +0.000 N 
ATOM     28  C   UNL     1       2.294   4.852  20.397  0.00  0.00    +0.000 C 
ENDBRANCH  22  23
ENDBRANCH  21  22
ENDBRANCH   1  21
TORSDOF 6
ENDMDL
MODEL 5
REMARK VINA RESULT:      -7.9      7.939     10.745
REMARK  Name = 
REMARK  8 active torsions:
REMARK  status: ('A' for Active; 'I' for Inactive)
REMARK    1  A    between atoms: C_1  and  C_2
REMARK    2  A    between atoms: C_2  and  S_3
REMARK    3  A    between atoms: C_2  and  C_10
REMARK    4  A    between atoms: S_3  and  C_4
REMARK    5  A    between atoms: N_8  and  C_9
REMARK    6  A    between atoms: C_14  and  N_15
REMARK    7  A    between atoms: C_16  and  C_18
REMARK    8  A    between atoms: C_22  and  N_23
REMARK                            x       y       z     vdW  Elec       q    Type
REMARK                         _______ _______ _______ _____ _____    ______ ____
ROOT
ATOM      1  C   UNL     1      -0.356  10.820  20.181  0.00  0.00    +0.000 A 
ATOM      2  C   UNL     1      -0.603  11.339  21.462  0.00  0.00    +0.000 A 
ATOM      3  C   UNL     1      -0.279  10.614  22.604  0.00  0.00    +0.000 A 
ATOM      4  C   UNL     1       0.269   9.340  22.490  0.00  0.00    +0.000 A 
ATOM      5  C   UNL     1       0.513   8.773  21.236  0.00  0.00    +0.000 A 
ATOM      6  C   UNL     1       0.241   9.538  20.091  0.00  0.00    +0.000 A 
ENDROOT
BRANCH   5   7
ATOM      7  N   UNL     1       1.008   7.450  21.086  0.00  0.00    +0.000 N 
ATOM      8  C   UNL     1       1.903   7.061  20.096  0.00  0.00    +0.000 C 
ATOM      9  O   UNL     1       2.426   7.800  19.268  0.00  0.00    +0.000 OA
ATOM     10  H   UNL     1       0.837   6.808  21.850  0.00  0.00    +0.000 HD
BRANCH   8  11
ATOM     11  C   UNL     1       2.309   5.631  20.053  0.00  0.00    +0.000 A 
ATOM     12  C   UNL     1       1.434   4.704  20.641  0.00  0.00    +0.000 A 
ATOM     13  C   UNL     1       1.789   3.363  20.736  0.00  0.00    +0.000 A 
ATOM     14  C   UNL     1       3.032   2.947  20.263  0.00  0.00    +0.000 A 
ATOM     15  C   UNL     1       3.938   3.866  19.722  0.00  0.00    +0.000 A 
ATOM     16  C   UNL     1       3.549   5.203  19.563  0.00  0.00    +0.000 A 
BRANCH  15  17
ATOM     17  N   UNL     1       5.137   3.405  19.161  0.00  0.00    +0.000 N 
ATOM     18  H   UNL     1       5.965   3.764  19.630  0.00  0.00    +0.000 HD
ATOM     19  H   UNL     1       5.196   3.518  18.155  0.00  0.00    +0.000 HD
ENDBRANCH  15  17
ENDBRANCH   8  11
ENDBRANCH   5   7
BRANCH   1  21
ATOM     20  C   UNL     1      -0.153  12.998  18.820  0.00  0.00    +0.000 C 
ATOM     21  C   UNL     1      -0.746  11.581  18.905  0.00  0.00    +0.000 C 
BRANCH  21  22
ATOM     22  S   UNL     1      -2.588  11.675  18.803  0.00  0.00    +0.000 S 
BRANCH  22  23
ATOM     23  C   UNL     1      -2.907  11.007  17.244  0.00  0.00    +0.000 A 
ATOM     24  N   UNL     1      -2.115  10.245  16.525  0.00  0.00    +0.000 NA
ATOM     25  N   UNL     1      -2.726  10.045  15.305  0.00  0.00    +0.000 NA
ATOM     26  C   UNL     1      -3.880  10.673  15.331  0.00  0.00    +0.000 A 
ATOM     27  N   UNL     1      -4.053  11.260  16.547  0.00  0.00    +0.000 N 
ATOM     28  C   UNL     1      -5.210  11.996  16.978  0.00  0.00    +0.000 C 
ENDBRANCH  22  23
ENDBRANCH  21  22
ENDBRANCH   1  21
TORSDOF 6
ENDMDL
MODEL 6
REMARK VINA RESULT:      -7.8      3.927      5.210
REMARK  Name = 
REMARK  8 active torsions:
REMARK  status: ('A' for Active; 'I' for Inactive)
REMARK    1  A    between atoms: C_1  and  C_2
REMARK    2  A    between atoms: C_2  and  S_3
REMARK    3  A    between atoms: C_2  and  C_10
REMARK    4  A    between atoms: S_3  and  C_4
REMARK    5  A    between atoms: N_8  and  C_9
REMARK    6  A    between atoms: C_14  and  N_15
REMARK    7  A    between atoms: C_16  and  C_18
REMARK    8  A    between atoms: C_22  and  N_23
REMARK                            x       y       z     vdW  Elec       q    Type
REMARK                         _______ _______ _______ _____ _____    ______ ____
ROOT
ATOM      1  C   UNL     1       4.381   5.114  17.353  0.00  0.00    +0.000 A 
ATOM      2  C   UNL     1       4.857   4.267  16.340  0.00  0.00    +0.000 A 
ATOM      3  C   UNL     1       6.006   4.583  15.622  0.00  0.00    +0.000 A 
ATOM      4  C   UNL     1       6.686   5.770  15.879  0.00  0.00    +0.000 A 
ATOM      5  C   UNL     1       6.238   6.654  16.864  0.00  0.00    +0.000 A 
ATOM      6  C   UNL     1       5.114   6.296  17.625  0.00  0.00    +0.000 A 
ENDROOT
BRANCH   5   7
ATOM      7  N   UNL     1       6.869   7.904  17.104  0.00  0.00    +0.000 N 
ATOM      8  C   UNL     1       7.884   8.097  18.034  0.00  0.00    +0.000 C 
ATOM      9  O   UNL     1       8.407   7.225  18.721  0.00  0.00    +0.000 OA
ATOM     10  H   UNL     1       6.692   8.643  16.435  0.00  0.00    +0.000 HD
BRANCH   8  11
ATOM     11  C   UNL     1       8.428   9.473  18.189  0.00  0.00    +0.000 A 
ATOM     12  C   UNL     1       9.358   9.677  19.221  0.00  0.00    +0.000 A 
ATOM     13  C   UNL     1       9.833  10.953  19.499  0.00  0.00    +0.000 A 
ATOM     14  C   UNL     1       9.361  12.037  18.761  0.00  0.00    +0.000 A 
ATOM     15  C   UNL     1       8.394  11.860  17.765  0.00  0.00    +0.000 A 
ATOM     16  C   UNL     1       7.971  10.564  17.439  0.00  0.00    +0.000 A 
BRANCH  15  17
ATOM     17  N   UNL     1       8.014  12.950  16.970  0.00  0.00    +0.000 N 
ATOM     18  H   UNL     1       8.299  12.859  15.998  0.00  0.00    +0.000 HD
ATOM     19  H   UNL     1       8.271  13.854  17.354  0.00  0.00    +0.000 HD
ENDBRANCH  15  17
ENDBRANCH   8  11
ENDBRANCH   5   7
BRANCH   1  21
ATOM     20  C   UNL     1       1.850   5.539  17.580  0.00  0.00    +0.000 C 
ATOM     21  C   UNL     1       3.091   4.811  18.128  0.00  0.00    +0.000 C 
BRANCH  21  22
ATOM     22  S   UNL     1       3.337   5.260  19.903  0.00  0.00    +0.000 S 
BRANCH  22  23
ATOM     23  C   UNL     1       2.649   3.908  20.726  0.00  0.00    +0.000 A 
ATOM     24  N   UNL     1       1.534   3.879  21.420  0.00  0.00    +0.000 NA
ATOM     25  N   UNL     1       1.436   2.630  21.996  0.00  0.00    +0.000 NA
ATOM     26  C   UNL     1       2.483   1.934  21.616  0.00  0.00    +0.000 A 
ATOM     27  N   UNL     1       3.254   2.686  20.783  0.00  0.00    +0.000 N 
ATOM     28  C   UNL     1       4.456   2.259  20.121  0.00  0.00    +0.000 C 
ENDBRANCH  22  23
ENDBRANCH  21  22
ENDBRANCH   1  21
TORSDOF 6
ENDMDL
MODEL 7
REMARK VINA RESULT:      -7.8      2.761      3.948
REMARK  Name = 
REMARK  8 active torsions:
REMARK  status: ('A' for Active; 'I' for Inactive)
REMARK    1  A    between atoms: C_1  and  C_2
REMARK    2  A    between atoms: C_2  and  S_3
REMARK    3  A    between atoms: C_2  and  C_10
REMARK    4  A    between atoms: S_3  and  C_4
REMARK    5  A    between atoms: N_8  and  C_9
REMARK    6  A    between atoms: C_14  and  N_15
REMARK    7  A    between atoms: C_16  and  C_18
REMARK    8  A    between atoms: C_22  and  N_23
REMARK                            x       y       z     vdW  Elec       q    Type
REMARK                         _______ _______ _______ _____ _____    ______ ____
ROOT
ATOM      1  C   UNL     1       6.271   6.358  17.658  0.00  0.00    +0.000 A 
ATOM      2  C   UNL     1       6.891   5.498  18.578  0.00  0.00    +0.000 A 
ATOM      3  C   UNL     1       8.019   5.899  19.286  0.00  0.00    +0.000 A 
ATOM      4  C   UNL     1       8.571   7.157  19.067  0.00  0.00    +0.000 A 
ATOM      5  C   UNL     1       8.001   8.040  18.146  0.00  0.00    +0.000 A 
ATOM      6  C   UNL     1       6.827   7.650  17.482  0.00  0.00    +0.000 A 
ENDROOT
BRANCH   5   7
ATOM      7  N   UNL     1       8.578   9.304  17.849  0.00  0.00    +0.000 N 
ATOM      8  C   UNL     1       9.020  10.204  18.812  0.00  0.00    +0.000 C 
ATOM      9  O   UNL     1       9.028  10.014  20.024  0.00  0.00    +0.000 OA
ATOM     10  H   UNL     1       8.844   9.471  16.886  0.00  0.00    +0.000 HD
BRANCH   8  11
ATOM     11  C   UNL     1       9.579  11.500  18.344  0.00  0.00    +0.000 A 
ATOM     12  C   UNL     1       8.812  12.650  18.591  0.00  0.00    +0.000 A 
ATOM     13  C   UNL     1       9.212  13.884  18.093  0.00  0.00    +0.000 A 
ATOM     14  C   UNL     1      10.372  13.970  17.325  0.00  0.00    +0.000 A 
ATOM     15  C   UNL     1      11.120  12.827  17.022  0.00  0.00    +0.000 A 
ATOM     16  C   UNL     1      10.752  11.596  17.585  0.00  0.00    +0.000 A 
BRANCH  15  17
ATOM     17  N   UNL     1      12.333  12.957  16.335  0.00  0.00    +0.000 N 
ATOM     18  H   UNL     1      13.016  13.528  16.828  0.00  0.00    +0.000 HD
ATOM     19  H   UNL     1      12.234  13.243  15.366  0.00  0.00    +0.000 HD
ENDBRANCH  15  17
ENDBRANCH   8  11
ENDBRANCH   5   7
BRANCH   1  21
ATOM     20  C   UNL     1       4.802   6.794  15.587  0.00  0.00    +0.000 C 
ATOM     21  C   UNL     1       5.053   5.922  16.830  0.00  0.00    +0.000 C 
BRANCH  21  22
ATOM     22  S   UNL     1       3.555   5.942  17.911  0.00  0.00    +0.000 S 
BRANCH  22  23
ATOM     23  C   UNL     1       3.221   4.261  18.112  0.00  0.00    +0.000 A 
ATOM     24  N   UNL     1       3.734   3.259  17.436  0.00  0.00    +0.000 NA
ATOM     25  N   UNL     1       3.096   2.109  17.850  0.00  0.00    +0.000 NA
ATOM     26  C   UNL     1       2.232   2.446  18.780  0.00  0.00    +0.000 A 
ATOM     27  N   UNL     1       2.305   3.787  19.005  0.00  0.00    +0.000 N 
ATOM     28  C   UNL     1       1.553   4.526  19.983  0.00  0.00    +0.000 C 
ENDBRANCH  22  23
ENDBRANCH  21  22
ENDBRANCH   1  21
TORSDOF 6
ENDMDL
MODEL 8
REMARK VINA RESULT:      -7.7      3.535      4.883
REMARK  Name = 
REMARK  8 active torsions:
REMARK  status: ('A' for Active; 'I' for Inactive)
REMARK    1  A    between atoms: C_1  and  C_2
REMARK    2  A    between atoms: C_2  and  S_3
REMARK    3  A    between atoms: C_2  and  C_10
REMARK    4  A    between atoms: S_3  and  C_4
REMARK    5  A    between atoms: N_8  and  C_9
REMARK    6  A    between atoms: C_14  and  N_15
REMARK    7  A    between atoms: C_16  and  C_18
REMARK    8  A    between atoms: C_22  and  N_23
REMARK                            x       y       z     vdW  Elec       q    Type
REMARK                         _______ _______ _______ _____ _____    ______ ____
ROOT
ATOM      1  C   UNL     1       5.080   5.302  17.183  0.00  0.00    +0.000 A 
ATOM      2  C   UNL     1       5.675   4.475  16.216  0.00  0.00    +0.000 A 
ATOM      3  C   UNL     1       6.866   4.839  15.596  0.00  0.00    +0.000 A 
ATOM      4  C   UNL     1       7.471   6.053  15.905  0.00  0.00    +0.000 A 
ATOM      5  C   UNL     1       6.906   6.919  16.844  0.00  0.00    +0.000 A 
ATOM      6  C   UNL     1       5.738   6.515  17.510  0.00  0.00    +0.000 A 
ENDROOT
BRANCH   5   7
ATOM      7  N   UNL     1       7.462   8.194  17.132  0.00  0.00    +0.000 N 
ATOM      8  C   UNL     1       8.273   8.461  18.229  0.00  0.00    +0.000 C 
ATOM      9  O   UNL     1       8.662   7.639  19.053  0.00  0.00    +0.000 OA
ATOM     10  H   UNL     1       7.410   8.892  16.399  0.00  0.00    +0.000 HD
BRANCH   8  11
ATOM     11  C   UNL     1       8.758   9.856  18.408  0.00  0.00    +0.000 A 
ATOM     12  C   UNL     1       9.573  10.107  19.523  0.00  0.00    +0.000 A 
ATOM     13  C   UNL     1       9.980  11.402  19.820  0.00  0.00    +0.000 A 
ATOM     14  C   UNL     1       9.554  12.457  19.015  0.00  0.00    +0.000 A 
ATOM     15  C   UNL     1       8.698  12.232  17.931  0.00  0.00    +0.000 A 
ATOM     16  C   UNL     1       8.347  10.918  17.593  0.00  0.00    +0.000 A 
BRANCH  15  17
ATOM     17  N   UNL     1       8.368  13.295  17.080  0.00  0.00    +0.000 N 
ATOM     18  H   UNL     1       9.103  13.995  17.006  0.00  0.00    +0.000 HD
ATOM     19  H   UNL     1       7.466  13.717  17.272  0.00  0.00    +0.000 HD
ENDBRANCH  15  17
ENDBRANCH   8  11
ENDBRANCH   5   7
BRANCH   1  21
ATOM     20  C   UNL     1       3.185   6.054  18.756  0.00  0.00    +0.000 C 
ATOM     21  C   UNL     1       3.743   4.945  17.848  0.00  0.00    +0.000 C 
BRANCH  21  22
ATOM     22  S   UNL     1       3.956   3.393  18.827  0.00  0.00    +0.000 S 
BRANCH  22  23
ATOM     23  C   UNL     1       2.330   2.842  19.005  0.00  0.00    +0.000 A 
ATOM     24  N   UNL     1       1.541   2.366  18.070  0.00  0.00    +0.000 NA
ATOM     25  N   UNL     1       0.301   2.163  18.635  0.00  0.00    +0.000 NA
ATOM     26  C   UNL     1       0.381   2.502  19.901  0.00  0.00    +0.000 A 
ATOM     27  N   UNL     1       1.652   2.899  20.188  0.00  0.00    +0.000 N 
ATOM     28  C   UNL     1       2.146   3.297  21.478  0.00  0.00    +0.000 C 
ENDBRANCH  22  23
ENDBRANCH  21  22
ENDBRANCH   1  21
TORSDOF 6
ENDMDL
MODEL 9
REMARK VINA RESULT:      -7.7      4.937      6.823
REMARK  Name = 
REMARK  8 active torsions:
REMARK  status: ('A' for Active; 'I' for Inactive)
REMARK    1  A    between atoms: C_1  and  C_2
REMARK    2  A    between atoms: C_2  and  S_3
REMARK    3  A    between atoms: C_2  and  C_10
REMARK    4  A    between atoms: S_3  and  C_4
REMARK    5  A    between atoms: N_8  and  C_9
REMARK    6  A    between atoms: C_14  and  N_15
REMARK    7  A    between atoms: C_16  and  C_18
REMARK    8  A    between atoms: C_22  and  N_23
REMARK                            x       y       z     vdW  Elec       q    Type
REMARK                         _______ _______ _______ _____ _____    ______ ____
ROOT
ATOM      1  C   UNL     1       5.100   4.723  19.113  0.00  0.00    +0.000 A 
ATOM      2  C   UNL     1       4.674   3.400  19.311  0.00  0.00    +0.000 A 
ATOM      3  C   UNL     1       3.447   3.123  19.906  0.00  0.00    +0.000 A 
ATOM      4  C   UNL     1       2.634   4.162  20.345  0.00  0.00    +0.000 A 
ATOM      5  C   UNL     1       3.024   5.495  20.188  0.00  0.00    +0.000 A 
ATOM      6  C   UNL     1       4.235   5.765  19.531  0.00  0.00    +0.000 A 
ENDROOT
BRANCH   5   7
ATOM      7  N   UNL     1       2.248   6.576  20.687  0.00  0.00    +0.000 N 
ATOM      8  C   UNL     1       1.904   7.696  19.939  0.00  0.00    +0.000 C 
ATOM      9  O   UNL     1       2.165   7.879  18.754  0.00  0.00    +0.000 OA
ATOM     10  H   UNL     1       1.775   6.431  21.570  0.00  0.00    +0.000 HD
BRANCH   8  11
ATOM     11  C   UNL     1       1.107   8.758  20.611  0.00  0.00    +0.000 A 
ATOM     12  C   UNL     1       0.985   8.675  22.006  0.00  0.00    +0.000 A 
ATOM     13  C   UNL     1       0.172   9.565  22.697  0.00  0.00    +0.000 A 
ATOM     14  C   UNL     1      -0.542  10.531  21.990  0.00  0.00    +0.000 A 
ATOM     15  C   UNL     1      -0.475  10.595  20.594  0.00  0.00    +0.000 A 
ATOM     16  C   UNL     1       0.400   9.742  19.908  0.00  0.00    +0.000 A 
BRANCH  15  17
ATOM     17  N   UNL     1      -1.122  11.639  19.919  0.00  0.00    +0.000 N 
ATOM     18  H   UNL     1      -0.736  12.556  20.130  0.00  0.00    +0.000 HD
ATOM     19  H   UNL     1      -2.133  11.627  20.007  0.00  0.00    +0.000 HD
ENDBRANCH  15  17
ENDBRANCH   8  11
ENDBRANCH   5   7
BRANCH   1  21
ATOM     20  C   UNL     1       7.504   5.550  19.526  0.00  0.00    +0.000 C 
ATOM     21  C   UNL     1       6.468   5.055  18.502  0.00  0.00    +0.000 C 
BRANCH  21  22
ATOM     22  S   UNL     1       6.244   6.330  17.184  0.00  0.00    +0.000 S 
BRANCH  22  23
ATOM     23  C   UNL     1       6.514   5.424  15.741  0.00  0.00    +0.000 A 
ATOM     24  N   UNL     1       7.549   5.496  14.936  0.00  0.00    +0.000 NA
ATOM     25  N   UNL     1       7.290   4.683  13.852  0.00  0.00    +0.000 NA
ATOM     26  C   UNL     1       6.115   4.128  14.044  0.00  0.00    +0.000 A 
ATOM     27  N   UNL     1       5.608   4.535  15.241  0.00  0.00    +0.000 N 
ATOM     28  C   UNL     1       4.367   4.108  15.826  0.00  0.00    +0.000 C 
ENDBRANCH  22  23
ENDBRANCH  21  22
ENDBRANCH   1  21
TORSDOF 6
ENDMDL
