MODEL 1
REMARK VINA RESULT:      -9.1      0.000      0.000
REMARK  Name = 
REMARK  7 active torsions:
REMARK  status: ('A' for Active; 'I' for Inactive)
REMARK    1  A    between atoms: C_1  and  C_2
REMARK    2  A    between atoms: C_2  and  C_3
REMARK    3  A    between atoms: C_2  and  C_10
REMARK    4  A    between atoms: C_3  and  C_4
REMARK    5  A    between atoms: N_8  and  C_9
REMARK    6  A    between atoms: C_14  and  N_15
REMARK    7  A    between atoms: C_16  and  C_18
REMARK                            x       y       z     vdW  Elec       q    Type
REMARK                         _______ _______ _______ _____ _____    ______ ____
ROOT
ATOM      1  C   UNL     1       4.399   4.649  16.844  0.00  0.00    +0.000 A 
ATOM      2  C   UNL     1       3.730   3.419  16.899  0.00  0.00    +0.000 A 
ATOM      3  C   UNL     1       2.549   3.290  17.625  0.00  0.00    +0.000 A 
ATOM      4  C   UNL     1       2.015   4.389  18.297  0.00  0.00    +0.000 A 
ATOM      5  C   UNL     1       2.631   5.641  18.236  0.00  0.00    +0.000 A 
ATOM      6  C   UNL     1       3.827   5.755  17.518  0.00  0.00    +0.000 A 
ENDROOT
BRANCH   5   7
ATOM      7  N   UNL     1       2.104   6.798  18.863  0.00  0.00    +0.000 N 
ATOM      8  C   UNL     1       2.101   8.069  18.319  0.00  0.00    +0.000 C 
ATOM      9  O   UNL     1       2.592   8.387  17.238  0.00  0.00    +0.000 OA
ATOM     10  H   UNL     1       1.744   6.720  19.809  0.00  0.00    +0.000 HD
BRANCH   8  11
ATOM     11  C   UNL     1       1.424   9.144  19.103  0.00  0.00    +0.000 A 
ATOM     12  C   UNL     1       0.791   8.751  20.276  0.00  0.00    +0.000 A 
ATOM     13  C   UNL     1       0.241   9.717  21.106  0.00  0.00    +0.000 A 
ATOM     14  C   UNL     1      -0.231   9.371  22.379  0.00  0.00    +0.000 A 
ATOM     15  C   UNL     1      -0.780  10.339  23.212  0.00  0.00    +0.000 A 
ATOM     16  C   UNL     1      -0.929  11.644  22.750  0.00  0.00    +0.000 A 
ATOM     17  C   UNL     1      -0.450  12.003  21.484  0.00  0.00    +0.000 A 
ATOM     18  C   UNL     1       0.201  11.053  20.670  0.00  0.00    +0.000 A 
ATOM     19  C   UNL     1       0.839  11.340  19.449  0.00  0.00    +0.000 A 
ATOM     20  N   UNL     1       1.492  10.431  18.671  0.00  0.00    +0.000 NA
ENDBRANCH   8  11
ENDBRANCH   5   7
BRANCH   1  22
ATOM     21  C   UNL     1       5.934   3.836  14.936  0.00  0.00    +0.000 C 
ATOM     22  C   UNL     1       5.715   4.837  16.087  0.00  0.00    +0.000 C 
BRANCH  22  23
ATOM     23  C   UNL     1       6.888   4.789  17.094  0.00  0.00    +0.000 C 
BRANCH  23  24
ATOM     24  C   UNL     1       7.387   6.139  17.473  0.00  0.00    +0.000 A 
ATOM     25  N   UNL     1       7.406   7.211  16.707  0.00  0.00    +0.000 NA
ATOM     26  N   UNL     1       7.970   8.239  17.422  0.00  0.00    +0.000 NA
ATOM     27  C   UNL     1       8.271   7.777  18.612  0.00  0.00    +0.000 A 
ATOM     28  N   UNL     1       7.911   6.468  18.695  0.00  0.00    +0.000 N 
ATOM     29  C   UNL     1       8.054   5.615  19.843  0.00  0.00    +0.000 C 
ENDBRANCH  23  24
ENDBRANCH  22  23
ENDBRANCH   1  22
TORSDOF 5
ENDMDL
MODEL 2
REMARK VINA RESULT:      -8.7      2.111      3.150
REMARK  Name = 
REMARK  7 active torsions:
REMARK  status: ('A' for Active; 'I' for Inactive)
REMARK    1  A    between atoms: C_1  and  C_2
REMARK    2  A    between atoms: C_2  and  C_3
REMARK    3  A    between atoms: C_2  and  C_10
REMARK    4  A    between atoms: C_3  and  C_4
REMARK    5  A    between atoms: N_8  and  C_9
REMARK    6  A    between atoms: C_14  and  N_15
REMARK    7  A    between atoms: C_16  and  C_18
REMARK                            x       y       z     vdW  Elec       q    Type
REMARK                         _______ _______ _______ _____ _____    ______ ____
ROOT
ATOM      1  C   UNL     1       4.654   5.158  17.557  0.00  0.00    +0.000 A 
ATOM      2  C   UNL     1       4.429   3.802  17.827  0.00  0.00    +0.000 A 
ATOM      3  C   UNL     1       3.583   3.418  18.863  0.00  0.00    +0.000 A 
ATOM      4  C   UNL     1       2.942   4.384  19.639  0.00  0.00    +0.000 A 
ATOM      5  C   UNL     1       3.110   5.746  19.380  0.00  0.00    +0.000 A 
ATOM      6  C   UNL     1       3.977   6.120  18.347  0.00  0.00    +0.000 A 
ENDROOT
BRANCH   5   7
ATOM      7  N   UNL     1       2.446   6.764  20.110  0.00  0.00    +0.000 N 
ATOM      8  C   UNL     1       1.903   7.911  19.564  0.00  0.00    +0.000 C 
ATOM      9  O   UNL     1       1.954   8.235  18.379  0.00  0.00    +0.000 OA
ATOM     10  H   UNL     1       2.403   6.690  21.122  0.00  0.00    +0.000 HD
BRANCH   8  11
ATOM     11  C   UNL     1       1.171   8.826  20.489  0.00  0.00    +0.000 A 
ATOM     12  C   UNL     1       0.438   9.849  19.899  0.00  0.00    +0.000 A 
ATOM     13  C   UNL     1      -0.354  10.662  20.697  0.00  0.00    +0.000 A 
ATOM     14  C   UNL     1      -1.246  11.572  20.114  0.00  0.00    +0.000 A 
ATOM     15  C   UNL     1      -2.041  12.386  20.913  0.00  0.00    +0.000 A 
ATOM     16  C   UNL     1      -1.896  12.350  22.297  0.00  0.00    +0.000 A 
ATOM     17  C   UNL     1      -1.016  11.436  22.890  0.00  0.00    +0.000 A 
ATOM     18  C   UNL     1      -0.278  10.534  22.095  0.00  0.00    +0.000 A 
ATOM     19  C   UNL     1       0.523   9.490  22.593  0.00  0.00    +0.000 A 
ATOM     20  N   UNL     1       1.217   8.599  21.829  0.00  0.00    +0.000 NA
ENDBRANCH   8  11
ENDBRANCH   5   7
BRANCH   1  22
ATOM     21  C   UNL     1       4.991   6.695  15.512  0.00  0.00    +0.000 C 
ATOM     22  C   UNL     1       5.598   5.633  16.451  0.00  0.00    +0.000 C 
BRANCH  22  23
ATOM     23  C   UNL     1       6.098   4.407  15.652  0.00  0.00    +0.000 C 
BRANCH  23  24
ATOM     24  C   UNL     1       6.905   4.779  14.458  0.00  0.00    +0.000 A 
ATOM     25  N   UNL     1       7.970   5.553  14.442  0.00  0.00    +0.000 NA
ATOM     26  N   UNL     1       8.399   5.667  13.142  0.00  0.00    +0.000 NA
ATOM     27  C   UNL     1       7.594   4.951  12.395  0.00  0.00    +0.000 A 
ATOM     28  N   UNL     1       6.649   4.364  13.177  0.00  0.00    +0.000 N 
ATOM     29  C   UNL     1       5.602   3.484  12.737  0.00  0.00    +0.000 C 
ENDBRANCH  23  24
ENDBRANCH  22  23
ENDBRANCH   1  22
TORSDOF 5
ENDMDL
MODEL 3
REMARK VINA RESULT:      -8.5      5.183      7.844
REMARK  Name = 
REMARK  7 active torsions:
REMARK  status: ('A' for Active; 'I' for Inactive)
REMARK    1  A    between atoms: C_1  and  C_2
REMARK    2  A    between atoms: C_2  and  C_3
REMARK    3  A    between atoms: C_2  and  C_10
REMARK    4  A    between atoms: C_3  and  C_4
REMARK    5  A    between atoms: N_8  and  C_9
REMARK    6  A    between atoms: C_14  and  N_15
REMARK    7  A    between atoms: C_16  and  C_18
REMARK                            x       y       z     vdW  Elec       q    Type
REMARK                         _______ _______ _______ _____ _____    ______ ____
ROOT
ATOM      1  C   UNL     1       6.439   6.176  17.363  0.00  0.00    +0.000 A 
ATOM      2  C   UNL     1       6.888   5.428  18.460  0.00  0.00    +0.000 A 
ATOM      3  C   UNL     1       7.888   5.923  19.291  0.00  0.00    +0.000 A 
ATOM      4  C   UNL     1       8.446   7.177  19.045  0.00  0.00    +0.000 A 
ATOM      5  C   UNL     1       8.002   7.970  17.985  0.00  0.00    +0.000 A 
ATOM      6  C   UNL     1       7.008   7.454  17.145  0.00  0.00    +0.000 A 
ENDROOT
BRANCH   5   7
ATOM      7  N   UNL     1       8.506   9.269  17.721  0.00  0.00    +0.000 N 
ATOM      8  C   UNL     1       8.999  10.141  18.673  0.00  0.00    +0.000 C 
ATOM      9  O   UNL     1       9.033   9.936  19.885  0.00  0.00    +0.000 OA
ATOM     10  H   UNL     1       8.459   9.627  16.773  0.00  0.00    +0.000 HD
BRANCH   8  11
ATOM     11  C   UNL     1       9.560  11.436  18.185  0.00  0.00    +0.000 A 
ATOM     12  C   UNL     1       8.732  12.548  18.287  0.00  0.00    +0.000 A 
ATOM     13  C   UNL     1       9.234  13.799  17.956  0.00  0.00    +0.000 A 
ATOM     14  C   UNL     1       8.489  14.954  18.230  0.00  0.00    +0.000 A 
ATOM     15  C   UNL     1       8.992  16.208  17.900  0.00  0.00    +0.000 A 
ATOM     16  C   UNL     1      10.207  16.310  17.227  0.00  0.00    +0.000 A 
ATOM     17  C   UNL     1      10.964  15.162  16.961  0.00  0.00    +0.000 A 
ATOM     18  C   UNL     1      10.512  13.894  17.380  0.00  0.00    +0.000 A 
ATOM     19  C   UNL     1      11.255  12.702  17.287  0.00  0.00    +0.000 A 
ATOM     20  N   UNL     1      10.834  11.478  17.715  0.00  0.00    +0.000 NA
ENDBRANCH   8  11
ENDBRANCH   5   7
BRANCH   1  22
ATOM     21  C   UNL     1       4.007   5.367  17.065  0.00  0.00    +0.000 C 
ATOM     22  C   UNL     1       5.366   5.664  16.400  0.00  0.00    +0.000 C 
BRANCH  22  23
ATOM     23  C   UNL     1       5.905   4.419  15.658  0.00  0.00    +0.000 C 
BRANCH  23  24
ATOM     24  C   UNL     1       6.773   4.761  14.498  0.00  0.00    +0.000 A 
ATOM     25  N   UNL     1       7.840   5.534  14.520  0.00  0.00    +0.000 NA
ATOM     26  N   UNL     1       8.335   5.616  13.241  0.00  0.00    +0.000 NA
ATOM     27  C   UNL     1       7.567   4.884  12.470  0.00  0.00    +0.000 A 
ATOM     28  N   UNL     1       6.582   4.317  13.216  0.00  0.00    +0.000 N 
ATOM     29  C   UNL     1       5.557   3.429  12.743  0.00  0.00    +0.000 C 
ENDBRANCH  23  24
ENDBRANCH  22  23
ENDBRANCH   1  22
TORSDOF 5
ENDMDL
MODEL 4
REMARK VINA RESULT:      -8.4      3.846      9.921
REMARK  Name = 
REMARK  7 active torsions:
REMARK  status: ('A' for Active; 'I' for Inactive)
REMARK    1  A    between atoms: C_1  and  C_2
REMARK    2  A    between atoms: C_2  and  C_3
REMARK    3  A    between atoms: C_2  and  C_10
REMARK    4  A    between atoms: C_3  and  C_4
REMARK    5  A    between atoms: N_8  and  C_9
REMARK    6  A    between atoms: C_14  and  N_15
REMARK    7  A    between atoms: C_16  and  C_18
REMARK                            x       y       z     vdW  Elec       q    Type
REMARK                         _______ _______ _______ _____ _____    ______ ____
ROOT
ATOM      1  C   UNL     1      -1.799  10.832  17.921  0.00  0.00    +0.000 A 
ATOM      2  C   UNL     1      -1.448  12.095  18.414  0.00  0.00    +0.000 A 
ATOM      3  C   UNL     1      -0.151  12.348  18.851  0.00  0.00    +0.000 A 
ATOM      4  C   UNL     1       0.816  11.345  18.793  0.00  0.00    +0.000 A 
ATOM      5  C   UNL     1       0.518  10.083  18.275  0.00  0.00    +0.000 A 
ATOM      6  C   UNL     1      -0.794   9.835  17.854  0.00  0.00    +0.000 A 
ENDROOT
BRANCH   5   7
ATOM      7  N   UNL     1       1.476   9.046  18.152  0.00  0.00    +0.000 N 
ATOM      8  C   UNL     1       1.861   8.192  19.168  0.00  0.00    +0.000 C 
ATOM      9  O   UNL     1       1.462   8.235  20.331  0.00  0.00    +0.000 OA
ATOM     10  H   UNL     1       1.971   8.940  17.272  0.00  0.00    +0.000 HD
BRANCH   8  11
ATOM     11  C   UNL     1       2.828   7.110  18.819  0.00  0.00    +0.000 A 
ATOM     12  C   UNL     1       3.424   7.192  17.565  0.00  0.00    +0.000 A 
ATOM     13  C   UNL     1       4.414   6.281  17.225  0.00  0.00    +0.000 A 
ATOM     14  C   UNL     1       5.162   6.455  16.053  0.00  0.00    +0.000 A 
ATOM     15  C   UNL     1       6.156   5.544  15.712  0.00  0.00    +0.000 A 
ATOM     16  C   UNL     1       6.357   4.414  16.501  0.00  0.00    +0.000 A 
ATOM     17  C   UNL     1       5.623   4.238  17.681  0.00  0.00    +0.000 A 
ATOM     18  C   UNL     1       4.683   5.206  18.090  0.00  0.00    +0.000 A 
ATOM     19  C   UNL     1       3.999   5.195  19.319  0.00  0.00    +0.000 A 
ATOM     20  N   UNL     1       3.109   6.143  19.732  0.00  0.00    +0.000 NA
ENDBRANCH   8  11
ENDBRANCH   5   7
BRANCH   1  22
ATOM     21  C   UNL     1      -3.301   9.960  16.013  0.00  0.00    +0.000 C 
ATOM     22  C   UNL     1      -3.217  10.492  17.458  0.00  0.00    +0.000 C 
BRANCH  22  23
ATOM     23  C   UNL     1      -4.120  11.733  17.646  0.00  0.00    +0.000 C 
BRANCH  23  24
ATOM     24  C   UNL     1      -5.251  11.495  18.585  0.00  0.00    +0.000 A 
ATOM     25  N   UNL     1      -6.302  10.731  18.367  0.00  0.00    +0.000 NA
ATOM     26  N   UNL     1      -7.121  10.805  19.468  0.00  0.00    +0.000 NA
ATOM     27  C   UNL     1      -6.546  11.602  20.337  0.00  0.00    +0.000 A 
ATOM     28  N   UNL     1      -5.365  12.048  19.833  0.00  0.00    +0.000 N 
ATOM     29  C   UNL     1      -4.431  12.919  20.491  0.00  0.00    +0.000 C 
ENDBRANCH  23  24
ENDBRANCH  22  23
ENDBRANCH   1  22
TORSDOF 5
ENDMDL
MODEL 5
REMARK VINA RESULT:      -8.3      1.953      2.982
REMARK  Name = 
REMARK  7 active torsions:
REMARK  status: ('A' for Active; 'I' for Inactive)
REMARK    1  A    between atoms: C_1  and  C_2
REMARK    2  A    between atoms: C_2  and  C_3
REMARK    3  A    between atoms: C_2  and  C_10
REMARK    4  A    between atoms: C_3  and  C_4
REMARK    5  A    between atoms: N_8  and  C_9
REMARK    6  A    between atoms: C_14  and  N_15
REMARK    7  A    between atoms: C_16  and  C_18
REMARK                            x       y       z     vdW  Elec       q    Type
REMARK                         _______ _______ _______ _____ _____    ______ ____
ROOT
ATOM      1  C   UNL     1       4.813   4.454  17.064  0.00  0.00    +0.000 A 
ATOM      2  C   UNL     1       4.055   3.292  16.872  0.00  0.00    +0.000 A 
ATOM      3  C   UNL     1       2.744   3.219  17.333  0.00  0.00    +0.000 A 
ATOM      4  C   UNL     1       2.169   4.309  17.986  0.00  0.00    +0.000 A 
ATOM      5  C   UNL     1       2.877   5.499  18.165  0.00  0.00    +0.000 A 
ATOM      6  C   UNL     1       4.200   5.555  17.712  0.00  0.00    +0.000 A 
ENDROOT
BRANCH   5   7
ATOM      7  N   UNL     1       2.322   6.649  18.780  0.00  0.00    +0.000 N 
ATOM      8  C   UNL     1       2.265   7.908  18.213  0.00  0.00    +0.000 C 
ATOM      9  O   UNL     1       2.724   8.221  17.116  0.00  0.00    +0.000 OA
ATOM     10  H   UNL     1       1.982   6.577  19.734  0.00  0.00    +0.000 HD
BRANCH   8  11
ATOM     11  C   UNL     1       1.566   8.975  18.989  0.00  0.00    +0.000 A 
ATOM     12  C   UNL     1       1.001   8.591  20.200  0.00  0.00    +0.000 A 
ATOM     13  C   UNL     1       0.436   9.557  21.020  0.00  0.00    +0.000 A 
ATOM     14  C   UNL     1       0.034   9.231  22.322  0.00  0.00    +0.000 A 
ATOM     15  C   UNL     1      -0.530  10.199  23.146  0.00  0.00    +0.000 A 
ATOM     16  C   UNL     1      -0.764  11.479  22.648  0.00  0.00    +0.000 A 
ATOM     17  C   UNL     1      -0.355  11.817  21.352  0.00  0.00    +0.000 A 
ATOM     18  C   UNL     1       0.310  10.873  20.543  0.00  0.00    +0.000 A 
ATOM     19  C   UNL     1       0.883  11.149  19.288  0.00  0.00    +0.000 A 
ATOM     20  N   UNL     1       1.550  10.247  18.512  0.00  0.00    +0.000 NA
ENDBRANCH   8  11
ENDBRANCH   5   7
BRANCH   1  22
ATOM     21  C   UNL     1       7.237   5.078  17.693  0.00  0.00    +0.000 C 
ATOM     22  C   UNL     1       6.267   4.576  16.605  0.00  0.00    +0.000 C 
BRANCH  22  23
ATOM     23  C   UNL     1       6.327   5.478  15.350  0.00  0.00    +0.000 C 
BRANCH  23  24
ATOM     24  C   UNL     1       6.324   4.707  14.077  0.00  0.00    +0.000 A 
ATOM     25  N   UNL     1       5.426   3.819  13.701  0.00  0.00    +0.000 NA
ATOM     26  N   UNL     1       5.804   3.318  12.479  0.00  0.00    +0.000 NA
ATOM     27  C   UNL     1       6.916   3.919  12.130  0.00  0.00    +0.000 A 
ATOM     28  N   UNL     1       7.274   4.809  13.095  0.00  0.00    +0.000 N 
ATOM     29  C   UNL     1       8.418   5.678  13.072  0.00  0.00    +0.000 C 
ENDBRANCH  23  24
ENDBRANCH  22  23
ENDBRANCH   1  22
TORSDOF 5
ENDMDL
MODEL 6
REMARK VINA RESULT:      -8.3      1.192      1.938
REMARK  Name = 
REMARK  7 active torsions:
REMARK  status: ('A' for Active; 'I' for Inactive)
REMARK    1  A    between atoms: C_1  and  C_2
REMARK    2  A    between atoms: C_2  and  C_3
REMARK    3  A    between atoms: C_2  and  C_10
REMARK    4  A    between atoms: C_3  and  C_4
REMARK    5  A    between atoms: N_8  and  C_9
REMARK    6  A    between atoms: C_14  and  N_15
REMARK    7  A    between atoms: C_16  and  C_18
REMARK                            x       y       z     vdW  Elec       q    Type
REMARK                         _______ _______ _______ _____ _____    ______ ____
ROOT
ATOM      1  C   UNL     1       4.663   4.692  16.760  0.00  0.00    +0.000 A 
ATOM      2  C   UNL     1       4.394   3.337  16.995  0.00  0.00    +0.000 A 
ATOM      3  C   UNL     1       3.556   2.954  18.037  0.00  0.00    +0.000 A 
ATOM      4  C   UNL     1       2.966   3.919  18.854  0.00  0.00    +0.000 A 
ATOM      5  C   UNL     1       3.179   5.281  18.631  0.00  0.00    +0.000 A 
ATOM      6  C   UNL     1       4.038   5.654  17.590  0.00  0.00    +0.000 A 
ENDROOT
BRANCH   5   7
ATOM      7  N   UNL     1       2.567   6.300  19.403  0.00  0.00    +0.000 N 
ATOM      8  C   UNL     1       2.284   7.577  18.957  0.00  0.00    +0.000 C 
ATOM      9  O   UNL     1       2.558   8.026  17.846  0.00  0.00    +0.000 OA
ATOM     10  H   UNL     1       2.362   6.116  20.380  0.00  0.00    +0.000 HD
BRANCH   8  11
ATOM     11  C   UNL     1       1.562   8.483  19.898  0.00  0.00    +0.000 A 
ATOM     12  C   UNL     1       0.822   9.511  19.325  0.00  0.00    +0.000 A 
ATOM     13  C   UNL     1       0.039  10.317  20.138  0.00  0.00    +0.000 A 
ATOM     14  C   UNL     1      -0.860  11.232  19.572  0.00  0.00    +0.000 A 
ATOM     15  C   UNL     1      -1.647  12.039  20.387  0.00  0.00    +0.000 A 
ATOM     16  C   UNL     1      -1.487  11.990  21.769  0.00  0.00    +0.000 A 
ATOM     17  C   UNL     1      -0.600  11.071  22.345  0.00  0.00    +0.000 A 
ATOM     18  C   UNL     1       0.129  10.177  21.534  0.00  0.00    +0.000 A 
ATOM     19  C   UNL     1       0.936   9.129  22.014  0.00  0.00    +0.000 A 
ATOM     20  N   UNL     1       1.622   8.245  21.235  0.00  0.00    +0.000 NA
ENDBRANCH   8  11
ENDBRANCH   5   7
BRANCH   1  22
ATOM     21  C   UNL     1       5.244   4.631  14.246  0.00  0.00    +0.000 C 
ATOM     22  C   UNL     1       5.601   5.165  15.648  0.00  0.00    +0.000 C 
BRANCH  22  23
ATOM     23  C   UNL     1       7.056   4.801  16.026  0.00  0.00    +0.000 C 
BRANCH  23  24
ATOM     24  C   UNL     1       7.412   5.191  17.417  0.00  0.00    +0.000 A 
ATOM     25  N   UNL     1       7.638   4.374  18.426  0.00  0.00    +0.000 NA
ATOM     26  N   UNL     1       7.905   5.131  19.540  0.00  0.00    +0.000 NA
ATOM     27  C   UNL     1       7.849   6.393  19.185  0.00  0.00    +0.000 A 
ATOM     28  N   UNL     1       7.557   6.479  17.860  0.00  0.00    +0.000 N 
ATOM     29  C   UNL     1       7.431   7.686  17.091  0.00  0.00    +0.000 C 
ENDBRANCH  23  24
ENDBRANCH  22  23
ENDBRANCH   1  22
TORSDOF 5
ENDMDL
MODEL 7
REMARK VINA RESULT:      -8.3      0.933      1.401
REMARK  Name = 
REMARK  7 active torsions:
REMARK  status: ('A' for Active; 'I' for Inactive)
REMARK    1  A    between atoms: C_1  and  C_2
REMARK    2  A    between atoms: C_2  and  C_3
REMARK    3  A    between atoms: C_2  and  C_10
REMARK    4  A    between atoms: C_3  and  C_4
REMARK    5  A    between atoms: N_8  and  C_9
REMARK    6  A    between atoms: C_14  and  N_15
REMARK    7  A    between atoms: C_16  and  C_18
REMARK                            x       y       z     vdW  Elec       q    Type
REMARK                         _______ _______ _______ _____ _____    ______ ____
ROOT
ATOM      1  C   UNL     1       4.567   5.469  16.782  0.00  0.00    +0.000 A 
ATOM      2  C   UNL     1       4.033   4.192  16.999  0.00  0.00    +0.000 A 
ATOM      3  C   UNL     1       2.983   4.009  17.894  0.00  0.00    +0.000 A 
ATOM      4  C   UNL     1       2.447   5.099  18.578  0.00  0.00    +0.000 A 
ATOM      5  C   UNL     1       2.926   6.393  18.364  0.00  0.00    +0.000 A 
ATOM      6  C   UNL     1       3.993   6.564  17.474  0.00  0.00    +0.000 A 
ENDROOT
BRANCH   5   7
ATOM      7  N   UNL     1       2.384   7.538  18.999  0.00  0.00    +0.000 N 
ATOM      8  C   UNL     1       1.901   8.658  18.349  0.00  0.00    +0.000 C 
ATOM      9  O   UNL     1       1.912   8.842  17.133  0.00  0.00    +0.000 OA
ATOM     10  H   UNL     1       2.390   7.583  20.014  0.00  0.00    +0.000 HD
BRANCH   8  11
ATOM     11  C   UNL     1       1.295   9.729  19.194  0.00  0.00    +0.000 A 
ATOM     12  C   UNL     1       0.500   9.306  20.254  0.00  0.00    +0.000 A 
ATOM     13  C   UNL     1       0.000  10.247  21.143  0.00  0.00    +0.000 A 
ATOM     14  C   UNL     1      -0.639   9.837  22.321  0.00  0.00    +0.000 A 
ATOM     15  C   UNL     1      -1.139  10.779  23.213  0.00  0.00    +0.000 A 
ATOM     16  C   UNL     1      -1.069  12.134  22.898  0.00  0.00    +0.000 A 
ATOM     17  C   UNL     1      -0.422  12.554  21.730  0.00  0.00    +0.000 A 
ATOM     18  C   UNL     1       0.178  11.614  20.866  0.00  0.00    +0.000 A 
ATOM     19  C   UNL     1       0.968  11.936  19.747  0.00  0.00    +0.000 A 
ATOM     20  N   UNL     1       1.572  11.032  18.925  0.00  0.00    +0.000 NA
ENDBRANCH   8  11
ENDBRANCH   5   7
BRANCH   1  22
ATOM     21  C   UNL     1       5.442   5.402  14.355  0.00  0.00    +0.000 C 
ATOM     22  C   UNL     1       5.741   5.722  15.833  0.00  0.00    +0.000 C 
BRANCH  22  23
ATOM     23  C   UNL     1       6.973   4.932  16.333  0.00  0.00    +0.000 C 
BRANCH  23  24
ATOM     24  C   UNL     1       7.397   5.320  17.706  0.00  0.00    +0.000 A 
ATOM     25  N   UNL     1       7.508   4.520  18.747  0.00  0.00    +0.000 NA
ATOM     26  N   UNL     1       7.897   5.274  19.827  0.00  0.00    +0.000 NA
ATOM     27  C   UNL     1       8.027   6.515  19.420  0.00  0.00    +0.000 A 
ATOM     28  N   UNL     1       7.737   6.590  18.094  0.00  0.00    +0.000 N 
ATOM     29  C   UNL     1       7.786   7.769  17.275  0.00  0.00    +0.000 C 
ENDBRANCH  23  24
ENDBRANCH  22  23
ENDBRANCH   1  22
TORSDOF 5
ENDMDL
MODEL 8
REMARK VINA RESULT:      -8.3      3.743      9.954
REMARK  Name = 
REMARK  7 active torsions:
REMARK  status: ('A' for Active; 'I' for Inactive)
REMARK    1  A    between atoms: C_1  and  C_2
REMARK    2  A    between atoms: C_2  and  C_3
REMARK    3  A    between atoms: C_2  and  C_10
REMARK    4  A    between atoms: C_3  and  C_4
REMARK    5  A    between atoms: N_8  and  C_9
REMARK    6  A    between atoms: C_14  and  N_15
REMARK    7  A    between atoms: C_16  and  C_18
REMARK                            x       y       z     vdW  Elec       q    Type
REMARK                         _______ _______ _______ _____ _____    ______ ____
ROOT
ATOM      1  C   UNL     1      -1.611  10.965  18.236  0.00  0.00    +0.000 A 
ATOM      2  C   UNL     1      -1.169  12.237  18.625  0.00  0.00    +0.000 A 
ATOM      3  C   UNL     1       0.175  12.462  18.904  0.00  0.00    +0.000 A 
ATOM      4  C   UNL     1       1.099  11.423  18.790  0.00  0.00    +0.000 A 
ATOM      5  C   UNL     1       0.706  10.151  18.370  0.00  0.00    +0.000 A 
ATOM      6  C   UNL     1      -0.652   9.931  18.108  0.00  0.00    +0.000 A 
ENDROOT
BRANCH   5   7
ATOM      7  N   UNL     1       1.612   9.075  18.194  0.00  0.00    +0.000 N 
ATOM      8  C   UNL     1       1.970   8.166  19.172  0.00  0.00    +0.000 C 
ATOM      9  O   UNL     1       1.589   8.183  20.340  0.00  0.00    +0.000 OA
ATOM     10  H   UNL     1       2.090   8.980  17.303  0.00  0.00    +0.000 HD
BRANCH   8  11
ATOM     11  C   UNL     1       2.880   7.054  18.767  0.00  0.00    +0.000 A 
ATOM     12  C   UNL     1       3.474   7.163  17.515  0.00  0.00    +0.000 A 
ATOM     13  C   UNL     1       4.415   6.220  17.128  0.00  0.00    +0.000 A 
ATOM     14  C   UNL     1       5.167   6.410  15.960  0.00  0.00    +0.000 A 
ATOM     15  C   UNL     1       6.112   5.467  15.572  0.00  0.00    +0.000 A 
ATOM     16  C   UNL     1       6.259   4.293  16.307  0.00  0.00    +0.000 A 
ATOM     17  C   UNL     1       5.522   4.100  17.482  0.00  0.00    +0.000 A 
ATOM     18  C   UNL     1       4.634   5.095  17.941  0.00  0.00    +0.000 A 
ATOM     19  C   UNL     1       3.954   5.062  19.173  0.00  0.00    +0.000 A 
ATOM     20  N   UNL     1       3.115   6.033  19.633  0.00  0.00    +0.000 NA
ENDBRANCH   8  11
ENDBRANCH   5   7
BRANCH   1  22
ATOM     21  C   UNL     1      -3.330   9.961  16.594  0.00  0.00    +0.000 C 
ATOM     22  C   UNL     1      -3.082  10.657  17.947  0.00  0.00    +0.000 C 
BRANCH  22  23
ATOM     23  C   UNL     1      -3.904  11.962  18.059  0.00  0.00    +0.000 C 
BRANCH  23  24
ATOM     24  C   UNL     1      -4.746  12.018  19.286  0.00  0.00    +0.000 A 
ATOM     25  N   UNL     1      -4.398  12.522  20.452  0.00  0.00    +0.000 NA
ATOM     26  N   UNL     1      -5.447  12.351  21.323  0.00  0.00    +0.000 NA
ATOM     27  C   UNL     1      -6.415  11.757  20.666  0.00  0.00    +0.000 A 
ATOM     28  N   UNL     1      -6.026  11.541  19.382  0.00  0.00    +0.000 N 
ATOM     29  C   UNL     1      -6.813  10.936  18.343  0.00  0.00    +0.000 C 
ENDBRANCH  23  24
ENDBRANCH  22  23
ENDBRANCH   1  22
TORSDOF 5
ENDMDL
MODEL 9
REMARK VINA RESULT:      -8.3      1.878      3.052
REMARK  Name = 
REMARK  7 active torsions:
REMARK  status: ('A' for Active; 'I' for Inactive)
REMARK    1  A    between atoms: C_1  and  C_2
REMARK    2  A    between atoms: C_2  and  C_3
REMARK    3  A    between atoms: C_2  and  C_10
REMARK    4  A    between atoms: C_3  and  C_4
REMARK    5  A    between atoms: N_8  and  C_9
REMARK    6  A    between atoms: C_14  and  N_15
REMARK    7  A    between atoms: C_16  and  C_18
REMARK                            x       y       z     vdW  Elec       q    Type
REMARK                         _______ _______ _______ _____ _____    ______ ____
ROOT
ATOM      1  C   UNL     1       4.189   4.663  19.089  0.00  0.00    +0.000 A 
ATOM      2  C   UNL     1       3.550   3.417  19.062  0.00  0.00    +0.000 A 
ATOM      3  C   UNL     1       2.311   3.245  19.672  0.00  0.00    +0.000 A 
ATOM      4  C   UNL     1       1.689   4.318  20.310  0.00  0.00    +0.000 A 
ATOM      5  C   UNL     1       2.275   5.586  20.328  0.00  0.00    +0.000 A 
ATOM      6  C   UNL     1       3.529   5.743  19.726  0.00  0.00    +0.000 A 
ENDROOT
BRANCH   5   7
ATOM      7  N   UNL     1       1.663   6.718  20.923  0.00  0.00    +0.000 N 
ATOM      8  C   UNL     1       1.492   7.945  20.312  0.00  0.00    +0.000 C 
ATOM      9  O   UNL     1       1.882   8.246  19.185  0.00  0.00    +0.000 OA
ATOM     10  H   UNL     1       1.368   6.660  21.893  0.00  0.00    +0.000 HD
BRANCH   8  11
ATOM     11  C   UNL     1       0.749   8.990  21.077  0.00  0.00    +0.000 A 
ATOM     12  C   UNL     1       0.243  10.055  20.341  0.00  0.00    +0.000 A 
ATOM     13  C   UNL     1      -0.553  10.999  20.975  0.00  0.00    +0.000 A 
ATOM     14  C   UNL     1      -1.230  11.970  20.226  0.00  0.00    +0.000 A 
ATOM     15  C   UNL     1      -2.029  12.916  20.860  0.00  0.00    +0.000 A 
ATOM     16  C   UNL     1      -2.096  12.942  22.251  0.00  0.00    +0.000 A 
ATOM     17  C   UNL     1      -1.432  11.968  23.007  0.00  0.00    +0.000 A 
ATOM     18  C   UNL     1      -0.701  10.943  22.371  0.00  0.00    +0.000 A 
ATOM     19  C   UNL     1      -0.118   9.844  23.028  0.00  0.00    +0.000 A 
ATOM     20  N   UNL     1       0.567   8.836  22.415  0.00  0.00    +0.000 NA
ENDBRANCH   8  11
ENDBRANCH   5   7
BRANCH   1  22
ATOM     21  C   UNL     1       6.652   5.337  19.462  0.00  0.00    +0.000 C 
ATOM     22  C   UNL     1       5.565   4.898  18.461  0.00  0.00    +0.000 C 
BRANCH  22  23
ATOM     23  C   UNL     1       5.427   5.919  17.308  0.00  0.00    +0.000 C 
BRANCH  23  24
ATOM     24  C   UNL     1       6.238   5.563  16.113  0.00  0.00    +0.000 A 
ATOM     25  N   UNL     1       7.425   6.043  15.800  0.00  0.00    +0.000 NA
ATOM     26  N   UNL     1       7.814   5.481  14.608  0.00  0.00    +0.000 NA
ATOM     27  C   UNL     1       6.863   4.662  14.226  0.00  0.00    +0.000 A 
ATOM     28  N   UNL     1       5.861   4.670  15.145  0.00  0.00    +0.000 N 
ATOM     29  C   UNL     1       4.656   3.889  15.099  0.00  0.00    +0.000 C 
ENDBRANCH  23  24
ENDBRANCH  22  23
ENDBRANCH   1  22
TORSDOF 5
ENDMDL
