MODEL 1
REMARK VINA RESULT:      -9.5      0.000      0.000
REMARK  Name = 
REMARK  8 active torsions:
REMARK  status: ('A' for Active; 'I' for Inactive)
REMARK    1  A    between atoms: C_1  and  C_2
REMARK    2  A    between atoms: C_2  and  C_3
REMARK    3  A    between atoms: C_2  and  C_11
REMARK    4  A    between atoms: C_3  and  C_4
REMARK    5  A    between atoms: C_8  and  C_9
REMARK    6  A    between atoms: C_9  and  O_10
REMARK    7  A    between atoms: C_15  and  N_16
REMARK    8  A    between atoms: C_23  and  C_24
REMARK                            x       y       z     vdW  Elec       q    Type
REMARK                         _______ _______ _______ _____ _____    ______ ____
ROOT
ATOM      1  C   UNL     1       4.646   5.125  18.201  0.00  0.00    +0.000 A 
ATOM      2  C   UNL     1       4.188   3.978  18.854  0.00  0.00    +0.000 A 
ATOM      3  C   UNL     1       3.058   4.026  19.683  0.00  0.00    +0.000 A 
ATOM      4  C   UNL     1       2.343   5.214  19.861  0.00  0.00    +0.000 A 
ATOM      5  C   UNL     1       2.771   6.379  19.236  0.00  0.00    +0.000 A 
ATOM      6  C   UNL     1       3.940   6.314  18.442  0.00  0.00    +0.000 A 
ENDROOT
BRANCH   5   7
ATOM      7  N   UNL     1       2.075   7.614  19.344  0.00  0.00    +0.000 N 
ATOM      8  C   UNL     1       1.427   7.956  20.592  0.00  0.00    +0.000 C 
ATOM      9  C   UNL     1       0.893   9.319  20.366  0.00  0.00    +0.000 A 
ATOM     10  C   UNL     1       1.207   9.735  19.076  0.00  0.00    +0.000 A 
ATOM     11  C   UNL     1       0.838  10.987  18.620  0.00  0.00    +0.000 A 
ATOM     12  C   UNL     1       0.138  11.819  19.502  0.00  0.00    +0.000 A 
ATOM     13  C   UNL     1      -0.179  11.392  20.810  0.00  0.00    +0.000 A 
ATOM     14  C   UNL     1       0.197  10.121  21.265  0.00  0.00    +0.000 A 
ATOM     15  C   UNL     1       1.964   8.648  18.408  0.00  0.00    +0.000 C 
ATOM     16  O   UNL     1       2.379   8.737  17.271  0.00  0.00    +0.000 OA
BRANCH  14  17
ATOM     17  C   UNL     1      -0.132   9.658  22.663  0.00  0.00    +0.000 C 
ATOM     18  F   UNL     1       0.968   9.372  23.419  0.00  0.00    +0.000 F 
ATOM     19  F   UNL     1      -0.827  10.589  23.369  0.00  0.00    +0.000 F 
ATOM     20  F   UNL     1      -0.886   8.528  22.674  0.00  0.00    +0.000 F 
ENDBRANCH  14  17
ENDBRANCH   5   7
BRANCH   1  22
ATOM     21  C   UNL     1       7.190   4.794  17.998  0.00  0.00    +0.000 C 
ATOM     22  C   UNL     1       5.884   5.179  17.291  0.00  0.00    +0.000 C 
BRANCH  22  23
ATOM     23  C   UNL     1       5.705   4.325  15.997  0.00  0.00    +0.000 C 
BRANCH  23  24
ATOM     24  C   UNL     1       6.625   4.700  14.869  0.00  0.00    +0.000 A 
ATOM     25  N   UNL     1       7.624   5.564  15.098  0.00  0.00    +0.000 NA
ATOM     26  O   UNL     1       8.280   5.718  13.893  0.00  0.00    +0.000 OA
ATOM     27  C   UNL     1       7.668   4.970  12.950  0.00  0.00    +0.000 A 
ATOM     28  C   UNL     1       6.598   4.302  13.498  0.00  0.00    +0.000 A 
BRANCH  28  29
ATOM     29  C   UNL     1       5.651   3.414  12.787  0.00  0.00    +0.000 C 
BRANCH  29  30
ATOM     30  O   UNL     1       6.318   2.523  11.905  0.00  0.00    +0.000 OA
ATOM     31  H   UNL     1       5.668   2.252  11.235  0.00  0.00    +0.000 HD
ENDBRANCH  29  30
ENDBRANCH  28  29
ENDBRANCH  23  24
ENDBRANCH  22  23
ENDBRANCH   1  22
TORSDOF 7
ENDMDL
MODEL 2
REMARK VINA RESULT:      -9.5      1.939      2.952
REMARK  Name = 
REMARK  8 active torsions:
REMARK  status: ('A' for Active; 'I' for Inactive)
REMARK    1  A    between atoms: C_1  and  C_2
REMARK    2  A    between atoms: C_2  and  C_3
REMARK    3  A    between atoms: C_2  and  C_11
REMARK    4  A    between atoms: C_3  and  C_4
REMARK    5  A    between atoms: C_8  and  C_9
REMARK    6  A    between atoms: C_9  and  O_10
REMARK    7  A    between atoms: C_15  and  N_16
REMARK    8  A    between atoms: C_23  and  C_24
REMARK                            x       y       z     vdW  Elec       q    Type
REMARK                         _______ _______ _______ _____ _____    ______ ____
ROOT
ATOM      1  C   UNL     1       4.191   4.508  17.755  0.00  0.00    +0.000 A 
ATOM      2  C   UNL     1       4.014   3.540  18.746  0.00  0.00    +0.000 A 
ATOM      3  C   UNL     1       3.264   3.819  19.897  0.00  0.00    +0.000 A 
ATOM      4  C   UNL     1       2.652   5.063  20.077  0.00  0.00    +0.000 A 
ATOM      5  C   UNL     1       2.811   6.056  19.119  0.00  0.00    +0.000 A 
ATOM      6  C   UNL     1       3.611   5.765  17.988  0.00  0.00    +0.000 A 
ENDROOT
BRANCH   5   7
ATOM      7  N   UNL     1       2.191   7.331  19.217  0.00  0.00    +0.000 N 
ATOM      8  C   UNL     1       1.529   7.704  20.449  0.00  0.00    +0.000 C 
ATOM      9  C   UNL     1       1.088   9.100  20.220  0.00  0.00    +0.000 A 
ATOM     10  C   UNL     1       1.464   9.504  18.943  0.00  0.00    +0.000 A 
ATOM     11  C   UNL     1       1.188  10.780  18.488  0.00  0.00    +0.000 A 
ATOM     12  C   UNL     1       0.516  11.648  19.357  0.00  0.00    +0.000 A 
ATOM     13  C   UNL     1       0.134  11.233  20.651  0.00  0.00    +0.000 A 
ATOM     14  C   UNL     1       0.417   9.938  21.106  0.00  0.00    +0.000 A 
ATOM     15  C   UNL     1       2.171   8.377  18.288  0.00  0.00    +0.000 C 
ATOM     16  O   UNL     1       2.625   8.448  17.164  0.00  0.00    +0.000 OA
BRANCH  14  17
ATOM     17  C   UNL     1       0.019   9.486  22.489  0.00  0.00    +0.000 C 
ATOM     18  F   UNL     1      -0.804   8.397  22.495  0.00  0.00    +0.000 F 
ATOM     19  F   UNL     1       1.090   9.135  23.250  0.00  0.00    +0.000 F 
ATOM     20  F   UNL     1      -0.644  10.448  23.182  0.00  0.00    +0.000 F 
ENDBRANCH  14  17
ENDBRANCH   5   7
BRANCH   1  22
ATOM     21  C   UNL     1       4.711   5.341  15.376  0.00  0.00    +0.000 C 
ATOM     22  C   UNL     1       5.011   4.307  16.470  0.00  0.00    +0.000 C 
BRANCH  22  23
ATOM     23  C   UNL     1       6.545   4.255  16.750  0.00  0.00    +0.000 C 
BRANCH  23  24
ATOM     24  C   UNL     1       7.148   5.566  17.172  0.00  0.00    +0.000 A 
ATOM     25  N   UNL     1       7.572   6.425  16.234  0.00  0.00    +0.000 NA
ATOM     26  O   UNL     1       8.076   7.516  16.913  0.00  0.00    +0.000 OA
ATOM     27  C   UNL     1       7.972   7.304  18.242  0.00  0.00    +0.000 A 
ATOM     28  C   UNL     1       7.399   6.076  18.482  0.00  0.00    +0.000 A 
BRANCH  28  29
ATOM     29  C   UNL     1       7.151   5.458  19.804  0.00  0.00    +0.000 C 
BRANCH  29  30
ATOM     30  O   UNL     1       8.329   5.403  20.594  0.00  0.00    +0.000 OA
ATOM     31  H   UNL     1       8.044   5.291  21.517  0.00  0.00    +0.000 HD
ENDBRANCH  29  30
ENDBRANCH  28  29
ENDBRANCH  23  24
ENDBRANCH  22  23
ENDBRANCH   1  22
TORSDOF 7
ENDMDL
MODEL 3
REMARK VINA RESULT:      -9.2      0.730      1.009
REMARK  Name = 
REMARK  8 active torsions:
REMARK  status: ('A' for Active; 'I' for Inactive)
REMARK    1  A    between atoms: C_1  and  C_2
REMARK    2  A    between atoms: C_2  and  C_3
REMARK    3  A    between atoms: C_2  and  C_11
REMARK    4  A    between atoms: C_3  and  C_4
REMARK    5  A    between atoms: C_8  and  C_9
REMARK    6  A    between atoms: C_9  and  O_10
REMARK    7  A    between atoms: C_15  and  N_16
REMARK    8  A    between atoms: C_23  and  C_24
REMARK                            x       y       z     vdW  Elec       q    Type
REMARK                         _______ _______ _______ _____ _____    ______ ____
ROOT
ATOM      1  C   UNL     1       4.368   4.994  17.482  0.00  0.00    +0.000 A 
ATOM      2  C   UNL     1       3.632   3.841  17.768  0.00  0.00    +0.000 A 
ATOM      3  C   UNL     1       2.402   3.921  18.435  0.00  0.00    +0.000 A 
ATOM      4  C   UNL     1       1.863   5.155  18.813  0.00  0.00    +0.000 A 
ATOM      5  C   UNL     1       2.568   6.325  18.556  0.00  0.00    +0.000 A 
ATOM      6  C   UNL     1       3.828   6.213  17.922  0.00  0.00    +0.000 A 
ENDROOT
BRANCH   5   7
ATOM      7  N   UNL     1       2.068   7.614  18.880  0.00  0.00    +0.000 N 
ATOM      8  C   UNL     1       1.501   7.846  20.191  0.00  0.00    +0.000 C 
ATOM      9  C   UNL     1       1.174   9.291  20.199  0.00  0.00    +0.000 A 
ATOM     10  C   UNL     1       1.523   9.855  18.976  0.00  0.00    +0.000 A 
ATOM     11  C   UNL     1       1.338  11.203  18.733  0.00  0.00    +0.000 A 
ATOM     12  C   UNL     1       0.787  11.979  19.761  0.00  0.00    +0.000 A 
ATOM     13  C   UNL     1       0.433  11.402  20.999  0.00  0.00    +0.000 A 
ATOM     14  C   UNL     1       0.622  10.034  21.239  0.00  0.00    +0.000 A 
ATOM     15  C   UNL     1       2.096   8.788  18.119  0.00  0.00    +0.000 C 
ATOM     16  O   UNL     1       2.500   8.995  16.993  0.00  0.00    +0.000 OA
BRANCH  14  17
ATOM     17  C   UNL     1       0.252   9.409  22.561  0.00  0.00    +0.000 C 
ATOM     18  F   UNL     1      -0.540   8.304  22.443  0.00  0.00    +0.000 F 
ATOM     19  F   UNL     1       1.342   9.001  23.266  0.00  0.00    +0.000 F 
ATOM     20  F   UNL     1      -0.429  10.262  23.370  0.00  0.00    +0.000 F 
ENDBRANCH  14  17
ENDBRANCH   5   7
BRANCH   1  22
ATOM     21  C   UNL     1       6.915   4.699  17.704  0.00  0.00    +0.000 C 
ATOM     22  C   UNL     1       5.733   5.010  16.776  0.00  0.00    +0.000 C 
BRANCH  22  23
ATOM     23  C   UNL     1       5.767   4.066  15.533  0.00  0.00    +0.000 C 
BRANCH  23  24
ATOM     24  C   UNL     1       6.650   4.540  14.413  0.00  0.00    +0.000 A 
ATOM     25  N   UNL     1       7.520   5.535  14.640  0.00  0.00    +0.000 NA
ATOM     26  O   UNL     1       8.172   5.753  13.443  0.00  0.00    +0.000 OA
ATOM     27  C   UNL     1       7.684   4.912  12.506  0.00  0.00    +0.000 A 
ATOM     28  C   UNL     1       6.702   4.116  13.050  0.00  0.00    +0.000 A 
BRANCH  28  29
ATOM     29  C   UNL     1       5.897   3.097  12.342  0.00  0.00    +0.000 C 
BRANCH  29  30
ATOM     30  O   UNL     1       4.552   3.515  12.161  0.00  0.00    +0.000 OA
ATOM     31  H   UNL     1       4.556   4.173  11.445  0.00  0.00    +0.000 HD
ENDBRANCH  29  30
ENDBRANCH  28  29
ENDBRANCH  23  24
ENDBRANCH  22  23
ENDBRANCH   1  22
TORSDOF 7
ENDMDL
MODEL 4
REMARK VINA RESULT:      -8.9      4.049      8.752
REMARK  Name = 
REMARK  8 active torsions:
REMARK  status: ('A' for Active; 'I' for Inactive)
REMARK    1  A    between atoms: C_1  and  C_2
REMARK    2  A    between atoms: C_2  and  C_3
REMARK    3  A    between atoms: C_2  and  C_11
REMARK    4  A    between atoms: C_3  and  C_4
REMARK    5  A    between atoms: C_8  and  C_9
REMARK    6  A    between atoms: C_9  and  O_10
REMARK    7  A    between atoms: C_15  and  N_16
REMARK    8  A    between atoms: C_23  and  C_24
REMARK                            x       y       z     vdW  Elec       q    Type
REMARK                         _______ _______ _______ _____ _____    ______ ____
ROOT
ATOM      1  C   UNL     1      -0.380  10.669  20.583  0.00  0.00    +0.000 A 
ATOM      2  C   UNL     1      -0.246  10.851  21.961  0.00  0.00    +0.000 A 
ATOM      3  C   UNL     1       0.508   9.957  22.734  0.00  0.00    +0.000 A 
ATOM      4  C   UNL     1       1.167   8.872  22.147  0.00  0.00    +0.000 A 
ATOM      5  C   UNL     1       1.052   8.650  20.780  0.00  0.00    +0.000 A 
ATOM      6  C   UNL     1       0.248   9.541  20.030  0.00  0.00    +0.000 A 
ENDROOT
BRANCH   5   7
ATOM      7  N   UNL     1       1.720   7.590  20.111  0.00  0.00    +0.000 N 
ATOM      8  C   UNL     1       1.619   6.245  20.635  0.00  0.00    +0.000 C 
ATOM      9  C   UNL     1       2.351   5.413  19.652  0.00  0.00    +0.000 A 
ATOM     10  C   UNL     1       2.846   6.221  18.633  0.00  0.00    +0.000 A 
ATOM     11  C   UNL     1       3.553   5.682  17.574  0.00  0.00    +0.000 A 
ATOM     12  C   UNL     1       3.753   4.296  17.566  0.00  0.00    +0.000 A 
ATOM     13  C   UNL     1       3.251   3.481  18.603  0.00  0.00    +0.000 A 
ATOM     14  C   UNL     1       2.536   4.034  19.673  0.00  0.00    +0.000 A 
ATOM     15  C   UNL     1       2.449   7.622  18.917  0.00  0.00    +0.000 C 
ATOM     16  O   UNL     1       2.736   8.548  18.186  0.00  0.00    +0.000 OA
BRANCH  14  17
ATOM     17  C   UNL     1       1.990   3.170  20.784  0.00  0.00    +0.000 C 
ATOM     18  F   UNL     1       0.639   3.276  20.948  0.00  0.00    +0.000 F 
ATOM     19  F   UNL     1       2.228   1.847  20.578  0.00  0.00    +0.000 F 
ATOM     20  F   UNL     1       2.529   3.472  21.993  0.00  0.00    +0.000 F 
ENDBRANCH  14  17
ENDBRANCH   5   7
BRANCH   1  22
ATOM     21  C   UNL     1      -0.513  12.913  19.330  0.00  0.00    +0.000 C 
ATOM     22  C   UNL     1      -1.200  11.579  19.654  0.00  0.00    +0.000 C 
BRANCH  22  23
ATOM     23  C   UNL     1      -1.615  10.858  18.334  0.00  0.00    +0.000 C 
BRANCH  23  24
ATOM     24  C   UNL     1      -2.972  11.241  17.814  0.00  0.00    +0.000 A 
ATOM     25  N   UNL     1      -3.879  11.752  18.660  0.00  0.00    +0.000 NA
ATOM     26  O   UNL     1      -5.011  11.993  17.907  0.00  0.00    +0.000 OA
ATOM     27  C   UNL     1      -4.790  11.613  16.631  0.00  0.00    +0.000 A 
ATOM     28  C   UNL     1      -3.516  11.113  16.499  0.00  0.00    +0.000 A 
BRANCH  28  29
ATOM     29  C   UNL     1      -2.906  10.557  15.271  0.00  0.00    +0.000 C 
BRANCH  29  30
ATOM     30  O   UNL     1      -3.887  10.126  14.339  0.00  0.00    +0.000 OA
ATOM     31  H   UNL     1      -4.466  10.888  14.168  0.00  0.00    +0.000 HD
ENDBRANCH  29  30
ENDBRANCH  28  29
ENDBRANCH  23  24
ENDBRANCH  22  23
ENDBRANCH   1  22
TORSDOF 7
ENDMDL
MODEL 5
REMARK VINA RESULT:      -8.8      1.213      1.693
REMARK  Name = 
REMARK  8 active torsions:
REMARK  status: ('A' for Active; 'I' for Inactive)
REMARK    1  A    between atoms: C_1  and  C_2
REMARK    2  A    between atoms: C_2  and  C_3
REMARK    3  A    between atoms: C_2  and  C_11
REMARK    4  A    between atoms: C_3  and  C_4
REMARK    5  A    between atoms: C_8  and  C_9
REMARK    6  A    between atoms: C_9  and  O_10
REMARK    7  A    between atoms: C_15  and  N_16
REMARK    8  A    between atoms: C_23  and  C_24
REMARK                            x       y       z     vdW  Elec       q    Type
REMARK                         _______ _______ _______ _____ _____    ______ ____
ROOT
ATOM      1  C   UNL     1       5.311   5.344  19.046  0.00  0.00    +0.000 A 
ATOM      2  C   UNL     1       4.807   4.101  19.437  0.00  0.00    +0.000 A 
ATOM      3  C   UNL     1       3.480   3.967  19.868  0.00  0.00    +0.000 A 
ATOM      4  C   UNL     1       2.615   5.066  19.897  0.00  0.00    +0.000 A 
ATOM      5  C   UNL     1       3.080   6.321  19.525  0.00  0.00    +0.000 A 
ATOM      6  C   UNL     1       4.436   6.438  19.138  0.00  0.00    +0.000 A 
ENDROOT
BRANCH   5   7
ATOM      7  N   UNL     1       2.251   7.475  19.497  0.00  0.00    +0.000 N 
ATOM      8  C   UNL     1       1.527   7.857  20.690  0.00  0.00    +0.000 C 
ATOM      9  C   UNL     1       0.856   9.125  20.322  0.00  0.00    +0.000 A 
ATOM     10  C   UNL     1       1.165   9.451  19.005  0.00  0.00    +0.000 A 
ATOM     11  C   UNL     1       0.677  10.606  18.422  0.00  0.00    +0.000 A 
ATOM     12  C   UNL     1      -0.139  11.433  19.204  0.00  0.00    +0.000 A 
ATOM     13  C   UNL     1      -0.452  11.097  20.538  0.00  0.00    +0.000 A 
ATOM     14  C   UNL     1       0.046   9.924  21.123  0.00  0.00    +0.000 A 
ATOM     15  C   UNL     1       2.058   8.398  18.463  0.00  0.00    +0.000 C 
ATOM     16  O   UNL     1       2.500   8.427  17.332  0.00  0.00    +0.000 OA
BRANCH  14  17
ATOM     17  C   UNL     1      -0.278   9.559  22.551  0.00  0.00    +0.000 C 
ATOM     18  F   UNL     1      -1.070  10.472  23.184  0.00  0.00    +0.000 F 
ATOM     19  F   UNL     1      -0.940   8.375  22.648  0.00  0.00    +0.000 F 
ATOM     20  F   UNL     1       0.833   9.441  23.324  0.00  0.00    +0.000 F 
ENDBRANCH  14  17
ENDBRANCH   5   7
BRANCH   1  22
ATOM     21  C   UNL     1       7.752   5.793  19.729  0.00  0.00    +0.000 C 
ATOM     22  C   UNL     1       6.754   5.597  18.579  0.00  0.00    +0.000 C 
BRANCH  22  23
ATOM     23  C   UNL     1       7.266   4.486  17.611  0.00  0.00    +0.000 C 
BRANCH  23  24
ATOM     24  C   UNL     1       6.811   4.640  16.186  0.00  0.00    +0.000 A 
ATOM     25  N   UNL     1       7.612   5.258  15.306  0.00  0.00    +0.000 NA
ATOM     26  O   UNL     1       6.932   5.256  14.104  0.00  0.00    +0.000 OA
ATOM     27  C   UNL     1       5.732   4.661  14.269  0.00  0.00    +0.000 A 
ATOM     28  C   UNL     1       5.581   4.253  15.574  0.00  0.00    +0.000 A 
BRANCH  28  29
ATOM     29  C   UNL     1       4.392   3.599  16.165  0.00  0.00    +0.000 C 
BRANCH  29  30
ATOM     30  O   UNL     1       4.721   2.371  16.797  0.00  0.00    +0.000 OA
ATOM     31  H   UNL     1       4.643   1.677  16.121  0.00  0.00    +0.000 HD
ENDBRANCH  29  30
ENDBRANCH  28  29
ENDBRANCH  23  24
ENDBRANCH  22  23
ENDBRANCH   1  22
TORSDOF 7
ENDMDL
MODEL 6
REMARK VINA RESULT:      -8.7      2.709      4.003
REMARK  Name = 
REMARK  8 active torsions:
REMARK  status: ('A' for Active; 'I' for Inactive)
REMARK    1  A    between atoms: C_1  and  C_2
REMARK    2  A    between atoms: C_2  and  C_3
REMARK    3  A    between atoms: C_2  and  C_11
REMARK    4  A    between atoms: C_3  and  C_4
REMARK    5  A    between atoms: C_8  and  C_9
REMARK    6  A    between atoms: C_9  and  O_10
REMARK    7  A    between atoms: C_15  and  N_16
REMARK    8  A    between atoms: C_23  and  C_24
REMARK                            x       y       z     vdW  Elec       q    Type
REMARK                         _______ _______ _______ _____ _____    ______ ____
ROOT
ATOM      1  C   UNL     1       3.027   6.453  19.137  0.00  0.00    +0.000 A 
ATOM      2  C   UNL     1       3.399   6.870  17.856  0.00  0.00    +0.000 A 
ATOM      3  C   UNL     1       2.932   8.084  17.332  0.00  0.00    +0.000 A 
ATOM      4  C   UNL     1       2.101   8.923  18.081  0.00  0.00    +0.000 A 
ATOM      5  C   UNL     1       1.701   8.540  19.356  0.00  0.00    +0.000 A 
ATOM      6  C   UNL     1       2.149   7.290  19.844  0.00  0.00    +0.000 A 
ENDROOT
BRANCH   5   7
ATOM      7  N   UNL     1       0.887   9.356  20.187  0.00  0.00    +0.000 N 
ATOM      8  C   UNL     1      -0.088  10.237  19.580  0.00  0.00    +0.000 C 
ATOM      9  C   UNL     1      -0.794  10.849  20.729  0.00  0.00    +0.000 A 
ATOM     10  C   UNL     1      -0.261  10.361  21.918  0.00  0.00    +0.000 A 
ATOM     11  C   UNL     1      -0.762  10.762  23.143  0.00  0.00    +0.000 A 
ATOM     12  C   UNL     1      -1.823  11.677  23.143  0.00  0.00    +0.000 A 
ATOM     13  C   UNL     1      -2.358  12.171  21.934  0.00  0.00    +0.000 A 
ATOM     14  C   UNL     1      -1.846  11.760  20.696  0.00  0.00    +0.000 A 
ATOM     15  C   UNL     1       0.821   9.403  21.584  0.00  0.00    +0.000 C 
ATOM     16  O   UNL     1       1.460   8.810  22.429  0.00  0.00    +0.000 OA
BRANCH  14  17
ATOM     17  C   UNL     1      -2.416  12.278  19.398  0.00  0.00    +0.000 C 
ATOM     18  F   UNL     1      -1.511  12.953  18.632  0.00  0.00    +0.000 F 
ATOM     19  F   UNL     1      -2.890  11.280  18.604  0.00  0.00    +0.000 F 
ATOM     20  F   UNL     1      -3.449  13.140  19.589  0.00  0.00    +0.000 F 
ENDBRANCH  14  17
ENDBRANCH   5   7
BRANCH   1  22
ATOM     21  C   UNL     1       2.381   4.476  20.653  0.00  0.00    +0.000 C 
ATOM     22  C   UNL     1       3.468   5.134  19.791  0.00  0.00    +0.000 C 
BRANCH  22  23
ATOM     23  C   UNL     1       4.013   4.109  18.747  0.00  0.00    +0.000 C 
BRANCH  23  24
ATOM     24  C   UNL     1       5.448   4.323  18.354  0.00  0.00    +0.000 A 
ATOM     25  N   UNL     1       6.361   4.559  19.308  0.00  0.00    +0.000 NA
ATOM     26  O   UNL     1       7.565   4.721  18.653  0.00  0.00    +0.000 OA
ATOM     27  C   UNL     1       7.372   4.601  17.322  0.00  0.00    +0.000 A 
ATOM     28  C   UNL     1       6.044   4.358  17.057  0.00  0.00    +0.000 A 
BRANCH  28  29
ATOM     29  C   UNL     1       5.421   4.207  15.723  0.00  0.00    +0.000 C 
BRANCH  29  30
ATOM     30  O   UNL     1       6.232   3.444  14.842  0.00  0.00    +0.000 OA
ATOM     31  H   UNL     1       5.964   3.680  13.938  0.00  0.00    +0.000 HD
ENDBRANCH  29  30
ENDBRANCH  28  29
ENDBRANCH  23  24
ENDBRANCH  22  23
ENDBRANCH   1  22
TORSDOF 7
ENDMDL
MODEL 7
REMARK VINA RESULT:      -8.7      4.544     10.048
REMARK  Name = 
REMARK  8 active torsions:
REMARK  status: ('A' for Active; 'I' for Inactive)
REMARK    1  A    between atoms: C_1  and  C_2
REMARK    2  A    between atoms: C_2  and  C_3
REMARK    3  A    between atoms: C_2  and  C_11
REMARK    4  A    between atoms: C_3  and  C_4
REMARK    5  A    between atoms: C_8  and  C_9
REMARK    6  A    between atoms: C_9  and  O_10
REMARK    7  A    between atoms: C_15  and  N_16
REMARK    8  A    between atoms: C_23  and  C_24
REMARK                            x       y       z     vdW  Elec       q    Type
REMARK                         _______ _______ _______ _____ _____    ______ ____
ROOT
ATOM      1  C   UNL     1       0.130  10.139  20.741  0.00  0.00    +0.000 A 
ATOM      2  C   UNL     1       0.098  11.117  19.744  0.00  0.00    +0.000 A 
ATOM      3  C   UNL     1       0.808  10.946  18.547  0.00  0.00    +0.000 A 
ATOM      4  C   UNL     1       1.549   9.785  18.305  0.00  0.00    +0.000 A 
ATOM      5  C   UNL     1       1.614   8.793  19.276  0.00  0.00    +0.000 A 
ATOM      6  C   UNL     1       0.926   9.009  20.493  0.00  0.00    +0.000 A 
ENDROOT
BRANCH   5   7
ATOM      7  N   UNL     1       2.319   7.573  19.087  0.00  0.00    +0.000 N 
ATOM      8  C   UNL     1       3.344   7.497  18.069  0.00  0.00    +0.000 C 
ATOM      9  C   UNL     1       3.909   6.136  18.218  0.00  0.00    +0.000 A 
ATOM     10  C   UNL     1       3.252   5.468  19.247  0.00  0.00    +0.000 A 
ATOM     11  C   UNL     1       3.606   4.180  19.603  0.00  0.00    +0.000 A 
ATOM     12  C   UNL     1       4.648   3.573  18.892  0.00  0.00    +0.000 A 
ATOM     13  C   UNL     1       5.310   4.253  17.847  0.00  0.00    +0.000 A 
ATOM     14  C   UNL     1       4.945   5.558  17.490  0.00  0.00    +0.000 A 
ATOM     15  C   UNL     1       2.227   6.380  19.812  0.00  0.00    +0.000 C 
ATOM     16  O   UNL     1       1.504   6.066  20.736  0.00  0.00    +0.000 OA
BRANCH  14  17
ATOM     17  C   UNL     1       5.651   6.296  16.379  0.00  0.00    +0.000 C 
ATOM     18  F   UNL     1       6.348   7.390  16.803  0.00  0.00    +0.000 F 
ATOM     19  F   UNL     1       6.558   5.516  15.731  0.00  0.00    +0.000 F 
ATOM     20  F   UNL     1       4.794   6.755  15.430  0.00  0.00    +0.000 F 
ENDBRANCH  14  17
ENDBRANCH   5   7
BRANCH   1  22
ATOM     21  C   UNL     1       0.096   9.471  23.226  0.00  0.00    +0.000 C 
ATOM     22  C   UNL     1      -0.595  10.242  22.092  0.00  0.00    +0.000 C 
BRANCH  22  23
ATOM     23  C   UNL     1      -0.837  11.722  22.523  0.00  0.00    +0.000 C 
BRANCH  23  24
ATOM     24  C   UNL     1      -2.284  12.120  22.605  0.00  0.00    +0.000 A 
ATOM     25  N   UNL     1      -3.018  11.710  23.650  0.00  0.00    +0.000 NA
ATOM     26  O   UNL     1      -4.287  12.215  23.447  0.00  0.00    +0.000 OA
ATOM     27  C   UNL     1      -4.317  12.902  22.286  0.00  0.00    +0.000 A 
ATOM     28  C   UNL     1      -3.078  12.874  21.688  0.00  0.00    +0.000 A 
BRANCH  28  29
ATOM     29  C   UNL     1      -2.709  13.474  20.386  0.00  0.00    +0.000 C 
BRANCH  29  30
ATOM     30  O   UNL     1      -3.011  12.610  19.300  0.00  0.00    +0.000 OA
ATOM     31  H   UNL     1      -3.220  13.179  18.539  0.00  0.00    +0.000 HD
ENDBRANCH  29  30
ENDBRANCH  28  29
ENDBRANCH  23  24
ENDBRANCH  22  23
ENDBRANCH   1  22
TORSDOF 7
ENDMDL
MODEL 8
REMARK VINA RESULT:      -8.7      0.959      1.363
REMARK  Name = 
REMARK  8 active torsions:
REMARK  status: ('A' for Active; 'I' for Inactive)
REMARK    1  A    between atoms: C_1  and  C_2
REMARK    2  A    between atoms: C_2  and  C_3
REMARK    3  A    between atoms: C_2  and  C_11
REMARK    4  A    between atoms: C_3  and  C_4
REMARK    5  A    between atoms: C_8  and  C_9
REMARK    6  A    between atoms: C_9  and  O_10
REMARK    7  A    between atoms: C_15  and  N_16
REMARK    8  A    between atoms: C_23  and  C_24
REMARK                            x       y       z     vdW  Elec       q    Type
REMARK                         _______ _______ _______ _____ _____    ______ ____
ROOT
ATOM      1  C   UNL     1       3.679   4.203  18.744  0.00  0.00    +0.000 A 
ATOM      2  C   UNL     1       3.346   3.332  19.784  0.00  0.00    +0.000 A 
ATOM      3  C   UNL     1       2.549   3.763  20.854  0.00  0.00    +0.000 A 
ATOM      4  C   UNL     1       2.046   5.067  20.901  0.00  0.00    +0.000 A 
ATOM      5  C   UNL     1       2.361   5.967  19.890  0.00  0.00    +0.000 A 
ATOM      6  C   UNL     1       3.205   5.520  18.845  0.00  0.00    +0.000 A 
ENDROOT
BRANCH   5   7
ATOM      7  N   UNL     1       1.859   7.295  19.853  0.00  0.00    +0.000 N 
ATOM      8  C   UNL     1       1.183   7.830  21.015  0.00  0.00    +0.000 C 
ATOM      9  C   UNL     1       0.883   9.234  20.652  0.00  0.00    +0.000 A 
ATOM     10  C   UNL     1       1.349   9.493  19.366  0.00  0.00    +0.000 A 
ATOM     11  C   UNL     1       1.211  10.744  18.795  0.00  0.00    +0.000 A 
ATOM     12  C   UNL     1       0.586  11.740  19.556  0.00  0.00    +0.000 A 
ATOM     13  C   UNL     1       0.113  11.472  20.859  0.00  0.00    +0.000 A 
ATOM     14  C   UNL     1       0.255  10.201  21.432  0.00  0.00    +0.000 A 
ATOM     15  C   UNL     1       1.976   8.255  18.842  0.00  0.00    +0.000 C 
ATOM     16  O   UNL     1       2.481   8.189  17.740  0.00  0.00    +0.000 OA
BRANCH  14  17
ATOM     17  C   UNL     1      -0.241   9.907  22.826  0.00  0.00    +0.000 C 
ATOM     18  F   UNL     1      -1.101   8.848  22.890  0.00  0.00    +0.000 F 
ATOM     19  F   UNL     1       0.769   9.606  23.685  0.00  0.00    +0.000 F 
ATOM     20  F   UNL     1      -0.911  10.954  23.374  0.00  0.00    +0.000 F 
ENDBRANCH  14  17
ENDBRANCH   5   7
BRANCH   1  22
ATOM     21  C   UNL     1       4.266   2.443  16.960  0.00  0.00    +0.000 C 
ATOM     22  C   UNL     1       4.562   3.832  17.540  0.00  0.00    +0.000 C 
BRANCH  22  23
ATOM     23  C   UNL     1       4.502   4.907  16.410  0.00  0.00    +0.000 C 
BRANCH  23  24
ATOM     24  C   UNL     1       5.771   5.050  15.617  0.00  0.00    +0.000 A 
ATOM     25  N   UNL     1       6.738   5.861  16.068  0.00  0.00    +0.000 NA
ATOM     26  O   UNL     1       7.757   5.794  15.139  0.00  0.00    +0.000 OA
ATOM     27  C   UNL     1       7.395   4.967  14.134  0.00  0.00    +0.000 A 
ATOM     28  C   UNL     1       6.136   4.465  14.366  0.00  0.00    +0.000 A 
BRANCH  28  29
ATOM     29  C   UNL     1       5.369   3.559  13.483  0.00  0.00    +0.000 C 
BRANCH  29  30
ATOM     30  O   UNL     1       6.189   2.968  12.486  0.00  0.00    +0.000 OA
ATOM     31  H   UNL     1       5.599   2.690  11.765  0.00  0.00    +0.000 HD
ENDBRANCH  29  30
ENDBRANCH  28  29
ENDBRANCH  23  24
ENDBRANCH  22  23
ENDBRANCH   1  22
TORSDOF 7
ENDMDL
MODEL 9
REMARK VINA RESULT:      -8.6      3.879      8.561
REMARK  Name = 
REMARK  8 active torsions:
REMARK  status: ('A' for Active; 'I' for Inactive)
REMARK    1  A    between atoms: C_1  and  C_2
REMARK    2  A    between atoms: C_2  and  C_3
REMARK    3  A    between atoms: C_2  and  C_11
REMARK    4  A    between atoms: C_3  and  C_4
REMARK    5  A    between atoms: C_8  and  C_9
REMARK    6  A    between atoms: C_9  and  O_10
REMARK    7  A    between atoms: C_15  and  N_16
REMARK    8  A    between atoms: C_23  and  C_24
REMARK                            x       y       z     vdW  Elec       q    Type
REMARK                         _______ _______ _______ _____ _____    ______ ____
ROOT
ATOM      1  C   UNL     1       0.422  10.490  20.158  0.00  0.00    +0.000 A 
ATOM      2  C   UNL     1       0.369  10.522  21.554  0.00  0.00    +0.000 A 
ATOM      3  C   UNL     1       0.865   9.455  22.316  0.00  0.00    +0.000 A 
ATOM      4  C   UNL     1       1.447   8.339  21.706  0.00  0.00    +0.000 A 
ATOM      5  C   UNL     1       1.511   8.265  20.320  0.00  0.00    +0.000 A 
ATOM      6  C   UNL     1       0.963   9.334  19.572  0.00  0.00    +0.000 A 
ENDROOT
BRANCH   5   7
ATOM      7  N   UNL     1       2.119   7.180  19.632  0.00  0.00    +0.000 N 
ATOM      8  C   UNL     1       1.831   5.825  20.050  0.00  0.00    +0.000 C 
ATOM      9  C   UNL     1       2.553   4.979  19.072  0.00  0.00    +0.000 A 
ATOM     10  C   UNL     1       3.217   5.788  18.155  0.00  0.00    +0.000 A 
ATOM     11  C   UNL     1       3.952   5.240  17.121  0.00  0.00    +0.000 A 
ATOM     12  C   UNL     1       4.004   3.843  17.030  0.00  0.00    +0.000 A 
ATOM     13  C   UNL     1       3.331   3.027  17.964  0.00  0.00    +0.000 A 
ATOM     14  C   UNL     1       2.588   3.589  19.010  0.00  0.00    +0.000 A 
ATOM     15  C   UNL     1       2.948   7.204  18.505  0.00  0.00    +0.000 C 
ATOM     16  O   UNL     1       3.394   8.136  17.867  0.00  0.00    +0.000 OA
BRANCH  14  17
ATOM     17  C   UNL     1       1.859   2.725  20.010  0.00  0.00    +0.000 C 
ATOM     18  F   UNL     1       1.789   1.410  19.650  0.00  0.00    +0.000 F 
ATOM     19  F   UNL     1       2.450   2.735  21.235  0.00  0.00    +0.000 F 
ATOM     20  F   UNL     1       0.573   3.120  20.203  0.00  0.00    +0.000 F 
ENDBRANCH  14  17
ENDBRANCH   5   7
BRANCH   1  22
ATOM     21  C   UNL     1       0.950  12.627  18.824  0.00  0.00    +0.000 C 
ATOM     22  C   UNL     1      -0.112  11.598  19.236  0.00  0.00    +0.000 C 
BRANCH  22  23
ATOM     23  C   UNL     1      -0.817  11.023  17.968  0.00  0.00    +0.000 C 
BRANCH  23  24
ATOM     24  C   UNL     1      -2.312  11.180  17.960  0.00  0.00    +0.000 A 
ATOM     25  N   UNL     1      -2.903  11.878  18.940  0.00  0.00    +0.000 NA
ATOM     26  O   UNL     1      -4.257  11.841  18.673  0.00  0.00    +0.000 OA
ATOM     27  C   UNL     1      -4.475  11.113  17.557  0.00  0.00    +0.000 A 
ATOM     28  C   UNL     1      -3.281  10.650  17.054  0.00  0.00    +0.000 A 
BRANCH  28  29
ATOM     29  C   UNL     1      -3.097   9.784  15.869  0.00  0.00    +0.000 C 
BRANCH  29  30
ATOM     30  O   UNL     1      -2.667  10.521  14.734  0.00  0.00    +0.000 OA
ATOM     31  H   UNL     1      -2.006  11.162  15.049  0.00  0.00    +0.000 HD
ENDBRANCH  29  30
ENDBRANCH  28  29
ENDBRANCH  23  24
ENDBRANCH  22  23
ENDBRANCH   1  22
TORSDOF 7
ENDMDL
