MODEL 1
REMARK VINA RESULT:      -8.8      0.000      0.000
REMARK  Name = 
REMARK  11 active torsions:
REMARK  status: ('A' for Active; 'I' for Inactive)
REMARK    1  A    between atoms: C_1  and  C_2
REMARK    2  A    between atoms: C_2  and  S_3
REMARK    3  A    between atoms: C_2  and  C_10
REMARK    4  A    between atoms: S_3  and  C_4
REMARK    5  A    between atoms: N_8  and  C_9
REMARK    6  A    between atoms: C_12  and  N_13
REMARK    7  A    between atoms: N_13  and  C_14
REMARK    8  A    between atoms: C_14  and  C_15
REMARK    9  A    between atoms: C_15  and  C_16
REMARK   10  A    between atoms: C_15  and  O_17
REMARK   11  A    between atoms: C_27  and  C_28
REMARK                            x       y       z     vdW  Elec       q    Type
REMARK                         _______ _______ _______ _____ _____    ______ ____
ROOT
ATOM      1  C   UNL     1      -0.261  10.303  21.183  0.00  0.00    +0.000 A 
ATOM      2  C   UNL     1      -0.272  11.350  20.259  0.00  0.00    +0.000 A 
ATOM      3  C   UNL     1       0.355  11.197  19.024  0.00  0.00    +0.000 A 
ATOM      4  N   UNL     1       1.028  10.071  18.708  0.00  0.00    +0.000 NA
ATOM      5  C   UNL     1       1.091   9.060  19.601  0.00  0.00    +0.000 A 
ATOM      6  N   UNL     1       1.819   7.895  19.282  0.00  0.00    +0.000 N 
ATOM      7  C   UNL     1       1.755   6.677  20.079  0.00  0.00    +0.000 C 
ATOM      8  C   UNL     1       2.622   5.720  19.328  0.00  0.00    +0.000 A 
ATOM      9  C   UNL     1       3.176   6.377  18.231  0.00  0.00    +0.000 A 
ATOM     10  C   UNL     1       4.054   5.761  17.359  0.00  0.00    +0.000 A 
ATOM     11  C   UNL     1       4.372   4.425  17.600  0.00  0.00    +0.000 A 
ATOM     12  C   UNL     1       3.805   3.740  18.690  0.00  0.00    +0.000 A 
ATOM     13  C   UNL     1       2.913   4.379  19.576  0.00  0.00    +0.000 A 
ATOM     14  C   UNL     1       2.661   7.754  18.184  0.00  0.00    +0.000 C 
ATOM     15  O   UNL     1       2.997   8.531  17.314  0.00  0.00    +0.000 OA
ATOM     16  C   UNL     1       0.443   9.147  20.831  0.00  0.00    +0.000 A 
ENDROOT
BRANCH  13  17
ATOM     17  C   UNL     1       2.305   3.602  20.715  0.00  0.00    +0.000 C 
ATOM     18  F   UNL     1       0.953   3.462  20.619  0.00  0.00    +0.000 F 
ATOM     19  F   UNL     1       2.803   2.339  20.804  0.00  0.00    +0.000 F 
ATOM     20  F   UNL     1       2.531   4.182  21.925  0.00  0.00    +0.000 F 
ENDBRANCH  13  17
BRANCH   1  22
ATOM     21  C   UNL     1      -0.167   9.772  23.672  0.00  0.00    +0.000 C 
ATOM     22  C   UNL     1      -0.945  10.454  22.534  0.00  0.00    +0.000 C 
BRANCH  22  23
ATOM     23  S   UNL     1      -1.159  12.248  22.873  0.00  0.00    +0.000 S 
BRANCH  23  24
ATOM     24  C   UNL     1      -2.876  12.383  22.957  0.00  0.00    +0.000 A 
ATOM     25  N   UNL     1      -3.654  11.988  23.937  0.00  0.00    +0.000 NA
ATOM     26  N   UNL     1      -4.941  12.370  23.625  0.00  0.00    +0.000 NA
ATOM     27  C   UNL     1      -4.905  12.975  22.460  0.00  0.00    +0.000 A 
ATOM     28  N   UNL     1      -3.627  12.985  21.990  0.00  0.00    +0.000 N 
ATOM     29  C   UNL     1      -3.188  13.547  20.741  0.00  0.00    +0.000 C 
ENDBRANCH  23  24
ENDBRANCH  22  23
ENDBRANCH   1  22
BRANCH   3  30
ATOM     30  N   UNL     1       0.263  12.263  18.116  0.00  0.00    +0.000 N 
ATOM     31  H   UNL     1      -0.716  12.431  17.884  0.00  0.00    +0.000 HD
BRANCH  30  32
ATOM     32  C   UNL     1       0.942  13.495  18.522  0.00  0.00    +0.000 C 
BRANCH  32  33
ATOM     33  C   UNL     1       2.469  13.309  18.383  0.00  0.00    +0.000 C 
ATOM     34  C   UNL     1       3.174  14.630  18.103  0.00  0.00    +0.000 C 
BRANCH  33  35
ATOM     35  O   UNL     1       2.762  12.395  17.315  0.00  0.00    +0.000 OA
ATOM     36  H   UNL     1       3.723  12.428  17.162  0.00  0.00    +0.000 HD
ENDBRANCH  33  35
ENDBRANCH  32  33
ENDBRANCH  30  32
ENDBRANCH   3  30
TORSDOF 8
ENDMDL
MODEL 2
REMARK VINA RESULT:      -8.5      0.865      1.108
REMARK  Name = 
REMARK  11 active torsions:
REMARK  status: ('A' for Active; 'I' for Inactive)
REMARK    1  A    between atoms: C_1  and  C_2
REMARK    2  A    between atoms: C_2  and  S_3
REMARK    3  A    between atoms: C_2  and  C_10
REMARK    4  A    between atoms: S_3  and  C_4
REMARK    5  A    between atoms: N_8  and  C_9
REMARK    6  A    between atoms: C_12  and  N_13
REMARK    7  A    between atoms: N_13  and  C_14
REMARK    8  A    between atoms: C_14  and  C_15
REMARK    9  A    between atoms: C_15  and  C_16
REMARK   10  A    between atoms: C_15  and  O_17
REMARK   11  A    between atoms: C_27  and  C_28
REMARK                            x       y       z     vdW  Elec       q    Type
REMARK                         _______ _______ _______ _____ _____    ______ ____
ROOT
ATOM      1  C   UNL     1       0.079  10.061  21.060  0.00  0.00    +0.000 A 
ATOM      2  C   UNL     1       0.281  11.107  20.157  0.00  0.00    +0.000 A 
ATOM      3  C   UNL     1       1.022  10.893  18.997  0.00  0.00    +0.000 A 
ATOM      4  N   UNL     1       1.602   9.703  18.739  0.00  0.00    +0.000 NA
ATOM      5  C   UNL     1       1.459   8.688  19.617  0.00  0.00    +0.000 A 
ATOM      6  N   UNL     1       2.090   7.453  19.361  0.00  0.00    +0.000 N 
ATOM      7  C   UNL     1       1.809   6.245  20.127  0.00  0.00    +0.000 C 
ATOM      8  C   UNL     1       2.648   5.204  19.460  0.00  0.00    +0.000 A 
ATOM      9  C   UNL     1       3.387   5.802  18.441  0.00  0.00    +0.000 A 
ATOM     10  C   UNL     1       4.285   5.099  17.661  0.00  0.00    +0.000 A 
ATOM     11  C   UNL     1       4.431   3.736  17.913  0.00  0.00    +0.000 A 
ATOM     12  C   UNL     1       3.677   3.112  18.924  0.00  0.00    +0.000 A 
ATOM     13  C   UNL     1       2.766   3.839  19.717  0.00  0.00    +0.000 A 
ATOM     14  C   UNL     1       3.029   7.226  18.359  0.00  0.00    +0.000 C 
ATOM     15  O   UNL     1       3.539   7.967  17.545  0.00  0.00    +0.000 OA
ATOM     16  C   UNL     1       0.691   8.838  20.769  0.00  0.00    +0.000 A 
ENDROOT
BRANCH  13  17
ATOM     17  C   UNL     1       1.956   3.126  20.770  0.00  0.00    +0.000 C 
ATOM     18  F   UNL     1       2.147   1.776  20.783  0.00  0.00    +0.000 F 
ATOM     19  F   UNL     1       2.250   3.554  22.027  0.00  0.00    +0.000 F 
ATOM     20  F   UNL     1       0.617   3.308  20.613  0.00  0.00    +0.000 F 
ENDBRANCH  13  17
BRANCH   1  22
ATOM     21  C   UNL     1      -0.094   9.612  23.561  0.00  0.00    +0.000 C 
ATOM     22  C   UNL     1      -0.731  10.279  22.331  0.00  0.00    +0.000 C 
BRANCH  22  23
ATOM     23  S   UNL     1      -0.915  12.090  22.592  0.00  0.00    +0.000 S 
BRANCH  23  24
ATOM     24  C   UNL     1      -2.630  12.259  22.647  0.00  0.00    +0.000 A 
ATOM     25  N   UNL     1      -3.410  12.087  23.689  0.00  0.00    +0.000 NA
ATOM     26  N   UNL     1      -4.693  12.411  23.305  0.00  0.00    +0.000 NA
ATOM     27  C   UNL     1      -4.655  12.758  22.038  0.00  0.00    +0.000 A 
ATOM     28  N   UNL     1      -3.377  12.654  21.576  0.00  0.00    +0.000 N 
ATOM     29  C   UNL     1      -2.936  12.938  20.237  0.00  0.00    +0.000 C 
ENDBRANCH  23  24
ENDBRANCH  22  23
ENDBRANCH   1  22
BRANCH   3  30
ATOM     30  N   UNL     1       1.144  11.967  18.101  0.00  0.00    +0.000 N 
ATOM     31  H   UNL     1       0.393  12.636  18.265  0.00  0.00    +0.000 HD
BRANCH  30  32
ATOM     32  C   UNL     1       2.455  12.619  18.077  0.00  0.00    +0.000 C 
BRANCH  32  33
ATOM     33  C   UNL     1       2.357  13.992  18.779  0.00  0.00    +0.000 C 
ATOM     34  C   UNL     1       2.860  13.928  20.215  0.00  0.00    +0.000 C 
BRANCH  33  35
ATOM     35  O   UNL     1       0.996  14.449  18.787  0.00  0.00    +0.000 OA
ATOM     36  H   UNL     1       0.714  14.498  19.718  0.00  0.00    +0.000 HD
ENDBRANCH  33  35
ENDBRANCH  32  33
ENDBRANCH  30  32
ENDBRANCH   3  30
TORSDOF 8
ENDMDL
MODEL 3
REMARK VINA RESULT:      -8.4      1.355      1.928
REMARK  Name = 
REMARK  11 active torsions:
REMARK  status: ('A' for Active; 'I' for Inactive)
REMARK    1  A    between atoms: C_1  and  C_2
REMARK    2  A    between atoms: C_2  and  S_3
REMARK    3  A    between atoms: C_2  and  C_10
REMARK    4  A    between atoms: S_3  and  C_4
REMARK    5  A    between atoms: N_8  and  C_9
REMARK    6  A    between atoms: C_12  and  N_13
REMARK    7  A    between atoms: N_13  and  C_14
REMARK    8  A    between atoms: C_14  and  C_15
REMARK    9  A    between atoms: C_15  and  C_16
REMARK   10  A    between atoms: C_15  and  O_17
REMARK   11  A    between atoms: C_27  and  C_28
REMARK                            x       y       z     vdW  Elec       q    Type
REMARK                         _______ _______ _______ _____ _____    ______ ____
ROOT
ATOM      1  C   UNL     1      -0.244  10.071  21.262  0.00  0.00    +0.000 A 
ATOM      2  C   UNL     1      -0.287  11.061  20.278  0.00  0.00    +0.000 A 
ATOM      3  C   UNL     1       0.326  10.844  19.045  0.00  0.00    +0.000 A 
ATOM      4  N   UNL     1       1.013   9.712  18.787  0.00  0.00    +0.000 NA
ATOM      5  C   UNL     1       1.107   8.758  19.738  0.00  0.00    +0.000 A 
ATOM      6  N   UNL     1       1.850   7.588  19.479  0.00  0.00    +0.000 N 
ATOM      7  C   UNL     1       1.819   6.420  20.348  0.00  0.00    +0.000 C 
ATOM      8  C   UNL     1       2.691   5.433  19.642  0.00  0.00    +0.000 A 
ATOM      9  C   UNL     1       3.219   6.032  18.500  0.00  0.00    +0.000 A 
ATOM     10  C   UNL     1       4.094   5.379  17.653  0.00  0.00    +0.000 A 
ATOM     11  C   UNL     1       4.439   4.065  17.968  0.00  0.00    +0.000 A 
ATOM     12  C   UNL     1       3.899   3.439  19.107  0.00  0.00    +0.000 A 
ATOM     13  C   UNL     1       3.009   4.115  19.967  0.00  0.00    +0.000 A 
ATOM     14  C   UNL     1       2.679   7.395  18.377  0.00  0.00    +0.000 C 
ATOM     15  O   UNL     1       2.989   8.123  17.458  0.00  0.00    +0.000 OA
ATOM     16  C   UNL     1       0.474   8.909  20.970  0.00  0.00    +0.000 A 
ENDROOT
BRANCH  13  17
ATOM     17  C   UNL     1       2.431   3.397  21.159  0.00  0.00    +0.000 C 
ATOM     18  F   UNL     1       3.061   2.224  21.447  0.00  0.00    +0.000 F 
ATOM     19  F   UNL     1       2.499   4.143  22.295  0.00  0.00    +0.000 F 
ATOM     20  F   UNL     1       1.118   3.081  20.994  0.00  0.00    +0.000 F 
ENDBRANCH  13  17
BRANCH   1  22
ATOM     21  C   UNL     1      -0.132   9.649  23.772  0.00  0.00    +0.000 C 
ATOM     22  C   UNL     1      -0.911  10.293  22.613  0.00  0.00    +0.000 C 
BRANCH  22  23
ATOM     23  S   UNL     1      -1.093  12.103  22.875  0.00  0.00    +0.000 S 
BRANCH  23  24
ATOM     24  C   UNL     1      -2.807  12.267  22.987  0.00  0.00    +0.000 A 
ATOM     25  N   UNL     1      -3.576  11.877  23.977  0.00  0.00    +0.000 NA
ATOM     26  N   UNL     1      -4.860  12.283  23.689  0.00  0.00    +0.000 NA
ATOM     27  C   UNL     1      -4.833  12.897  22.528  0.00  0.00    +0.000 A 
ATOM     28  N   UNL     1      -3.563  12.889  22.038  0.00  0.00    +0.000 N 
ATOM     29  C   UNL     1      -3.134  13.454  20.786  0.00  0.00    +0.000 C 
ENDBRANCH  23  24
ENDBRANCH  22  23
ENDBRANCH   1  22
BRANCH   3  30
ATOM     30  N   UNL     1       0.201  11.852  18.075  0.00  0.00    +0.000 N 
ATOM     31  H   UNL     1       0.522  11.500  17.174  0.00  0.00    +0.000 HD
BRANCH  30  32
ATOM     32  C   UNL     1      -1.124  12.468  17.977  0.00  0.00    +0.000 C 
BRANCH  32  33
ATOM     33  C   UNL     1      -2.028  11.596  17.077  0.00  0.00    +0.000 C 
ATOM     34  C   UNL     1      -3.436  11.474  17.645  0.00  0.00    +0.000 C 
BRANCH  33  35
ATOM     35  O   UNL     1      -1.472  10.281  16.939  0.00  0.00    +0.000 OA
ATOM     36  H   UNL     1      -0.578  10.383  16.568  0.00  0.00    +0.000 HD
ENDBRANCH  33  35
ENDBRANCH  32  33
ENDBRANCH  30  32
ENDBRANCH   3  30
TORSDOF 8
ENDMDL
MODEL 4
REMARK VINA RESULT:      -8.3      1.211      1.347
REMARK  Name = 
REMARK  11 active torsions:
REMARK  status: ('A' for Active; 'I' for Inactive)
REMARK    1  A    between atoms: C_1  and  C_2
REMARK    2  A    between atoms: C_2  and  S_3
REMARK    3  A    between atoms: C_2  and  C_10
REMARK    4  A    between atoms: S_3  and  C_4
REMARK    5  A    between atoms: N_8  and  C_9
REMARK    6  A    between atoms: C_12  and  N_13
REMARK    7  A    between atoms: N_13  and  C_14
REMARK    8  A    between atoms: C_14  and  C_15
REMARK    9  A    between atoms: C_15  and  C_16
REMARK   10  A    between atoms: C_15  and  O_17
REMARK   11  A    between atoms: C_27  and  C_28
REMARK                            x       y       z     vdW  Elec       q    Type
REMARK                         _______ _______ _______ _____ _____    ______ ____
ROOT
ATOM      1  C   UNL     1       0.636   9.935  20.350  0.00  0.00    +0.000 A 
ATOM      2  C   UNL     1       1.055  10.994  19.542  0.00  0.00    +0.000 A 
ATOM      3  C   UNL     1       1.870  10.749  18.439  0.00  0.00    +0.000 A 
ATOM      4  N   UNL     1       2.317   9.509  18.152  0.00  0.00    +0.000 NA
ATOM      5  C   UNL     1       1.963   8.474  18.943  0.00  0.00    +0.000 A 
ATOM      6  N   UNL     1       2.454   7.183  18.661  0.00  0.00    +0.000 N 
ATOM      7  C   UNL     1       1.951   5.982  19.315  0.00  0.00    +0.000 C 
ATOM      8  C   UNL     1       2.711   4.878  18.655  0.00  0.00    +0.000 A 
ATOM      9  C   UNL     1       3.614   5.429  17.748  0.00  0.00    +0.000 A 
ATOM     10  C   UNL     1       4.487   4.658  17.004  0.00  0.00    +0.000 A 
ATOM     11  C   UNL     1       4.434   3.276  17.176  0.00  0.00    +0.000 A 
ATOM     12  C   UNL     1       3.514   2.701  18.071  0.00  0.00    +0.000 A 
ATOM     13  C   UNL     1       2.630   3.497  18.829  0.00  0.00    +0.000 A 
ATOM     14  C   UNL     1       3.449   6.891  17.732  0.00  0.00    +0.000 C 
ATOM     15  O   UNL     1       4.124   7.601  17.018  0.00  0.00    +0.000 OA
ATOM     16  C   UNL     1       1.113   8.661  20.031  0.00  0.00    +0.000 A 
ENDROOT
BRANCH  13  17
ATOM     17  C   UNL     1       1.640   2.840  19.756  0.00  0.00    +0.000 C 
ATOM     18  F   UNL     1       0.342   3.148  19.475  0.00  0.00    +0.000 F 
ATOM     19  F   UNL     1       1.715   1.482  19.716  0.00  0.00    +0.000 F 
ATOM     20  F   UNL     1       1.829   3.190  21.057  0.00  0.00    +0.000 F 
ENDBRANCH  13  17
BRANCH   1  22
ATOM     21  C   UNL     1       0.263   9.505  22.833  0.00  0.00    +0.000 C 
ATOM     22  C   UNL     1      -0.258  10.187  21.556  0.00  0.00    +0.000 C 
BRANCH  22  23
ATOM     23  S   UNL     1      -0.399  12.004  21.799  0.00  0.00    +0.000 S 
BRANCH  23  24
ATOM     24  C   UNL     1      -2.038  12.159  22.311  0.00  0.00    +0.000 A 
ATOM     25  N   UNL     1      -2.527  11.880  23.497  0.00  0.00    +0.000 NA
ATOM     26  N   UNL     1      -3.858  12.235  23.491  0.00  0.00    +0.000 NA
ATOM     27  C   UNL     1      -4.140  12.707  22.297  0.00  0.00    +0.000 A 
ATOM     28  N   UNL     1      -3.027  12.656  21.513  0.00  0.00    +0.000 N 
ATOM     29  C   UNL     1      -2.940  13.074  20.140  0.00  0.00    +0.000 C 
ENDBRANCH  23  24
ENDBRANCH  22  23
ENDBRANCH   1  22
BRANCH   3  30
ATOM     30  N   UNL     1       2.212  11.846  17.631  0.00  0.00    +0.000 N 
ATOM     31  H   UNL     1       1.745  11.765  16.729  0.00  0.00    +0.000 HD
BRANCH  30  32
ATOM     32  C   UNL     1       1.995  13.162  18.236  0.00  0.00    +0.000 C 
BRANCH  32  33
ATOM     33  C   UNL     1       3.352  13.885  18.391  0.00  0.00    +0.000 C 
ATOM     34  C   UNL     1       3.445  14.630  19.716  0.00  0.00    +0.000 C 
BRANCH  33  35
ATOM     35  O   UNL     1       3.540  14.822  17.320  0.00  0.00    +0.000 OA
ATOM     36  H   UNL     1       4.412  15.235  17.448  0.00  0.00    +0.000 HD
ENDBRANCH  33  35
ENDBRANCH  32  33
ENDBRANCH  30  32
ENDBRANCH   3  30
TORSDOF 8
ENDMDL
MODEL 5
REMARK VINA RESULT:      -8.2      1.136      1.722
REMARK  Name = 
REMARK  11 active torsions:
REMARK  status: ('A' for Active; 'I' for Inactive)
REMARK    1  A    between atoms: C_1  and  C_2
REMARK    2  A    between atoms: C_2  and  S_3
REMARK    3  A    between atoms: C_2  and  C_10
REMARK    4  A    between atoms: S_3  and  C_4
REMARK    5  A    between atoms: N_8  and  C_9
REMARK    6  A    between atoms: C_12  and  N_13
REMARK    7  A    between atoms: N_13  and  C_14
REMARK    8  A    between atoms: C_14  and  C_15
REMARK    9  A    between atoms: C_15  and  C_16
REMARK   10  A    between atoms: C_15  and  O_17
REMARK   11  A    between atoms: C_27  and  C_28
REMARK                            x       y       z     vdW  Elec       q    Type
REMARK                         _______ _______ _______ _____ _____    ______ ____
ROOT
ATOM      1  C   UNL     1       0.128  10.067  20.994  0.00  0.00    +0.000 A 
ATOM      2  C   UNL     1       0.372  11.093  20.078  0.00  0.00    +0.000 A 
ATOM      3  C   UNL     1       1.136  10.842  18.940  0.00  0.00    +0.000 A 
ATOM      4  N   UNL     1       1.697   9.637  18.717  0.00  0.00    +0.000 NA
ATOM      5  C   UNL     1       1.512   8.641  19.609  0.00  0.00    +0.000 A 
ATOM      6  N   UNL     1       2.124   7.389  19.390  0.00  0.00    +0.000 N 
ATOM      7  C   UNL     1       1.800   6.201  20.170  0.00  0.00    +0.000 C 
ATOM      8  C   UNL     1       2.633   5.131  19.542  0.00  0.00    +0.000 A 
ATOM      9  C   UNL     1       3.408   5.696  18.531  0.00  0.00    +0.000 A 
ATOM     10  C   UNL     1       4.310   4.961  17.785  0.00  0.00    +0.000 A 
ATOM     11  C   UNL     1       4.422   3.600  18.065  0.00  0.00    +0.000 A 
ATOM     12  C   UNL     1       3.631   3.009  19.068  0.00  0.00    +0.000 A 
ATOM     13  C   UNL     1       2.716   3.769  19.826  0.00  0.00    +0.000 A 
ATOM     14  C   UNL     1       3.081   7.125  18.415  0.00  0.00    +0.000 C 
ATOM     15  O   UNL     1       3.626   7.840  17.600  0.00  0.00    +0.000 OA
ATOM     16  C   UNL     1       0.720   8.827  20.739  0.00  0.00    +0.000 A 
ENDROOT
BRANCH  13  17
ATOM     17  C   UNL     1       1.868   3.091  20.871  0.00  0.00    +0.000 C 
ATOM     18  F   UNL     1       2.151   3.488  22.144  0.00  0.00    +0.000 F 
ATOM     19  F   UNL     1       0.540   3.331  20.695  0.00  0.00    +0.000 F 
ATOM     20  F   UNL     1       2.011   1.739  20.865  0.00  0.00    +0.000 F 
ENDBRANCH  13  17
BRANCH   1  22
ATOM     21  C   UNL     1      -0.118   9.661  23.497  0.00  0.00    +0.000 C 
ATOM     22  C   UNL     1      -0.708  10.324  22.241  0.00  0.00    +0.000 C 
BRANCH  22  23
ATOM     23  S   UNL     1      -0.853  12.143  22.471  0.00  0.00    +0.000 S 
BRANCH  23  24
ATOM     24  C   UNL     1      -2.436  12.444  21.857  0.00  0.00    +0.000 A 
ATOM     25  N   UNL     1      -2.785  12.575  20.598  0.00  0.00    +0.000 NA
ATOM     26  N   UNL     1      -4.155  12.717  20.560  0.00  0.00    +0.000 NA
ATOM     27  C   UNL     1      -4.594  12.679  21.798  0.00  0.00    +0.000 A 
ATOM     28  N   UNL     1      -3.542  12.533  22.650  0.00  0.00    +0.000 N 
ATOM     29  C   UNL     1      -3.618  12.460  24.085  0.00  0.00    +0.000 C 
ENDBRANCH  23  24
ENDBRANCH  22  23
ENDBRANCH   1  22
BRANCH   3  30
ATOM     30  N   UNL     1       1.301  11.897  18.028  0.00  0.00    +0.000 N 
ATOM     31  H   UNL     1       0.581  11.843  17.308  0.00  0.00    +0.000 HD
BRANCH  30  32
ATOM     32  C   UNL     1       1.373  13.234  18.621  0.00  0.00    +0.000 C 
BRANCH  32  33
ATOM     33  C   UNL     1       0.142  14.058  18.181  0.00  0.00    +0.000 C 
ATOM     34  C   UNL     1      -0.441  14.860  19.338  0.00  0.00    +0.000 C 
BRANCH  33  35
ATOM     35  O   UNL     1      -0.876  13.190  17.663  0.00  0.00    +0.000 OA
ATOM     36  H   UNL     1      -1.255  13.624  16.879  0.00  0.00    +0.000 HD
ENDBRANCH  33  35
ENDBRANCH  32  33
ENDBRANCH  30  32
ENDBRANCH   3  30
TORSDOF 8
ENDMDL
MODEL 6
REMARK VINA RESULT:      -8.2      1.043      1.557
REMARK  Name = 
REMARK  11 active torsions:
REMARK  status: ('A' for Active; 'I' for Inactive)
REMARK    1  A    between atoms: C_1  and  C_2
REMARK    2  A    between atoms: C_2  and  S_3
REMARK    3  A    between atoms: C_2  and  C_10
REMARK    4  A    between atoms: S_3  and  C_4
REMARK    5  A    between atoms: N_8  and  C_9
REMARK    6  A    between atoms: C_12  and  N_13
REMARK    7  A    between atoms: N_13  and  C_14
REMARK    8  A    between atoms: C_14  and  C_15
REMARK    9  A    between atoms: C_15  and  C_16
REMARK   10  A    between atoms: C_15  and  O_17
REMARK   11  A    between atoms: C_27  and  C_28
REMARK                            x       y       z     vdW  Elec       q    Type
REMARK                         _______ _______ _______ _____ _____    ______ ____
ROOT
ATOM      1  C   UNL     1       0.305  10.109  20.708  0.00  0.00    +0.000 A 
ATOM      2  C   UNL     1       0.644  11.164  19.859  0.00  0.00    +0.000 A 
ATOM      3  C   UNL     1       1.436  10.929  18.737  0.00  0.00    +0.000 A 
ATOM      4  N   UNL     1       1.936   9.705  18.469  0.00  0.00    +0.000 NA
ATOM      5  C   UNL     1       1.659   8.677  19.299  0.00  0.00    +0.000 A 
ATOM      6  N   UNL     1       2.207   7.404  19.035  0.00  0.00    +0.000 N 
ATOM      7  C   UNL     1       1.785   6.199  19.737  0.00  0.00    +0.000 C 
ATOM      8  C   UNL     1       2.579   5.115  19.082  0.00  0.00    +0.000 A 
ATOM      9  C   UNL     1       3.424   5.685  18.132  0.00  0.00    +0.000 A 
ATOM     10  C   UNL     1       4.312   4.938  17.381  0.00  0.00    +0.000 A 
ATOM     11  C   UNL     1       4.335   3.560  17.590  0.00  0.00    +0.000 A 
ATOM     12  C   UNL     1       3.473   2.966  18.530  0.00  0.00    +0.000 A 
ATOM     13  C   UNL     1       2.574   3.737  19.295  0.00  0.00    +0.000 A 
ATOM     14  C   UNL     1       3.185   7.135  18.083  0.00  0.00    +0.000 C 
ATOM     15  O   UNL     1       3.801   7.858  17.328  0.00  0.00    +0.000 OA
ATOM     16  C   UNL     1       0.836   8.851  20.408  0.00  0.00    +0.000 A 
ENDROOT
BRANCH  13  17
ATOM     17  C   UNL     1       1.647   3.058  20.271  0.00  0.00    +0.000 C 
ATOM     18  F   UNL     1       1.856   3.425  21.566  0.00  0.00    +0.000 F 
ATOM     19  F   UNL     1       0.338   3.327  20.015  0.00  0.00    +0.000 F 
ATOM     20  F   UNL     1       1.765   1.703  20.247  0.00  0.00    +0.000 F 
ENDBRANCH  13  17
BRANCH   1  22
ATOM     21  C   UNL     1      -0.020   9.649  23.193  0.00  0.00    +0.000 C 
ATOM     22  C   UNL     1      -0.563  10.350  21.936  0.00  0.00    +0.000 C 
BRANCH  22  23
ATOM     23  S   UNL     1      -0.689  12.164  22.204  0.00  0.00    +0.000 S 
BRANCH  23  24
ATOM     24  C   UNL     1      -2.275  12.493  21.612  0.00  0.00    +0.000 A 
ATOM     25  N   UNL     1      -2.630  12.684  20.362  0.00  0.00    +0.000 NA
ATOM     26  N   UNL     1      -4.000  12.824  20.337  0.00  0.00    +0.000 NA
ATOM     27  C   UNL     1      -4.434  12.726  21.574  0.00  0.00    +0.000 A 
ATOM     28  N   UNL     1      -3.377  12.541  22.414  0.00  0.00    +0.000 N 
ATOM     29  C   UNL     1      -3.447  12.399  23.843  0.00  0.00    +0.000 C 
ENDBRANCH  23  24
ENDBRANCH  22  23
ENDBRANCH   1  22
BRANCH   3  30
ATOM     30  N   UNL     1       1.697  12.018  17.890  0.00  0.00    +0.000 N 
ATOM     31  H   UNL     1       1.134  11.937  17.045  0.00  0.00    +0.000 HD
BRANCH  30  32
ATOM     32  C   UNL     1       1.560  13.339  18.507  0.00  0.00    +0.000 C 
BRANCH  32  33
ATOM     33  C   UNL     1       2.960  13.882  18.874  0.00  0.00    +0.000 C 
ATOM     34  C   UNL     1       2.894  15.320  19.371  0.00  0.00    +0.000 C 
BRANCH  33  35
ATOM     35  O   UNL     1       3.827  13.829  17.732  0.00  0.00    +0.000 OA
ATOM     36  H   UNL     1       3.863  14.726  17.355  0.00  0.00    +0.000 HD
ENDBRANCH  33  35
ENDBRANCH  32  33
ENDBRANCH  30  32
ENDBRANCH   3  30
TORSDOF 8
ENDMDL
MODEL 7
REMARK VINA RESULT:      -7.9      4.692      9.909
REMARK  Name = 
REMARK  11 active torsions:
REMARK  status: ('A' for Active; 'I' for Inactive)
REMARK    1  A    between atoms: C_1  and  C_2
REMARK    2  A    between atoms: C_2  and  S_3
REMARK    3  A    between atoms: C_2  and  C_10
REMARK    4  A    between atoms: S_3  and  C_4
REMARK    5  A    between atoms: N_8  and  C_9
REMARK    6  A    between atoms: C_12  and  N_13
REMARK    7  A    between atoms: N_13  and  C_14
REMARK    8  A    between atoms: C_14  and  C_15
REMARK    9  A    between atoms: C_15  and  C_16
REMARK   10  A    between atoms: C_15  and  O_17
REMARK   11  A    between atoms: C_27  and  C_28
REMARK                            x       y       z     vdW  Elec       q    Type
REMARK                         _______ _______ _______ _____ _____    ______ ____
ROOT
ATOM      1  C   UNL     1       3.003   6.602  18.530  0.00  0.00    +0.000 A 
ATOM      2  C   UNL     1       2.899   5.535  19.425  0.00  0.00    +0.000 A 
ATOM      3  C   UNL     1       2.133   5.669  20.581  0.00  0.00    +0.000 A 
ATOM      4  N   UNL     1       1.522   6.829  20.894  0.00  0.00    +0.000 NA
ATOM      5  C   UNL     1       1.642   7.889  20.067  0.00  0.00    +0.000 A 
ATOM      6  N   UNL     1       1.028   9.112  20.408  0.00  0.00    +0.000 N 
ATOM      7  C   UNL     1       0.915  10.229  19.480  0.00  0.00    +0.000 C 
ATOM      8  C   UNL     1       0.147  11.252  20.253  0.00  0.00    +0.000 A 
ATOM      9  C   UNL     1      -0.092  10.764  21.536  0.00  0.00    +0.000 A 
ATOM     10  C   UNL     1      -0.754  11.498  22.502  0.00  0.00    +0.000 A 
ATOM     11  C   UNL     1      -1.203  12.770  22.150  0.00  0.00    +0.000 A 
ATOM     12  C   UNL     1      -0.989  13.270  20.853  0.00  0.00    +0.000 A 
ATOM     13  C   UNL     1      -0.308  12.515  19.876  0.00  0.00    +0.000 A 
ATOM     14  C   UNL     1       0.449   9.400  21.641  0.00  0.00    +0.000 C 
ATOM     15  O   UNL     1       0.364   8.756  22.666  0.00  0.00    +0.000 OA
ATOM     16  C   UNL     1       2.360   7.793  18.877  0.00  0.00    +0.000 A 
ENDROOT
BRANCH  13  17
ATOM     17  C   UNL     1      -0.125  13.076  18.489  0.00  0.00    +0.000 C 
ATOM     18  F   UNL     1       1.153  12.979  18.026  0.00  0.00    +0.000 F 
ATOM     19  F   UNL     1      -0.903  12.445  17.568  0.00  0.00    +0.000 F 
ATOM     20  F   UNL     1      -0.446  14.396  18.413  0.00  0.00    +0.000 F 
ENDBRANCH  13  17
BRANCH   1  22
ATOM     21  C   UNL     1       5.085   7.364  17.275  0.00  0.00    +0.000 C 
ATOM     22  C   UNL     1       3.834   6.470  17.261  0.00  0.00    +0.000 C 
BRANCH  22  23
ATOM     23  S   UNL     1       4.297   4.702  17.058  0.00  0.00    +0.000 S 
BRANCH  23  24
ATOM     24  C   UNL     1       5.591   4.811  15.922  0.00  0.00    +0.000 A 
ATOM     25  N   UNL     1       5.493   4.997  14.626  0.00  0.00    +0.000 NA
ATOM     26  N   UNL     1       6.772   5.109  14.126  0.00  0.00    +0.000 NA
ATOM     27  C   UNL     1       7.607   4.976  15.132  0.00  0.00    +0.000 A 
ATOM     28  N   UNL     1       6.906   4.762  16.280  0.00  0.00    +0.000 N 
ATOM     29  C   UNL     1       7.467   4.559  17.589  0.00  0.00    +0.000 C 
ENDBRANCH  23  24
ENDBRANCH  22  23
ENDBRANCH   1  22
BRANCH   3  30
ATOM     30  N   UNL     1       2.020   4.544  21.415  0.00  0.00    +0.000 N 
ATOM     31  H   UNL     1       1.041   4.398  21.660  0.00  0.00    +0.000 HD
BRANCH  30  32
ATOM     32  C   UNL     1       2.639   3.319  20.904  0.00  0.00    +0.000 C 
BRANCH  32  33
ATOM     33  C   UNL     1       1.550   2.413  20.287  0.00  0.00    +0.000 C 
ATOM     34  C   UNL     1       1.855   2.077  18.833  0.00  0.00    +0.000 C 
BRANCH  33  35
ATOM     35  O   UNL     1       0.271   3.060  20.351  0.00  0.00    +0.000 OA
ATOM     36  H   UNL     1      -0.126   2.832  21.211  0.00  0.00    +0.000 HD
ENDBRANCH  33  35
ENDBRANCH  32  33
ENDBRANCH  30  32
ENDBRANCH   3  30
TORSDOF 8
ENDMDL
MODEL 8
REMARK VINA RESULT:      -7.9      4.685      9.789
REMARK  Name = 
REMARK  11 active torsions:
REMARK  status: ('A' for Active; 'I' for Inactive)
REMARK    1  A    between atoms: C_1  and  C_2
REMARK    2  A    between atoms: C_2  and  S_3
REMARK    3  A    between atoms: C_2  and  C_10
REMARK    4  A    between atoms: S_3  and  C_4
REMARK    5  A    between atoms: N_8  and  C_9
REMARK    6  A    between atoms: C_12  and  N_13
REMARK    7  A    between atoms: N_13  and  C_14
REMARK    8  A    between atoms: C_14  and  C_15
REMARK    9  A    between atoms: C_15  and  C_16
REMARK   10  A    between atoms: C_15  and  O_17
REMARK   11  A    between atoms: C_27  and  C_28
REMARK                            x       y       z     vdW  Elec       q    Type
REMARK                         _______ _______ _______ _____ _____    ______ ____
ROOT
ATOM      1  C   UNL     1       2.935   6.848  18.505  0.00  0.00    +0.000 A 
ATOM      2  C   UNL     1       2.859   5.803  19.430  0.00  0.00    +0.000 A 
ATOM      3  C   UNL     1       2.129   5.966  20.605  0.00  0.00    +0.000 A 
ATOM      4  N   UNL     1       1.527   7.134  20.908  0.00  0.00    +0.000 NA
ATOM      5  C   UNL     1       1.622   8.173  20.051  0.00  0.00    +0.000 A 
ATOM      6  N   UNL     1       1.018   9.404  20.382  0.00  0.00    +0.000 N 
ATOM      7  C   UNL     1       0.875  10.498  19.430  0.00  0.00    +0.000 C 
ATOM      8  C   UNL     1       0.131  11.539  20.201  0.00  0.00    +0.000 A 
ATOM      9  C   UNL     1      -0.068  11.083  21.502  0.00  0.00    +0.000 A 
ATOM     10  C   UNL     1      -0.700  11.841  22.470  0.00  0.00    +0.000 A 
ATOM     11  C   UNL     1      -1.160  13.104  22.101  0.00  0.00    +0.000 A 
ATOM     12  C   UNL     1      -0.987  13.572  20.786  0.00  0.00    +0.000 A 
ATOM     13  C   UNL     1      -0.337  12.792  19.807  0.00  0.00    +0.000 A 
ATOM     14  C   UNL     1       0.477   9.722  21.624  0.00  0.00    +0.000 C 
ATOM     15  O   UNL     1       0.424   9.104  22.667  0.00  0.00    +0.000 OA
ATOM     16  C   UNL     1       2.302   8.047  18.843  0.00  0.00    +0.000 A 
ENDROOT
BRANCH  13  17
ATOM     17  C   UNL     1      -0.197  13.319  18.402  0.00  0.00    +0.000 C 
ATOM     18  F   UNL     1       1.066  13.209  17.901  0.00  0.00    +0.000 F 
ATOM     19  F   UNL     1      -1.003  12.666  17.521  0.00  0.00    +0.000 F 
ATOM     20  F   UNL     1      -0.520  14.637  18.303  0.00  0.00    +0.000 F 
ENDBRANCH  13  17
BRANCH   1  22
ATOM     21  C   UNL     1       5.021   7.512  17.204  0.00  0.00    +0.000 C 
ATOM     22  C   UNL     1       3.726   6.684  17.214  0.00  0.00    +0.000 C 
BRANCH  22  23
ATOM     23  S   UNL     1       4.092   4.897  16.986  0.00  0.00    +0.000 S 
BRANCH  23  24
ATOM     24  C   UNL     1       5.729   4.808  17.522  0.00  0.00    +0.000 A 
ATOM     25  N   UNL     1       6.158   4.821  18.763  0.00  0.00    +0.000 NA
ATOM     26  N   UNL     1       7.523   4.641  18.731  0.00  0.00    +0.000 NA
ATOM     27  C   UNL     1       7.883   4.535  17.472  0.00  0.00    +0.000 A 
ATOM     28  N   UNL     1       6.786   4.658  16.673  0.00  0.00    +0.000 N 
ATOM     29  C   UNL     1       6.776   4.607  15.236  0.00  0.00    +0.000 C 
ENDBRANCH  23  24
ENDBRANCH  22  23
ENDBRANCH   1  22
BRANCH   3  30
ATOM     30  N   UNL     1       2.043   4.862  21.469  0.00  0.00    +0.000 N 
ATOM     31  H   UNL     1       1.066   4.679  21.693  0.00  0.00    +0.000 HD
BRANCH  30  32
ATOM     32  C   UNL     1       2.730   3.652  21.013  0.00  0.00    +0.000 C 
BRANCH  32  33
ATOM     33  C   UNL     1       1.715   2.492  20.915  0.00  0.00    +0.000 C 
ATOM     34  C   UNL     1       0.783   2.659  19.722  0.00  0.00    +0.000 C 
BRANCH  33  35
ATOM     35  O   UNL     1       0.924   2.421  22.111  0.00  0.00    +0.000 OA
ATOM     36  H   UNL     1       1.439   2.840  22.823  0.00  0.00    +0.000 HD
ENDBRANCH  33  35
ENDBRANCH  32  33
ENDBRANCH  30  32
ENDBRANCH   3  30
TORSDOF 8
ENDMDL
MODEL 9
REMARK VINA RESULT:      -7.8      5.054     10.280
REMARK  Name = 
REMARK  11 active torsions:
REMARK  status: ('A' for Active; 'I' for Inactive)
REMARK    1  A    between atoms: C_1  and  C_2
REMARK    2  A    between atoms: C_2  and  S_3
REMARK    3  A    between atoms: C_2  and  C_10
REMARK    4  A    between atoms: S_3  and  C_4
REMARK    5  A    between atoms: N_8  and  C_9
REMARK    6  A    between atoms: C_12  and  N_13
REMARK    7  A    between atoms: N_13  and  C_14
REMARK    8  A    between atoms: C_14  and  C_15
REMARK    9  A    between atoms: C_15  and  C_16
REMARK   10  A    between atoms: C_15  and  O_17
REMARK   11  A    between atoms: C_27  and  C_28
REMARK                            x       y       z     vdW  Elec       q    Type
REMARK                         _______ _______ _______ _____ _____    ______ ____
ROOT
ATOM      1  C   UNL     1       4.594   5.691  17.352  0.00  0.00    +0.000 A 
ATOM      2  C   UNL     1       4.294   4.396  17.782  0.00  0.00    +0.000 A 
ATOM      3  C   UNL     1       3.270   4.189  18.704  0.00  0.00    +0.000 A 
ATOM      4  N   UNL     1       2.585   5.218  19.242  0.00  0.00    +0.000 NA
ATOM      5  C   UNL     1       2.885   6.482  18.877  0.00  0.00    +0.000 A 
ATOM      6  N   UNL     1       2.188   7.560  19.462  0.00  0.00    +0.000 N 
ATOM      7  C   UNL     1       2.285   8.928  18.969  0.00  0.00    +0.000 C 
ATOM      8  C   UNL     1       1.339   9.684  19.844  0.00  0.00    +0.000 A 
ATOM      9  C   UNL     1       0.806   8.813  20.793  0.00  0.00    +0.000 A 
ATOM     10  C   UNL     1      -0.080   9.227  21.770  0.00  0.00    +0.000 A 
ATOM     11  C   UNL     1      -0.450  10.571  21.778  0.00  0.00    +0.000 A 
ATOM     12  C   UNL     1       0.063  11.459  20.815  0.00  0.00    +0.000 A 
ATOM     13  C   UNL     1       0.969  11.028  19.825  0.00  0.00    +0.000 A 
ATOM     14  C   UNL     1       1.326   7.459  20.549  0.00  0.00    +0.000 C 
ATOM     15  O   UNL     1       1.006   6.518  21.245  0.00  0.00    +0.000 OA
ATOM     16  C   UNL     1       3.869   6.739  17.925  0.00  0.00    +0.000 A 
ENDROOT
BRANCH  13  17
ATOM     17  C   UNL     1       1.472  12.006  18.794  0.00  0.00    +0.000 C 
ATOM     18  F   UNL     1       2.145  11.416  17.766  0.00  0.00    +0.000 F 
ATOM     19  F   UNL     1       0.464  12.716  18.219  0.00  0.00    +0.000 F 
ATOM     20  F   UNL     1       2.328  12.924  19.317  0.00  0.00    +0.000 F 
ENDBRANCH  13  17
BRANCH   1  22
ATOM     21  C   UNL     1       6.912   6.670  16.952  0.00  0.00    +0.000 C 
ATOM     22  C   UNL     1       5.707   5.933  16.342  0.00  0.00    +0.000 C 
BRANCH  22  23
ATOM     23  S   UNL     1       6.219   4.309  15.648  0.00  0.00    +0.000 S 
BRANCH  23  24
ATOM     24  C   UNL     1       6.970   4.784  14.170  0.00  0.00    +0.000 A 
ATOM     25  N   UNL     1       7.962   5.631  14.024  0.00  0.00    +0.000 NA
ATOM     26  N   UNL     1       8.301   5.645  12.688  0.00  0.00    +0.000 NA
ATOM     27  C   UNL     1       7.496   4.815  12.064  0.00  0.00    +0.000 A 
ATOM     28  N   UNL     1       6.624   4.268  12.956  0.00  0.00    +0.000 N 
ATOM     29  C   UNL     1       5.585   3.322  12.653  0.00  0.00    +0.000 C 
ENDBRANCH  23  24
ENDBRANCH  22  23
ENDBRANCH   1  22
BRANCH   3  30
ATOM     30  N   UNL     1       2.977   2.861  19.055  0.00  0.00    +0.000 N 
ATOM     31  H   UNL     1       3.321   2.232  18.331  0.00  0.00    +0.000 HD
BRANCH  30  32
ATOM     32  C   UNL     1       3.426   2.451  20.387  0.00  0.00    +0.000 C 
BRANCH  32  33
ATOM     33  C   UNL     1       2.298   2.710  21.411  0.00  0.00    +0.000 C 
ATOM     34  C   UNL     1       0.921   2.606  20.770  0.00  0.00    +0.000 C 
BRANCH  33  35
ATOM     35  O   UNL     1       2.441   4.018  21.986  0.00  0.00    +0.000 OA
ATOM     36  H   UNL     1       1.584   4.470  21.892  0.00  0.00    +0.000 HD
ENDBRANCH  33  35
ENDBRANCH  32  33
ENDBRANCH  30  32
ENDBRANCH   3  30
TORSDOF 8
ENDMDL
