MODEL 1
REMARK VINA RESULT:      -8.2      0.000      0.000
REMARK  Name = 
REMARK  6 active torsions:
REMARK  status: ('A' for Active; 'I' for Inactive)
REMARK    1  A    between atoms: C_1  and  C_2
REMARK    2  A    between atoms: C_2  and  S_3
REMARK    3  A    between atoms: C_2  and  C_10
REMARK    4  A    between atoms: S_3  and  C_4
REMARK    5  A    between atoms: N_8  and  C_9
REMARK    6  A    between atoms: C_14  and  N_15
REMARK                            x       y       z     vdW  Elec       q    Type
REMARK                         _______ _______ _______ _____ _____    ______ ____
ROOT
ATOM      1  C   UNL     1       3.895   5.190  18.005  0.00  0.00    +0.000 A 
ATOM      2  C   UNL     1       3.314   3.917  18.089  0.00  0.00    +0.000 A 
ATOM      3  C   UNL     1       2.214   3.686  18.914  0.00  0.00    +0.000 A 
ATOM      4  C   UNL     1       1.687   4.714  19.691  0.00  0.00    +0.000 A 
ATOM      5  C   UNL     1       2.259   5.981  19.665  0.00  0.00    +0.000 A 
ATOM      6  C   UNL     1       3.344   6.217  18.802  0.00  0.00    +0.000 A 
ENDROOT
BRANCH   5   7
ATOM      7  N   UNL     1       1.812   7.066  20.453  0.00  0.00    +0.000 N 
ATOM      8  C   UNL     1       1.504   8.335  20.026  0.00  0.00    +0.000 C 
ATOM      9  O   UNL     1       1.502   8.685  18.848  0.00  0.00    +0.000 OA
ATOM     10  N   UNL     1       1.167   9.238  21.028  0.00  0.00    +0.000 N 
ATOM     11  C   UNL     1       1.227   9.043  22.482  0.00  0.00    +0.000 C 
ATOM     12  C   UNL     1       0.003   9.678  23.150  0.00  0.00    +0.000 C 
ATOM     13  O   UNL     1      -0.098  11.070  22.820  0.00  0.00    +0.000 OA
ATOM     14  C   UNL     1      -0.234  11.244  21.401  0.00  0.00    +0.000 C 
ATOM     15  C   UNL     1       0.954  10.640  20.647  0.00  0.00    +0.000 C 
ATOM     16  H   UNL     1       1.581   6.828  21.399  0.00  0.00    +0.000 HD
ENDBRANCH   5   7
BRANCH   1  18
ATOM     17  C   UNL     1       4.892   6.709  16.191  0.00  0.00    +0.000 C 
ATOM     18  C   UNL     1       5.098   5.495  17.108  0.00  0.00    +0.000 C 
BRANCH  18  19
ATOM     19  S   UNL     1       5.485   3.997  16.111  0.00  0.00    +0.000 S 
BRANCH  19  20
ATOM     20  C   UNL     1       6.608   4.588  14.945  0.00  0.00    +0.000 A 
ATOM     21  N   UNL     1       7.651   5.360  15.149  0.00  0.00    +0.000 NA
ATOM     22  N   UNL     1       8.215   5.632  13.919  0.00  0.00    +0.000 NA
ATOM     23  C   UNL     1       7.508   5.000  13.008  0.00  0.00    +0.000 A 
ATOM     24  N   UNL     1       6.503   4.308  13.613  0.00  0.00    +0.000 N 
ATOM     25  C   UNL     1       5.535   3.469  12.960  0.00  0.00    +0.000 C 
ENDBRANCH  19  20
ENDBRANCH  18  19
ENDBRANCH   1  18
TORSDOF 4
ENDMDL
MODEL 2
REMARK VINA RESULT:      -7.6      1.151      1.344
REMARK  Name = 
REMARK  6 active torsions:
REMARK  status: ('A' for Active; 'I' for Inactive)
REMARK    1  A    between atoms: C_1  and  C_2
REMARK    2  A    between atoms: C_2  and  S_3
REMARK    3  A    between atoms: C_2  and  C_10
REMARK    4  A    between atoms: S_3  and  C_4
REMARK    5  A    between atoms: N_8  and  C_9
REMARK    6  A    between atoms: C_14  and  N_15
REMARK                            x       y       z     vdW  Elec       q    Type
REMARK                         _______ _______ _______ _____ _____    ______ ____
ROOT
ATOM      1  C   UNL     1       3.630   4.729  19.134  0.00  0.00    +0.000 A 
ATOM      2  C   UNL     1       2.927   3.522  19.253  0.00  0.00    +0.000 A 
ATOM      3  C   UNL     1       1.714   3.464  19.938  0.00  0.00    +0.000 A 
ATOM      4  C   UNL     1       1.191   4.606  20.542  0.00  0.00    +0.000 A 
ATOM      5  C   UNL     1       1.877   5.813  20.479  0.00  0.00    +0.000 A 
ATOM      6  C   UNL     1       3.081   5.872  19.753  0.00  0.00    +0.000 A 
ENDROOT
BRANCH   5   7
ATOM      7  N   UNL     1       1.437   7.004  21.099  0.00  0.00    +0.000 N 
ATOM      8  C   UNL     1       1.354   8.256  20.536  0.00  0.00    +0.000 C 
ATOM      9  O   UNL     1       1.587   8.497  19.354  0.00  0.00    +0.000 OA
ATOM     10  N   UNL     1       0.965   9.275  21.398  0.00  0.00    +0.000 N 
ATOM     11  C   UNL     1       0.762   9.206  22.850  0.00  0.00    +0.000 C 
ATOM     12  C   UNL     1      -0.472  10.021  23.249  0.00  0.00    +0.000 C 
ATOM     13  O   UNL     1      -0.354  11.381  22.809  0.00  0.00    +0.000 OA
ATOM     14  C   UNL     1      -0.234  11.440  21.379  0.00  0.00    +0.000 C 
ATOM     15  C   UNL     1       0.984  10.652  20.887  0.00  0.00    +0.000 C 
ATOM     16  H   UNL     1       1.027   6.878  22.005  0.00  0.00    +0.000 HD
ENDBRANCH   5   7
BRANCH   1  18
ATOM     17  C   UNL     1       6.144   5.229  19.282  0.00  0.00    +0.000 C 
ATOM     18  C   UNL     1       4.960   4.844  18.383  0.00  0.00    +0.000 C 
BRANCH  18  19
ATOM     19  S   UNL     1       4.765   6.067  17.021  0.00  0.00    +0.000 S 
BRANCH  19  20
ATOM     20  C   UNL     1       6.047   5.656  15.946  0.00  0.00    +0.000 A 
ATOM     21  N   UNL     1       7.270   6.135  15.929  0.00  0.00    +0.000 NA
ATOM     22  N   UNL     1       7.925   5.568  14.854  0.00  0.00    +0.000 NA
ATOM     23  C   UNL     1       7.085   4.747  14.265  0.00  0.00    +0.000 A 
ATOM     24  N   UNL     1       5.900   4.751  14.936  0.00  0.00    +0.000 N 
ATOM     25  C   UNL     1       4.740   3.962  14.619  0.00  0.00    +0.000 C 
ENDBRANCH  19  20
ENDBRANCH  18  19
ENDBRANCH   1  18
TORSDOF 4
ENDMDL
MODEL 3
REMARK VINA RESULT:      -7.5      2.311      3.370
REMARK  Name = 
REMARK  6 active torsions:
REMARK  status: ('A' for Active; 'I' for Inactive)
REMARK    1  A    between atoms: C_1  and  C_2
REMARK    2  A    between atoms: C_2  and  S_3
REMARK    3  A    between atoms: C_2  and  C_10
REMARK    4  A    between atoms: S_3  and  C_4
REMARK    5  A    between atoms: N_8  and  C_9
REMARK    6  A    between atoms: C_14  and  N_15
REMARK                            x       y       z     vdW  Elec       q    Type
REMARK                         _______ _______ _______ _____ _____    ______ ____
ROOT
ATOM      1  C   UNL     1       4.438   4.801  16.753  0.00  0.00    +0.000 A 
ATOM      2  C   UNL     1       3.788   3.626  17.159  0.00  0.00    +0.000 A 
ATOM      3  C   UNL     1       2.594   3.680  17.876  0.00  0.00    +0.000 A 
ATOM      4  C   UNL     1       2.037   4.908  18.226  0.00  0.00    +0.000 A 
ATOM      5  C   UNL     1       2.671   6.095  17.877  0.00  0.00    +0.000 A 
ATOM      6  C   UNL     1       3.855   6.033  17.120  0.00  0.00    +0.000 A 
ENDROOT
BRANCH   5   7
ATOM      7  N   UNL     1       2.195   7.378  18.229  0.00  0.00    +0.000 N 
ATOM      8  C   UNL     1       1.802   7.809  19.474  0.00  0.00    +0.000 C 
ATOM      9  O   UNL     1       1.887   7.133  20.496  0.00  0.00    +0.000 OA
ATOM     10  N   UNL     1       1.294   9.102  19.526  0.00  0.00    +0.000 N 
ATOM     11  C   UNL     1       1.006  10.009  18.408  0.00  0.00    +0.000 C 
ATOM     12  C   UNL     1       1.425  11.438  18.768  0.00  0.00    +0.000 C 
ATOM     13  O   UNL     1       0.775  11.877  19.969  0.00  0.00    +0.000 OA
ATOM     14  C   UNL     1       1.126  11.028  21.072  0.00  0.00    +0.000 C 
ATOM     15  C   UNL     1       0.738   9.571  20.802  0.00  0.00    +0.000 C 
ATOM     16  H   UNL     1       2.283   8.069  17.508  0.00  0.00    +0.000 HD
ENDBRANCH   5   7
BRANCH   1  18
ATOM     17  C   UNL     1       5.805   3.700  14.880  0.00  0.00    +0.000 C 
ATOM     18  C   UNL     1       5.746   4.793  15.957  0.00  0.00    +0.000 C 
BRANCH  18  19
ATOM     19  S   UNL     1       7.151   4.612  17.132  0.00  0.00    +0.000 S 
BRANCH  19  20
ATOM     20  C   UNL     1       7.535   6.243  17.530  0.00  0.00    +0.000 A 
ATOM     21  N   UNL     1       7.442   7.304  16.762  0.00  0.00    +0.000 NA
ATOM     22  N   UNL     1       7.922   8.382  17.479  0.00  0.00    +0.000 NA
ATOM     23  C   UNL     1       8.273   7.944  18.667  0.00  0.00    +0.000 A 
ATOM     24  N   UNL     1       8.021   6.608  18.752  0.00  0.00    +0.000 N 
ATOM     25  C   UNL     1       8.241   5.773  19.902  0.00  0.00    +0.000 C 
ENDBRANCH  19  20
ENDBRANCH  18  19
ENDBRANCH   1  18
TORSDOF 4
ENDMDL
MODEL 4
REMARK VINA RESULT:      -7.3      1.791      2.512
REMARK  Name = 
REMARK  6 active torsions:
REMARK  status: ('A' for Active; 'I' for Inactive)
REMARK    1  A    between atoms: C_1  and  C_2
REMARK    2  A    between atoms: C_2  and  S_3
REMARK    3  A    between atoms: C_2  and  C_10
REMARK    4  A    between atoms: S_3  and  C_4
REMARK    5  A    between atoms: N_8  and  C_9
REMARK    6  A    between atoms: C_14  and  N_15
REMARK                            x       y       z     vdW  Elec       q    Type
REMARK                         _______ _______ _______ _____ _____    ______ ____
ROOT
ATOM      1  C   UNL     1       2.850   4.591  18.624  0.00  0.00    +0.000 A 
ATOM      2  C   UNL     1       2.817   3.381  19.332  0.00  0.00    +0.000 A 
ATOM      3  C   UNL     1       2.289   3.320  20.621  0.00  0.00    +0.000 A 
ATOM      4  C   UNL     1       1.807   4.471  21.240  0.00  0.00    +0.000 A 
ATOM      5  C   UNL     1       1.858   5.697  20.586  0.00  0.00    +0.000 A 
ATOM      6  C   UNL     1       2.356   5.744  19.271  0.00  0.00    +0.000 A 
ENDROOT
BRANCH   5   7
ATOM      7  N   UNL     1       1.430   6.916  21.159  0.00  0.00    +0.000 N 
ATOM      8  C   UNL     1       1.416   8.156  20.566  0.00  0.00    +0.000 C 
ATOM      9  O   UNL     1       1.713   8.363  19.392  0.00  0.00    +0.000 OA
ATOM     10  N   UNL     1       1.022   9.206  21.387  0.00  0.00    +0.000 N 
ATOM     11  C   UNL     1       0.748   9.177  22.829  0.00  0.00    +0.000 C 
ATOM     12  C   UNL     1      -0.476  10.042  23.151  0.00  0.00    +0.000 C 
ATOM     13  O   UNL     1      -0.290  11.387  22.688  0.00  0.00    +0.000 OA
ATOM     14  C   UNL     1      -0.100  11.409  21.265  0.00  0.00    +0.000 C 
ATOM     15  C   UNL     1       1.111  10.570  20.849  0.00  0.00    +0.000 C 
ATOM     16  H   UNL     1       0.973   6.823  22.046  0.00  0.00    +0.000 HD
ENDBRANCH   5   7
BRANCH   1  18
ATOM     17  C   UNL     1       4.132   3.440  16.721  0.00  0.00    +0.000 C 
ATOM     18  C   UNL     1       3.410   4.706  17.203  0.00  0.00    +0.000 C 
BRANCH  18  19
ATOM     19  S   UNL     1       4.542   6.156  17.131  0.00  0.00    +0.000 S 
BRANCH  19  20
ATOM     20  C   UNL     1       5.955   5.584  17.933  0.00  0.00    +0.000 A 
ATOM     21  N   UNL     1       6.176   5.512  19.226  0.00  0.00    +0.000 NA
ATOM     22  N   UNL     1       7.467   5.057  19.404  0.00  0.00    +0.000 NA
ATOM     23  C   UNL     1       7.983   4.848  18.214  0.00  0.00    +0.000 A 
ATOM     24  N   UNL     1       7.056   5.140  17.259  0.00  0.00    +0.000 N 
ATOM     25  C   UNL     1       7.229   5.011  15.838  0.00  0.00    +0.000 C 
ENDBRANCH  19  20
ENDBRANCH  18  19
ENDBRANCH   1  18
TORSDOF 4
ENDMDL
MODEL 5
REMARK VINA RESULT:      -7.3      1.769      2.432
REMARK  Name = 
REMARK  6 active torsions:
REMARK  status: ('A' for Active; 'I' for Inactive)
REMARK    1  A    between atoms: C_1  and  C_2
REMARK    2  A    between atoms: C_2  and  S_3
REMARK    3  A    between atoms: C_2  and  C_10
REMARK    4  A    between atoms: S_3  and  C_4
REMARK    5  A    between atoms: N_8  and  C_9
REMARK    6  A    between atoms: C_14  and  N_15
REMARK                            x       y       z     vdW  Elec       q    Type
REMARK                         _______ _______ _______ _____ _____    ______ ____
ROOT
ATOM      1  C   UNL     1       2.804   4.664  18.660  0.00  0.00    +0.000 A 
ATOM      2  C   UNL     1       2.851   3.471  19.396  0.00  0.00    +0.000 A 
ATOM      3  C   UNL     1       2.390   3.422  20.710  0.00  0.00    +0.000 A 
ATOM      4  C   UNL     1       1.896   4.570  21.327  0.00  0.00    +0.000 A 
ATOM      5  C   UNL     1       1.869   5.780  20.644  0.00  0.00    +0.000 A 
ATOM      6  C   UNL     1       2.300   5.813  19.305  0.00  0.00    +0.000 A 
ENDROOT
BRANCH   5   7
ATOM      7  N   UNL     1       1.424   6.996  21.210  0.00  0.00    +0.000 N 
ATOM      8  C   UNL     1       1.415   8.237  20.618  0.00  0.00    +0.000 C 
ATOM      9  O   UNL     1       1.734   8.447  19.450  0.00  0.00    +0.000 OA
ATOM     10  N   UNL     1       1.000   9.284  21.432  0.00  0.00    +0.000 N 
ATOM     11  C   UNL     1       0.698   9.252  22.869  0.00  0.00    +0.000 C 
ATOM     12  C   UNL     1      -0.536  10.110  23.168  0.00  0.00    +0.000 C 
ATOM     13  O   UNL     1      -0.348  11.457  22.711  0.00  0.00    +0.000 OA
ATOM     14  C   UNL     1      -0.131  11.482  21.292  0.00  0.00    +0.000 C 
ATOM     15  C   UNL     1       1.093  10.650  20.898  0.00  0.00    +0.000 C 
ATOM     16  H   UNL     1       0.950   6.901  22.088  0.00  0.00    +0.000 HD
ENDBRANCH   5   7
BRANCH   1  18
ATOM     17  C   UNL     1       3.986   3.493  16.704  0.00  0.00    +0.000 C 
ATOM     18  C   UNL     1       3.291   4.765  17.211  0.00  0.00    +0.000 C 
BRANCH  18  19
ATOM     19  S   UNL     1       4.419   6.212  17.067  0.00  0.00    +0.000 S 
BRANCH  19  20
ATOM     20  C   UNL     1       5.977   5.482  16.990  0.00  0.00    +0.000 A 
ATOM     21  N   UNL     1       6.654   5.139  15.918  0.00  0.00    +0.000 NA
ATOM     22  N   UNL     1       7.819   4.528  16.338  0.00  0.00    +0.000 NA
ATOM     23  C   UNL     1       7.821   4.538  17.653  0.00  0.00    +0.000 A 
ATOM     24  N   UNL     1       6.693   5.154  18.104  0.00  0.00    +0.000 N 
ATOM     25  C   UNL     1       6.345   5.390  19.479  0.00  0.00    +0.000 C 
ENDBRANCH  19  20
ENDBRANCH  18  19
ENDBRANCH   1  18
TORSDOF 4
ENDMDL
MODEL 6
REMARK VINA RESULT:      -7.3      4.355      8.668
REMARK  Name = 
REMARK  6 active torsions:
REMARK  status: ('A' for Active; 'I' for Inactive)
REMARK    1  A    between atoms: C_1  and  C_2
REMARK    2  A    between atoms: C_2  and  S_3
REMARK    3  A    between atoms: C_2  and  C_10
REMARK    4  A    between atoms: S_3  and  C_4
REMARK    5  A    between atoms: N_8  and  C_9
REMARK    6  A    between atoms: C_14  and  N_15
REMARK                            x       y       z     vdW  Elec       q    Type
REMARK                         _______ _______ _______ _____ _____    ______ ____
ROOT
ATOM      1  C   UNL     1       0.012  10.573  19.736  0.00  0.00    +0.000 A 
ATOM      2  C   UNL     1      -0.332  10.536  21.095  0.00  0.00    +0.000 A 
ATOM      3  C   UNL     1       0.197   9.562  21.941  0.00  0.00    +0.000 A 
ATOM      4  C   UNL     1       1.060   8.589  21.443  0.00  0.00    +0.000 A 
ATOM      5  C   UNL     1       1.395   8.569  20.094  0.00  0.00    +0.000 A 
ATOM      6  C   UNL     1       0.888   9.577  19.254  0.00  0.00    +0.000 A 
ENDROOT
BRANCH   5   7
ATOM      7  N   UNL     1       2.228   7.593  19.501  0.00  0.00    +0.000 N 
ATOM      8  C   UNL     1       2.306   6.258  19.820  0.00  0.00    +0.000 C 
ATOM      9  O   UNL     1       1.579   5.701  20.639  0.00  0.00    +0.000 OA
ATOM     10  N   UNL     1       3.275   5.535  19.134  0.00  0.00    +0.000 N 
ATOM     11  C   UNL     1       4.305   6.041  18.218  0.00  0.00    +0.000 C 
ATOM     12  C   UNL     1       4.461   5.093  17.025  0.00  0.00    +0.000 C 
ATOM     13  O   UNL     1       4.769   3.762  17.463  0.00  0.00    +0.000 OA
ATOM     14  C   UNL     1       3.718   3.249  18.295  0.00  0.00    +0.000 C 
ATOM     15  C   UNL     1       3.493   4.136  19.523  0.00  0.00    +0.000 C 
ATOM     16  H   UNL     1       2.713   7.900  18.680  0.00  0.00    +0.000 HD
ENDBRANCH   5   7
BRANCH   1  18
ATOM     17  C   UNL     1      -0.044  13.051  19.068  0.00  0.00    +0.000 C 
ATOM     18  C   UNL     1      -0.536  11.628  18.771  0.00  0.00    +0.000 C 
BRANCH  18  19
ATOM     19  S   UNL     1      -2.375  11.564  18.809  0.00  0.00    +0.000 S 
BRANCH  19  20
ATOM     20  C   UNL     1      -2.772  10.926  17.258  0.00  0.00    +0.000 A 
ATOM     21  N   UNL     1      -2.028  10.172  16.482  0.00  0.00    +0.000 NA
ATOM     22  N   UNL     1      -2.728   9.961  15.311  0.00  0.00    +0.000 NA
ATOM     23  C   UNL     1      -3.884  10.576  15.422  0.00  0.00    +0.000 A 
ATOM     24  N   UNL     1      -3.965  11.174  16.643  0.00  0.00    +0.000 N 
ATOM     25  C   UNL     1      -5.084  11.919  17.153  0.00  0.00    +0.000 C 
ENDBRANCH  19  20
ENDBRANCH  18  19
ENDBRANCH   1  18
TORSDOF 4
ENDMDL
MODEL 7
REMARK VINA RESULT:      -7.3      4.414      7.290
REMARK  Name = 
REMARK  6 active torsions:
REMARK  status: ('A' for Active; 'I' for Inactive)
REMARK    1  A    between atoms: C_1  and  C_2
REMARK    2  A    between atoms: C_2  and  S_3
REMARK    3  A    between atoms: C_2  and  C_10
REMARK    4  A    between atoms: S_3  and  C_4
REMARK    5  A    between atoms: N_8  and  C_9
REMARK    6  A    between atoms: C_14  and  N_15
REMARK                            x       y       z     vdW  Elec       q    Type
REMARK                         _______ _______ _______ _____ _____    ______ ____
ROOT
ATOM      1  C   UNL     1       4.572   5.594  17.224  0.00  0.00    +0.000 A 
ATOM      2  C   UNL     1       5.202   4.625  16.430  0.00  0.00    +0.000 A 
ATOM      3  C   UNL     1       6.503   4.813  15.968  0.00  0.00    +0.000 A 
ATOM      4  C   UNL     1       7.195   5.985  16.267  0.00  0.00    +0.000 A 
ATOM      5  C   UNL     1       6.591   6.987  17.018  0.00  0.00    +0.000 A 
ATOM      6  C   UNL     1       5.292   6.773  17.513  0.00  0.00    +0.000 A 
ENDROOT
BRANCH   5   7
ATOM      7  N   UNL     1       7.206   8.220  17.329  0.00  0.00    +0.000 N 
ATOM      8  C   UNL     1       8.161   8.457  18.290  0.00  0.00    +0.000 C 
ATOM      9  O   UNL     1       8.680   7.581  18.977  0.00  0.00    +0.000 OA
ATOM     10  N   UNL     1       8.537   9.786  18.443  0.00  0.00    +0.000 N 
ATOM     11  C   UNL     1       7.953  10.974  17.807  0.00  0.00    +0.000 C 
ATOM     12  C   UNL     1       9.060  11.953  17.401  0.00  0.00    +0.000 C 
ATOM     13  O   UNL     1       9.864  12.316  18.532  0.00  0.00    +0.000 OA
ATOM     14  C   UNL     1      10.493  11.156  19.098  0.00  0.00    +0.000 C 
ATOM     15  C   UNL     1       9.456  10.118  19.540  0.00  0.00    +0.000 C 
ATOM     16  H   UNL     1       7.005   8.962  16.686  0.00  0.00    +0.000 HD
ENDBRANCH   5   7
BRANCH   1  18
ATOM     17  C   UNL     1       2.967   5.944  19.196  0.00  0.00    +0.000 C 
ATOM     18  C   UNL     1       3.148   5.428  17.762  0.00  0.00    +0.000 C 
BRANCH  18  19
ATOM     19  S   UNL     1       2.680   3.651  17.656  0.00  0.00    +0.000 S 
BRANCH  19  20
ATOM     20  C   UNL     1       2.205   3.279  19.269  0.00  0.00    +0.000 A 
ATOM     21  N   UNL     1       1.028   3.453  19.824  0.00  0.00    +0.000 NA
ATOM     22  N   UNL     1       1.131   3.078  21.148  0.00  0.00    +0.000 NA
ATOM     23  C   UNL     1       2.363   2.669  21.351  0.00  0.00    +0.000 A 
ATOM     24  N   UNL     1       3.067   2.753  20.188  0.00  0.00    +0.000 N 
ATOM     25  C   UNL     1       4.439   2.369  19.995  0.00  0.00    +0.000 C 
ENDBRANCH  19  20
ENDBRANCH  18  19
ENDBRANCH   1  18
TORSDOF 4
ENDMDL
MODEL 8
REMARK VINA RESULT:      -7.3      1.832      2.322
REMARK  Name = 
REMARK  6 active torsions:
REMARK  status: ('A' for Active; 'I' for Inactive)
REMARK    1  A    between atoms: C_1  and  C_2
REMARK    2  A    between atoms: C_2  and  S_3
REMARK    3  A    between atoms: C_2  and  C_10
REMARK    4  A    between atoms: S_3  and  C_4
REMARK    5  A    between atoms: N_8  and  C_9
REMARK    6  A    between atoms: C_14  and  N_15
REMARK                            x       y       z     vdW  Elec       q    Type
REMARK                         _______ _______ _______ _____ _____    ______ ____
ROOT
ATOM      1  C   UNL     1       3.557   3.977  19.453  0.00  0.00    +0.000 A 
ATOM      2  C   UNL     1       2.664   2.897  19.495  0.00  0.00    +0.000 A 
ATOM      3  C   UNL     1       1.370   3.057  19.989  0.00  0.00    +0.000 A 
ATOM      4  C   UNL     1       0.949   4.292  20.477  0.00  0.00    +0.000 A 
ATOM      5  C   UNL     1       1.817   5.377  20.489  0.00  0.00    +0.000 A 
ATOM      6  C   UNL     1       3.108   5.219  19.953  0.00  0.00    +0.000 A 
ENDROOT
BRANCH   5   7
ATOM      7  N   UNL     1       1.483   6.650  21.004  0.00  0.00    +0.000 N 
ATOM      8  C   UNL     1       1.433   7.840  20.318  0.00  0.00    +0.000 C 
ATOM      9  O   UNL     1       1.603   7.945  19.106  0.00  0.00    +0.000 OA
ATOM     10  N   UNL     1       1.155   8.963  21.089  0.00  0.00    +0.000 N 
ATOM     11  C   UNL     1       1.042   9.055  22.550  0.00  0.00    +0.000 C 
ATOM     12  C   UNL     1      -0.119   9.980  22.931  0.00  0.00    +0.000 C 
ATOM     13  O   UNL     1       0.046  11.279  22.344  0.00  0.00    +0.000 OA
ATOM     14  C   UNL     1       0.078  11.184  20.912  0.00  0.00    +0.000 C 
ATOM     15  C   UNL     1       1.216  10.278  20.436  0.00  0.00    +0.000 C 
ATOM     16  H   UNL     1       1.125   6.641  21.940  0.00  0.00    +0.000 HD
ENDBRANCH   5   7
BRANCH   1  18
ATOM     17  C   UNL     1       5.979   4.820  19.568  0.00  0.00    +0.000 C 
ATOM     18  C   UNL     1       4.983   3.854  18.911  0.00  0.00    +0.000 C 
BRANCH  18  19
ATOM     19  S   UNL     1       4.946   4.113  17.089  0.00  0.00    +0.000 S 
BRANCH  19  20
ATOM     20  C   UNL     1       6.012   5.448  16.866  0.00  0.00    +0.000 A 
ATOM     21  N   UNL     1       7.296   5.418  16.588  0.00  0.00    +0.000 NA
ATOM     22  N   UNL     1       7.749   6.721  16.570  0.00  0.00    +0.000 NA
ATOM     23  C   UNL     1       6.722   7.503  16.817  0.00  0.00    +0.000 A 
ATOM     24  N   UNL     1       5.603   6.745  16.983  0.00  0.00    +0.000 N 
ATOM     25  C   UNL     1       4.275   7.233  17.239  0.00  0.00    +0.000 C 
ENDBRANCH  19  20
ENDBRANCH  18  19
ENDBRANCH   1  18
TORSDOF 4
ENDMDL
MODEL 9
REMARK VINA RESULT:      -7.2      2.718      3.766
REMARK  Name = 
REMARK  6 active torsions:
REMARK  status: ('A' for Active; 'I' for Inactive)
REMARK    1  A    between atoms: C_1  and  C_2
REMARK    2  A    between atoms: C_2  and  S_3
REMARK    3  A    between atoms: C_2  and  C_10
REMARK    4  A    between atoms: S_3  and  C_4
REMARK    5  A    between atoms: N_8  and  C_9
REMARK    6  A    between atoms: C_14  and  N_15
REMARK                            x       y       z     vdW  Elec       q    Type
REMARK                         _______ _______ _______ _____ _____    ______ ____
ROOT
ATOM      1  C   UNL     1       2.665   5.771  18.721  0.00  0.00    +0.000 A 
ATOM      2  C   UNL     1       2.196   5.239  19.931  0.00  0.00    +0.000 A 
ATOM      3  C   UNL     1       1.584   6.055  20.882  0.00  0.00    +0.000 A 
ATOM      4  C   UNL     1       1.450   7.423  20.656  0.00  0.00    +0.000 A 
ATOM      5  C   UNL     1       1.937   7.994  19.486  0.00  0.00    +0.000 A 
ATOM      6  C   UNL     1       2.519   7.160  18.515  0.00  0.00    +0.000 A 
ENDROOT
BRANCH   5   7
ATOM      7  N   UNL     1       1.879   9.377  19.199  0.00  0.00    +0.000 N 
ATOM      8  C   UNL     1       0.762  10.178  19.179  0.00  0.00    +0.000 C 
ATOM      9  O   UNL     1      -0.364   9.801  19.495  0.00  0.00    +0.000 OA
ATOM     10  N   UNL     1       0.977  11.493  18.782  0.00  0.00    +0.000 N 
ATOM     11  C   UNL     1       2.211  12.093  18.259  0.00  0.00    +0.000 C 
ATOM     12  C   UNL     1       2.404  13.496  18.843  0.00  0.00    +0.000 C 
ATOM     13  O   UNL     1       1.269  14.328  18.565  0.00  0.00    +0.000 OA
ATOM     14  C   UNL     1       0.080  13.771  19.148  0.00  0.00    +0.000 C 
ATOM     15  C   UNL     1      -0.196  12.362  18.616  0.00  0.00    +0.000 C 
ATOM     16  H   UNL     1       2.772   9.828  19.131  0.00  0.00    +0.000 HD
ENDBRANCH   5   7
BRANCH   1  18
ATOM     17  C   UNL     1       2.544   3.651  17.279  0.00  0.00    +0.000 C 
ATOM     18  C   UNL     1       3.336   4.915  17.643  0.00  0.00    +0.000 C 
BRANCH  18  19
ATOM     19  S   UNL     1       5.029   4.470  18.212  0.00  0.00    +0.000 S 
BRANCH  19  20
ATOM     20  C   UNL     1       5.962   5.847  17.763  0.00  0.00    +0.000 A 
ATOM     21  N   UNL     1       5.717   6.709  16.803  0.00  0.00    +0.000 NA
ATOM     22  N   UNL     1       6.769   7.602  16.766  0.00  0.00    +0.000 NA
ATOM     23  C   UNL     1       7.609   7.266  17.719  0.00  0.00    +0.000 A 
ATOM     24  N   UNL     1       7.128   6.182  18.389  0.00  0.00    +0.000 N 
ATOM     25  C   UNL     1       7.744   5.536  19.515  0.00  0.00    +0.000 C 
ENDBRANCH  19  20
ENDBRANCH  18  19
ENDBRANCH   1  18
TORSDOF 4
ENDMDL
