MODEL 1
REMARK VINA RESULT:      -9.5      0.000      0.000
REMARK  Name = 
REMARK  8 active torsions:
REMARK  status: ('A' for Active; 'I' for Inactive)
REMARK    1  A    between atoms: C_1  and  N_2
REMARK    2  A    between atoms: C_6  and  C_7
REMARK    3  A    between atoms: C_7  and  C_8
REMARK    4  A    between atoms: C_8  and  C_9
REMARK    5  A    between atoms: C_13  and  N_14
REMARK    6  A    between atoms: C_19  and  C_20
REMARK    7  A    between atoms: C_20  and  N_21
REMARK    8  A    between atoms: C_28  and  C_29
REMARK                            x       y       z     vdW  Elec       q    Type
REMARK                         _______ _______ _______ _____ _____    ______ ____
ROOT
ATOM      1  N   UNL     1       2.317   7.345  19.351  0.00  0.00    +0.000 N 
ATOM      2  C   UNL     1       1.541   7.690  20.532  0.00  0.00    +0.000 C 
ATOM      3  C   UNL     1       1.014   9.036  20.234  0.00  0.00    +0.000 A 
ATOM      4  C   UNL     1       1.295   9.387  18.912  0.00  0.00    +0.000 A 
ATOM      5  C   UNL     1       0.746  10.541  18.356  0.00  0.00    +0.000 A 
ATOM      6  C   UNL     1      -0.065  11.357  19.180  0.00  0.00    +0.000 A 
ATOM      7  C   UNL     1      -0.242  11.016  20.547  0.00  0.00    +0.000 A 
ATOM      8  C   UNL     1       0.286   9.845  21.093  0.00  0.00    +0.000 A 
ATOM      9  C   UNL     1       2.204   8.332  18.363  0.00  0.00    +0.000 C 
ATOM     10  O   UNL     1       2.724   8.389  17.263  0.00  0.00    +0.000 OA
ENDROOT
BRANCH   1  15
ATOM     11  C   UNL     1       5.394   5.275  18.832  0.00  0.00    +0.000 A 
ATOM     12  C   UNL     1       4.904   4.024  19.237  0.00  0.00    +0.000 A 
ATOM     13  C   UNL     1       3.611   3.874  19.763  0.00  0.00    +0.000 A 
ATOM     14  C   UNL     1       2.742   4.967  19.881  0.00  0.00    +0.000 A 
ATOM     15  C   UNL     1       3.164   6.216  19.439  0.00  0.00    +0.000 A 
ATOM     16  C   UNL     1       4.484   6.335  18.955  0.00  0.00    +0.000 A 
BRANCH  11  17
ATOM     17  C   UNL     1       6.883   5.542  18.264  0.00  0.00    +0.000 C 
ATOM     18  C   UNL     1       7.950   5.907  19.332  0.00  0.00    +0.000 C 
ATOM     19  O   UNL     1       8.203   7.196  18.743  0.00  0.00    +0.000 OA
ATOM     20  C   UNL     1       7.213   6.969  17.720  0.00  0.00    +0.000 C 
BRANCH  17  21
ATOM     21  C   UNL     1       7.333   4.407  17.315  0.00  0.00    +0.000 C 
BRANCH  21  27
ATOM     22  C   UNL     1       4.643   3.535  15.876  0.00  0.00    +0.000 C 
ATOM     23  N   UNL     1       5.780   4.186  15.283  0.00  0.00    +0.000 N 
ATOM     24  C   UNL     1       5.901   4.486  13.959  0.00  0.00    +0.000 A 
ATOM     25  N   UNL     1       7.052   5.075  13.749  0.00  0.00    +0.000 NA
ATOM     26  N   UNL     1       7.705   5.152  14.952  0.00  0.00    +0.000 NA
ATOM     27  C   UNL     1       6.944   4.606  15.882  0.00  0.00    +0.000 A 
ENDBRANCH  21  27
ENDBRANCH  17  21
ENDBRANCH  11  17
ENDBRANCH   1  15
BRANCH   8  28
ATOM     28  C   UNL     1       0.069   9.501  22.544  0.00  0.00    +0.000 C 
ATOM     29  F   UNL     1       1.209   9.192  23.212  0.00  0.00    +0.000 F 
ATOM     30  F   UNL     1      -0.495  10.533  23.232  0.00  0.00    +0.000 F 
ATOM     31  F   UNL     1      -0.760   8.436  22.709  0.00  0.00    +0.000 F 
ENDBRANCH   8  28
BRANCH   6  32
ATOM     32  C   UNL     1      -0.889  12.529  18.662  0.00  0.00    +0.000 C 
BRANCH  32  33
ATOM     33  N   UNL     1      -0.178  13.780  18.371  0.00  0.00    +0.000 NA
ATOM     34  C   UNL     1       1.272  13.696  18.645  0.00  0.00    +0.000 C 
ATOM     35  C   UNL     1       1.501  14.229  20.069  0.00  0.00    +0.000 C 
ATOM     36  C   UNL     1       0.381  15.196  20.292  0.00  0.00    +0.000 C 
ATOM     37  C   UNL     1      -1.001  14.774  20.699  0.00  0.00    +0.000 C 
ATOM     38  C   UNL     1      -0.661  14.906  19.236  0.00  0.00    +0.000 C 
ENDBRANCH  32  33
ENDBRANCH   6  32
TORSDOF 7
ENDMDL
MODEL 2
REMARK VINA RESULT:      -9.5      2.446      9.014
REMARK  Name = 
REMARK  8 active torsions:
REMARK  status: ('A' for Active; 'I' for Inactive)
REMARK    1  A    between atoms: C_1  and  N_2
REMARK    2  A    between atoms: C_6  and  C_7
REMARK    3  A    between atoms: C_7  and  C_8
REMARK    4  A    between atoms: C_8  and  C_9
REMARK    5  A    between atoms: C_13  and  N_14
REMARK    6  A    between atoms: C_19  and  C_20
REMARK    7  A    between atoms: C_20  and  N_21
REMARK    8  A    between atoms: C_28  and  C_29
REMARK                            x       y       z     vdW  Elec       q    Type
REMARK                         _______ _______ _______ _____ _____    ______ ____
ROOT
ATOM      1  N   UNL     1       1.393   8.331  20.159  0.00  0.00    +0.000 N 
ATOM      2  C   UNL     1       1.467   6.963  20.649  0.00  0.00    +0.000 C 
ATOM      3  C   UNL     1       2.182   6.238  19.578  0.00  0.00    +0.000 A 
ATOM      4  C   UNL     1       2.658   7.133  18.618  0.00  0.00    +0.000 A 
ATOM      5  C   UNL     1       3.509   6.694  17.606  0.00  0.00    +0.000 A 
ATOM      6  C   UNL     1       3.837   5.318  17.560  0.00  0.00    +0.000 A 
ATOM      7  C   UNL     1       3.249   4.427  18.496  0.00  0.00    +0.000 A 
ATOM      8  C   UNL     1       2.420   4.874  19.526  0.00  0.00    +0.000 A 
ATOM      9  C   UNL     1       2.084   8.476  18.949  0.00  0.00    +0.000 C 
ATOM     10  O   UNL     1       2.218   9.462  18.247  0.00  0.00    +0.000 OA
ENDROOT
BRANCH   1  15
ATOM     11  C   UNL     1      -0.935  11.226  20.634  0.00  0.00    +0.000 A 
ATOM     12  C   UNL     1      -0.976  11.264  22.036  0.00  0.00    +0.000 A 
ATOM     13  C   UNL     1      -0.325  10.297  22.819  0.00  0.00    +0.000 A 
ATOM     14  C   UNL     1       0.418   9.265  22.231  0.00  0.00    +0.000 A 
ATOM     15  C   UNL     1       0.534   9.220  20.846  0.00  0.00    +0.000 A 
ATOM     16  C   UNL     1      -0.168  10.184  20.093  0.00  0.00    +0.000 A 
BRANCH  11  17
ATOM     17  C   UNL     1      -1.695  12.268  19.660  0.00  0.00    +0.000 C 
ATOM     18  C   UNL     1      -3.226  12.398  19.886  0.00  0.00    +0.000 C 
ATOM     19  O   UNL     1      -3.533  11.945  18.555  0.00  0.00    +0.000 OA
ATOM     20  C   UNL     1      -2.136  11.763  18.250  0.00  0.00    +0.000 C 
BRANCH  17  21
ATOM     21  C   UNL     1      -0.966  13.632  19.621  0.00  0.00    +0.000 C 
BRANCH  21  27
ATOM     22  C   UNL     1       1.300  14.464  21.681  0.00  0.00    +0.000 C 
ATOM     23  N   UNL     1       1.475  13.936  20.355  0.00  0.00    +0.000 N 
ATOM     24  C   UNL     1       2.680  13.761  19.741  0.00  0.00    +0.000 A 
ATOM     25  N   UNL     1       2.490  13.263  18.544  0.00  0.00    +0.000 NA
ATOM     26  N   UNL     1       1.139  13.120  18.363  0.00  0.00    +0.000 NA
ATOM     27  C   UNL     1       0.520  13.536  19.451  0.00  0.00    +0.000 A 
ENDBRANCH  21  27
ENDBRANCH  17  21
ENDBRANCH  11  17
ENDBRANCH   1  15
BRANCH   8  28
ATOM     28  C   UNL     1       1.822   3.905  20.513  0.00  0.00    +0.000 C 
ATOM     29  F   UNL     1       2.136   2.607  20.268  0.00  0.00    +0.000 F 
ATOM     30  F   UNL     1       2.241   4.153  21.785  0.00  0.00    +0.000 F 
ATOM     31  F   UNL     1       0.464   3.961  20.542  0.00  0.00    +0.000 F 
ENDBRANCH   8  28
BRANCH   6  32
ATOM     32  C   UNL     1       4.904   4.733  16.643  0.00  0.00    +0.000 C 
BRANCH  32  33
ATOM     33  N   UNL     1       6.164   4.300  17.262  0.00  0.00    +0.000 NA
ATOM     34  C   UNL     1       6.092   4.241  18.736  0.00  0.00    +0.000 C 
ATOM     35  C   UNL     1       6.618   5.582  19.275  0.00  0.00    +0.000 C 
ATOM     36  C   UNL     1       7.573   6.059  18.226  0.00  0.00    +0.000 C 
ATOM     37  C   UNL     1       7.134   6.761  16.974  0.00  0.00    +0.000 C 
ATOM     38  C   UNL     1       7.279   5.260  16.975  0.00  0.00    +0.000 C 
ENDBRANCH  32  33
ENDBRANCH   6  32
TORSDOF 7
ENDMDL
MODEL 3
REMARK VINA RESULT:      -9.5      2.633      9.181
REMARK  Name = 
REMARK  8 active torsions:
REMARK  status: ('A' for Active; 'I' for Inactive)
REMARK    1  A    between atoms: C_1  and  N_2
REMARK    2  A    between atoms: C_6  and  C_7
REMARK    3  A    between atoms: C_7  and  C_8
REMARK    4  A    between atoms: C_8  and  C_9
REMARK    5  A    between atoms: C_13  and  N_14
REMARK    6  A    between atoms: C_19  and  C_20
REMARK    7  A    between atoms: C_20  and  N_21
REMARK    8  A    between atoms: C_28  and  C_29
REMARK                            x       y       z     vdW  Elec       q    Type
REMARK                         _______ _______ _______ _____ _____    ______ ____
ROOT
ATOM      1  N   UNL     1       1.474   7.989  20.273  0.00  0.00    +0.000 N 
ATOM      2  C   UNL     1       1.594   6.656  20.843  0.00  0.00    +0.000 C 
ATOM      3  C   UNL     1       2.158   5.846  19.744  0.00  0.00    +0.000 A 
ATOM      4  C   UNL     1       2.518   6.664  18.672  0.00  0.00    +0.000 A 
ATOM      5  C   UNL     1       3.227   6.141  17.592  0.00  0.00    +0.000 A 
ATOM      6  C   UNL     1       3.531   4.759  17.601  0.00  0.00    +0.000 A 
ATOM      7  C   UNL     1       3.057   3.944  18.663  0.00  0.00    +0.000 A 
ATOM      8  C   UNL     1       2.372   4.477  19.756  0.00  0.00    +0.000 A 
ATOM      9  C   UNL     1       2.006   8.038  18.978  0.00  0.00    +0.000 C 
ATOM     10  O   UNL     1       2.061   8.972  18.198  0.00  0.00    +0.000 OA
ENDROOT
BRANCH   1  15
ATOM     11  C   UNL     1       0.299  11.370  21.373  0.00  0.00    +0.000 A 
ATOM     12  C   UNL     1      -0.441  11.002  22.507  0.00  0.00    +0.000 A 
ATOM     13  C   UNL     1      -0.633   9.655  22.857  0.00  0.00    +0.000 A 
ATOM     14  C   UNL     1      -0.068   8.620  22.100  0.00  0.00    +0.000 A 
ATOM     15  C   UNL     1       0.720   8.939  21.001  0.00  0.00    +0.000 A 
ATOM     16  C   UNL     1       0.855  10.301  20.657  0.00  0.00    +0.000 A 
BRANCH  11  17
ATOM     17  C   UNL     1       0.525  12.890  20.874  0.00  0.00    +0.000 C 
ATOM     18  C   UNL     1       2.005  13.360  20.814  0.00  0.00    +0.000 C 
ATOM     19  O   UNL     1       1.786  14.405  21.780  0.00  0.00    +0.000 OA
ATOM     20  C   UNL     1       0.402  14.033  21.930  0.00  0.00    +0.000 C 
BRANCH  17  21
ATOM     21  C   UNL     1      -0.257  13.174  19.570  0.00  0.00    +0.000 C 
BRANCH  21  27
ATOM     22  C   UNL     1      -1.766  11.016  17.800  0.00  0.00    +0.000 C 
ATOM     23  N   UNL     1      -2.332  11.866  18.812  0.00  0.00    +0.000 N 
ATOM     24  C   UNL     1      -3.655  11.914  19.136  0.00  0.00    +0.000 A 
ATOM     25  N   UNL     1      -3.837  12.787  20.096  0.00  0.00    +0.000 NA
ATOM     26  N   UNL     1      -2.616  13.331  20.400  0.00  0.00    +0.000 NA
ATOM     27  C   UNL     1      -1.704  12.785  19.618  0.00  0.00    +0.000 A 
ENDBRANCH  21  27
ENDBRANCH  17  21
ENDBRANCH  11  17
ENDBRANCH   1  15
BRANCH   8  28
ATOM     28  C   UNL     1       1.894   3.589  20.876  0.00  0.00    +0.000 C 
ATOM     29  F   UNL     1       2.348   3.957  22.102  0.00  0.00    +0.000 F 
ATOM     30  F   UNL     1       0.536   3.579  20.973  0.00  0.00    +0.000 F 
ATOM     31  F   UNL     1       2.274   2.294  20.713  0.00  0.00    +0.000 F 
ENDBRANCH   8  28
BRANCH   6  32
ATOM     32  C   UNL     1       4.465   4.092  16.599  0.00  0.00    +0.000 C 
BRANCH  32  33
ATOM     33  N   UNL     1       5.884   3.985  16.964  0.00  0.00    +0.000 NA
ATOM     34  C   UNL     1       6.341   5.091  17.831  0.00  0.00    +0.000 C 
ATOM     35  C   UNL     1       6.950   6.168  16.917  0.00  0.00    +0.000 C 
ATOM     36  C   UNL     1       7.445   5.412  15.725  0.00  0.00    +0.000 C 
ATOM     37  C   UNL     1       6.555   4.989  14.592  0.00  0.00    +0.000 C 
ATOM     38  C   UNL     1       6.772   4.058  15.758  0.00  0.00    +0.000 C 
ENDBRANCH  32  33
ENDBRANCH   6  32
TORSDOF 7
ENDMDL
MODEL 4
REMARK VINA RESULT:      -9.4      2.561      9.094
REMARK  Name = 
REMARK  8 active torsions:
REMARK  status: ('A' for Active; 'I' for Inactive)
REMARK    1  A    between atoms: C_1  and  N_2
REMARK    2  A    between atoms: C_6  and  C_7
REMARK    3  A    between atoms: C_7  and  C_8
REMARK    4  A    between atoms: C_8  and  C_9
REMARK    5  A    between atoms: C_13  and  N_14
REMARK    6  A    between atoms: C_19  and  C_20
REMARK    7  A    between atoms: C_20  and  N_21
REMARK    8  A    between atoms: C_28  and  C_29
REMARK                            x       y       z     vdW  Elec       q    Type
REMARK                         _______ _______ _______ _____ _____    ______ ____
ROOT
ATOM      1  N   UNL     1       1.297   8.384  20.403  0.00  0.00    +0.000 N 
ATOM      2  C   UNL     1       1.418   6.999  20.833  0.00  0.00    +0.000 C 
ATOM      3  C   UNL     1       2.123   6.338  19.716  0.00  0.00    +0.000 A 
ATOM      4  C   UNL     1       2.552   7.284  18.783  0.00  0.00    +0.000 A 
ATOM      5  C   UNL     1       3.387   6.910  17.733  0.00  0.00    +0.000 A 
ATOM      6  C   UNL     1       3.749   5.547  17.621  0.00  0.00    +0.000 A 
ATOM      7  C   UNL     1       3.208   4.602  18.532  0.00  0.00    +0.000 A 
ATOM      8  C   UNL     1       2.394   4.984  19.600  0.00  0.00    +0.000 A 
ATOM      9  C   UNL     1       1.952   8.597  19.184  0.00  0.00    +0.000 C 
ATOM     10  O   UNL     1       2.044   9.614  18.521  0.00  0.00    +0.000 OA
ENDROOT
BRANCH   1  15
ATOM     11  C   UNL     1      -1.001  11.261  21.085  0.00  0.00    +0.000 A 
ATOM     12  C   UNL     1      -1.077  11.173  22.483  0.00  0.00    +0.000 A 
ATOM     13  C   UNL     1      -0.460  10.127  23.190  0.00  0.00    +0.000 A 
ATOM     14  C   UNL     1       0.282   9.141  22.528  0.00  0.00    +0.000 A 
ATOM     15  C   UNL     1       0.433   9.220  21.148  0.00  0.00    +0.000 A 
ATOM     16  C   UNL     1      -0.235  10.261  20.469  0.00  0.00    +0.000 A 
BRANCH  11  17
ATOM     17  C   UNL     1      -1.720  12.401  20.193  0.00  0.00    +0.000 C 
ATOM     18  C   UNL     1      -3.271  12.440  20.284  0.00  0.00    +0.000 C 
ATOM     19  O   UNL     1      -3.431  12.167  18.880  0.00  0.00    +0.000 OA
ATOM     20  C   UNL     1      -2.004  12.082  18.691  0.00  0.00    +0.000 C 
BRANCH  17  21
ATOM     21  C   UNL     1      -1.062  13.783  20.412  0.00  0.00    +0.000 C 
BRANCH  21  27
ATOM     22  C   UNL     1       1.203  13.243  18.256  0.00  0.00    +0.000 C 
ATOM     23  N   UNL     1       1.374  13.468  19.665  0.00  0.00    +0.000 N 
ATOM     24  C   UNL     1       2.570  13.427  20.319  0.00  0.00    +0.000 A 
ATOM     25  N   UNL     1       2.379  13.677  21.591  0.00  0.00    +0.000 NA
ATOM     26  N   UNL     1       1.036  13.873  21.779  0.00  0.00    +0.000 NA
ATOM     27  C   UNL     1       0.422  13.737  20.619  0.00  0.00    +0.000 A 
ENDBRANCH  21  27
ENDBRANCH  17  21
ENDBRANCH  11  17
ENDBRANCH   1  15
BRANCH   8  28
ATOM     28  C   UNL     1       1.847   3.960  20.560  0.00  0.00    +0.000 C 
ATOM     29  F   UNL     1       0.490   3.928  20.616  0.00  0.00    +0.000 F 
ATOM     30  F   UNL     1       2.233   2.696  20.231  0.00  0.00    +0.000 F 
ATOM     31  F   UNL     1       2.266   4.166  21.837  0.00  0.00    +0.000 F 
ENDBRANCH   8  28
BRANCH   6  32
ATOM     32  C   UNL     1       4.806   5.028  16.654  0.00  0.00    +0.000 C 
BRANCH  32  33
ATOM     33  N   UNL     1       6.036   4.470  17.232  0.00  0.00    +0.000 NA
ATOM     34  C   UNL     1       5.970   4.331  18.702  0.00  0.00    +0.000 C 
ATOM     35  C   UNL     1       6.596   5.596  19.311  0.00  0.00    +0.000 C 
ATOM     36  C   UNL     1       7.576   6.063  18.281  0.00  0.00    +0.000 C 
ATOM     37  C   UNL     1       7.180   6.868  17.076  0.00  0.00    +0.000 C 
ATOM     38  C   UNL     1       7.216   5.363  16.990  0.00  0.00    +0.000 C 
ENDBRANCH  32  33
ENDBRANCH   6  32
TORSDOF 7
ENDMDL
MODEL 5
REMARK VINA RESULT:      -9.4      2.813      9.112
REMARK  Name = 
REMARK  8 active torsions:
REMARK  status: ('A' for Active; 'I' for Inactive)
REMARK    1  A    between atoms: C_1  and  N_2
REMARK    2  A    between atoms: C_6  and  C_7
REMARK    3  A    between atoms: C_7  and  C_8
REMARK    4  A    between atoms: C_8  and  C_9
REMARK    5  A    between atoms: C_13  and  N_14
REMARK    6  A    between atoms: C_19  and  C_20
REMARK    7  A    between atoms: C_20  and  N_21
REMARK    8  A    between atoms: C_28  and  C_29
REMARK                            x       y       z     vdW  Elec       q    Type
REMARK                         _______ _______ _______ _____ _____    ______ ____
ROOT
ATOM      1  N   UNL     1       1.256   8.515  20.248  0.00  0.00    +0.000 N 
ATOM      2  C   UNL     1       1.344   7.134  20.696  0.00  0.00    +0.000 C 
ATOM      3  C   UNL     1       2.086   6.453  19.615  0.00  0.00    +0.000 A 
ATOM      4  C   UNL     1       2.563   7.385  18.691  0.00  0.00    +0.000 A 
ATOM      5  C   UNL     1       3.435   6.992  17.679  0.00  0.00    +0.000 A 
ATOM      6  C   UNL     1       3.786   5.623  17.595  0.00  0.00    +0.000 A 
ATOM      7  C   UNL     1       3.198   4.693  18.493  0.00  0.00    +0.000 A 
ATOM      8  C   UNL     1       2.346   5.095  19.524  0.00  0.00    +0.000 A 
ATOM      9  C   UNL     1       1.962   8.708  19.054  0.00  0.00    +0.000 C 
ATOM     10  O   UNL     1       2.092   9.718  18.386  0.00  0.00    +0.000 OA
ENDROOT
BRANCH   1  15
ATOM     11  C   UNL     1      -1.001  11.447  20.823  0.00  0.00    +0.000 A 
ATOM     12  C   UNL     1      -1.160  11.350  22.214  0.00  0.00    +0.000 A 
ATOM     13  C   UNL     1      -0.613  10.283  22.946  0.00  0.00    +0.000 A 
ATOM     14  C   UNL     1       0.141   9.282  22.318  0.00  0.00    +0.000 A 
ATOM     15  C   UNL     1       0.372   9.368  20.950  0.00  0.00    +0.000 A 
ATOM     16  C   UNL     1      -0.228  10.431  20.243  0.00  0.00    +0.000 A 
BRANCH  11  17
ATOM     17  C   UNL     1      -1.638  12.612  19.902  0.00  0.00    +0.000 C 
ATOM     18  C   UNL     1      -0.716  13.149  18.772  0.00  0.00    +0.000 C 
ATOM     19  O   UNL     1      -0.714  14.484  19.311  0.00  0.00    +0.000 OA
ATOM     20  C   UNL     1      -1.548  14.083  20.417  0.00  0.00    +0.000 C 
BRANCH  17  21
ATOM     21  C   UNL     1      -3.049  12.224  19.403  0.00  0.00    +0.000 C 
BRANCH  21  27
ATOM     22  C   UNL     1      -5.553  11.834  17.493  0.00  0.00    +0.000 C 
ATOM     23  N   UNL     1      -4.191  11.455  17.235  0.00  0.00    +0.000 N 
ATOM     24  C   UNL     1      -3.764  10.798  16.119  0.00  0.00    +0.000 A 
ATOM     25  N   UNL     1      -2.471  10.605  16.195  0.00  0.00    +0.000 NA
ATOM     26  N   UNL     1      -2.041  11.132  17.385  0.00  0.00    +0.000 NA
ATOM     27  C   UNL     1      -3.080  11.637  18.024  0.00  0.00    +0.000 A 
ENDBRANCH  21  27
ENDBRANCH  17  21
ENDBRANCH  11  17
ENDBRANCH   1  15
BRANCH   8  28
ATOM     28  C   UNL     1       1.749   4.087  20.471  0.00  0.00    +0.000 C 
ATOM     29  F   UNL     1       0.392   4.095  20.499  0.00  0.00    +0.000 F 
ATOM     30  F   UNL     1       2.104   2.813  20.147  0.00  0.00    +0.000 F 
ATOM     31  F   UNL     1       2.149   4.279  21.756  0.00  0.00    +0.000 F 
ENDBRANCH   8  28
BRANCH   6  32
ATOM     32  C   UNL     1       4.875   5.083  16.677  0.00  0.00    +0.000 C 
BRANCH  32  33
ATOM     33  N   UNL     1       6.042   4.455  17.309  0.00  0.00    +0.000 NA
ATOM     34  C   UNL     1       5.926   4.371  18.779  0.00  0.00    +0.000 C 
ATOM     35  C   UNL     1       6.629   5.607  19.366  0.00  0.00    +0.000 C 
ATOM     36  C   UNL     1       7.668   5.964  18.351  0.00  0.00    +0.000 C 
ATOM     37  C   UNL     1       7.368   6.755  17.111  0.00  0.00    +0.000 C 
ATOM     38  C   UNL     1       7.292   5.249  17.073  0.00  0.00    +0.000 C 
ENDBRANCH  32  33
ENDBRANCH   6  32
TORSDOF 7
ENDMDL
MODEL 6
REMARK VINA RESULT:      -9.4      2.470      9.045
REMARK  Name = 
REMARK  8 active torsions:
REMARK  status: ('A' for Active; 'I' for Inactive)
REMARK    1  A    between atoms: C_1  and  N_2
REMARK    2  A    between atoms: C_6  and  C_7
REMARK    3  A    between atoms: C_7  and  C_8
REMARK    4  A    between atoms: C_8  and  C_9
REMARK    5  A    between atoms: C_13  and  N_14
REMARK    6  A    between atoms: C_19  and  C_20
REMARK    7  A    between atoms: C_20  and  N_21
REMARK    8  A    between atoms: C_28  and  C_29
REMARK                            x       y       z     vdW  Elec       q    Type
REMARK                         _______ _______ _______ _____ _____    ______ ____
ROOT
ATOM      1  N   UNL     1       1.242   8.475  20.326  0.00  0.00    +0.000 N 
ATOM      2  C   UNL     1       1.408   7.119  20.825  0.00  0.00    +0.000 C 
ATOM      3  C   UNL     1       2.089   6.413  19.721  0.00  0.00    +0.000 A 
ATOM      4  C   UNL     1       2.465   7.315  18.724  0.00  0.00    +0.000 A 
ATOM      5  C   UNL     1       3.272   6.902  17.666  0.00  0.00    +0.000 A 
ATOM      6  C   UNL     1       3.660   5.542  17.615  0.00  0.00    +0.000 A 
ATOM      7  C   UNL     1       3.171   4.637  18.594  0.00  0.00    +0.000 A 
ATOM      8  C   UNL     1       2.386   5.060  19.668  0.00  0.00    +0.000 A 
ATOM      9  C   UNL     1       1.851   8.635  19.074  0.00  0.00    +0.000 C 
ATOM     10  O   UNL     1       1.897   9.617  18.355  0.00  0.00    +0.000 OA
ENDROOT
BRANCH   1  15
ATOM     11  C   UNL     1      -1.107  11.329  20.930  0.00  0.00    +0.000 A 
ATOM     12  C   UNL     1      -1.124  11.324  22.332  0.00  0.00    +0.000 A 
ATOM     13  C   UNL     1      -0.450  10.341  23.075  0.00  0.00    +0.000 A 
ATOM     14  C   UNL     1       0.294   9.335  22.442  0.00  0.00    +0.000 A 
ATOM     15  C   UNL     1       0.385   9.333  21.055  0.00  0.00    +0.000 A 
ATOM     16  C   UNL     1      -0.339  10.313  20.343  0.00  0.00    +0.000 A 
BRANCH  11  17
ATOM     17  C   UNL     1      -1.895  12.392  20.001  0.00  0.00    +0.000 C 
ATOM     18  C   UNL     1      -3.388  12.620  20.367  0.00  0.00    +0.000 C 
ATOM     19  O   UNL     1      -3.847  12.155  19.085  0.00  0.00    +0.000 OA
ATOM     20  C   UNL     1      -2.498  11.881  18.655  0.00  0.00    +0.000 C 
BRANCH  17  21
ATOM     21  C   UNL     1      -1.096  13.708  19.854  0.00  0.00    +0.000 C 
BRANCH  21  27
ATOM     22  C   UNL     1       1.466  14.448  21.575  0.00  0.00    +0.000 C 
ATOM     23  N   UNL     1       1.435  13.881  20.253  0.00  0.00    +0.000 N 
ATOM     24  C   UNL     1       2.536  13.621  19.493  0.00  0.00    +0.000 A 
ATOM     25  N   UNL     1       2.162  13.109  18.346  0.00  0.00    +0.000 NA
ATOM     26  N   UNL     1       0.793  13.042  18.348  0.00  0.00    +0.000 NA
ATOM     27  C   UNL     1       0.347  13.519  19.495  0.00  0.00    +0.000 A 
ENDBRANCH  21  27
ENDBRANCH  17  21
ENDBRANCH  11  17
ENDBRANCH   1  15
BRANCH   8  28
ATOM     28  C   UNL     1       1.895   4.078  20.701  0.00  0.00    +0.000 C 
ATOM     29  F   UNL     1       2.323   4.346  21.961  0.00  0.00    +0.000 F 
ATOM     30  F   UNL     1       0.535   4.052  20.770  0.00  0.00    +0.000 F 
ATOM     31  F   UNL     1       2.288   2.804  20.437  0.00  0.00    +0.000 F 
ENDBRANCH   8  28
BRANCH   6  32
ATOM     32  C   UNL     1       4.695   4.993  16.641  0.00  0.00    +0.000 C 
BRANCH  32  33
ATOM     33  N   UNL     1       5.955   5.734  16.505  0.00  0.00    +0.000 NA
ATOM     34  C   UNL     1       7.068   4.894  16.013  0.00  0.00    +0.000 C 
ATOM     35  C   UNL     1       7.833   4.381  17.244  0.00  0.00    +0.000 C 
ATOM     36  C   UNL     1       7.607   5.427  18.290  0.00  0.00    +0.000 C 
ATOM     37  C   UNL     1       6.361   5.499  19.124  0.00  0.00    +0.000 C 
ATOM     38  C   UNL     1       6.434   6.260  17.825  0.00  0.00    +0.000 C 
ENDBRANCH  32  33
ENDBRANCH   6  32
TORSDOF 7
ENDMDL
MODEL 7
REMARK VINA RESULT:      -9.4      2.461      9.271
REMARK  Name = 
REMARK  8 active torsions:
REMARK  status: ('A' for Active; 'I' for Inactive)
REMARK    1  A    between atoms: C_1  and  N_2
REMARK    2  A    between atoms: C_6  and  C_7
REMARK    3  A    between atoms: C_7  and  C_8
REMARK    4  A    between atoms: C_8  and  C_9
REMARK    5  A    between atoms: C_13  and  N_14
REMARK    6  A    between atoms: C_19  and  C_20
REMARK    7  A    between atoms: C_20  and  N_21
REMARK    8  A    between atoms: C_28  and  C_29
REMARK                            x       y       z     vdW  Elec       q    Type
REMARK                         _______ _______ _______ _____ _____    ______ ____
ROOT
ATOM      1  N   UNL     1       1.370   8.273  20.319  0.00  0.00    +0.000 N 
ATOM      2  C   UNL     1       1.478   6.903  20.799  0.00  0.00    +0.000 C 
ATOM      3  C   UNL     1       2.180   6.197  19.708  0.00  0.00    +0.000 A 
ATOM      4  C   UNL     1       2.619   7.105  18.742  0.00  0.00    +0.000 A 
ATOM      5  C   UNL     1       3.453   6.687  17.708  0.00  0.00    +0.000 A 
ATOM      6  C   UNL     1       3.804   5.318  17.646  0.00  0.00    +0.000 A 
ATOM      7  C   UNL     1       3.253   4.411  18.589  0.00  0.00    +0.000 A 
ATOM      8  C   UNL     1       2.440   4.837  19.641  0.00  0.00    +0.000 A 
ATOM      9  C   UNL     1       2.030   8.437  19.094  0.00  0.00    +0.000 C 
ATOM     10  O   UNL     1       2.130   9.429  18.396  0.00  0.00    +0.000 OA
ENDROOT
BRANCH   1  15
ATOM     11  C   UNL     1      -0.848  11.231  20.913  0.00  0.00    +0.000 A 
ATOM     12  C   UNL     1      -0.973  11.152  22.309  0.00  0.00    +0.000 A 
ATOM     13  C   UNL     1      -0.416  10.091  23.040  0.00  0.00    +0.000 A 
ATOM     14  C   UNL     1       0.314   9.076  22.407  0.00  0.00    +0.000 A 
ATOM     15  C   UNL     1       0.511   9.142  21.032  0.00  0.00    +0.000 A 
ATOM     16  C   UNL     1      -0.098  10.201  20.327  0.00  0.00    +0.000 A 
BRANCH  11  17
ATOM     17  C   UNL     1      -1.499  12.389  19.993  0.00  0.00    +0.000 C 
ATOM     18  C   UNL     1      -2.986  12.172  19.598  0.00  0.00    +0.000 C 
ATOM     19  O   UNL     1      -2.682  12.138  18.192  0.00  0.00    +0.000 OA
ATOM     20  C   UNL     1      -1.274  12.310  18.450  0.00  0.00    +0.000 C 
BRANCH  17  21
ATOM     21  C   UNL     1      -1.223  13.793  20.580  0.00  0.00    +0.000 C 
BRANCH  21  27
ATOM     22  C   UNL     1       1.933  13.479  20.685  0.00  0.00    +0.000 C 
ATOM     23  N   UNL     1       1.175  14.440  19.931  0.00  0.00    +0.000 N 
ATOM     24  C   UNL     1       1.717  15.431  19.167  0.00  0.00    +0.000 A 
ATOM     25  N   UNL     1       0.757  16.130  18.614  0.00  0.00    +0.000 NA
ATOM     26  N   UNL     1      -0.436  15.599  19.032  0.00  0.00    +0.000 NA
ATOM     27  C   UNL     1      -0.189  14.583  19.837  0.00  0.00    +0.000 A 
ENDBRANCH  21  27
ENDBRANCH  17  21
ENDBRANCH  11  17
ENDBRANCH   1  15
BRANCH   8  28
ATOM     28  C   UNL     1       1.883   3.853  20.636  0.00  0.00    +0.000 C 
ATOM     29  F   UNL     1       0.527   3.859  20.715  0.00  0.00    +0.000 F 
ATOM     30  F   UNL     1       2.229   2.571  20.332  0.00  0.00    +0.000 F 
ATOM     31  F   UNL     1       2.330   4.078  21.900  0.00  0.00    +0.000 F 
ENDBRANCH   8  28
BRANCH   6  32
ATOM     32  C   UNL     1       4.859   4.756  16.701  0.00  0.00    +0.000 C 
BRANCH  32  33
ATOM     33  N   UNL     1       6.124   4.304  17.292  0.00  0.00    +0.000 NA
ATOM     34  C   UNL     1       6.084   4.249  18.768  0.00  0.00    +0.000 C 
ATOM     35  C   UNL     1       6.644   5.582  19.292  0.00  0.00    +0.000 C 
ATOM     36  C   UNL     1       7.583   6.041  18.221  0.00  0.00    +0.000 C 
ATOM     37  C   UNL     1       7.128   6.748  16.978  0.00  0.00    +0.000 C 
ATOM     38  C   UNL     1       7.249   5.245  16.979  0.00  0.00    +0.000 C 
ENDBRANCH  32  33
ENDBRANCH   6  32
TORSDOF 7
ENDMDL
MODEL 8
REMARK VINA RESULT:      -9.3      2.648      9.510
REMARK  Name = 
REMARK  8 active torsions:
REMARK  status: ('A' for Active; 'I' for Inactive)
REMARK    1  A    between atoms: C_1  and  N_2
REMARK    2  A    between atoms: C_6  and  C_7
REMARK    3  A    between atoms: C_7  and  C_8
REMARK    4  A    between atoms: C_8  and  C_9
REMARK    5  A    between atoms: C_13  and  N_14
REMARK    6  A    between atoms: C_19  and  C_20
REMARK    7  A    between atoms: C_20  and  N_21
REMARK    8  A    between atoms: C_28  and  C_29
REMARK                            x       y       z     vdW  Elec       q    Type
REMARK                         _______ _______ _______ _____ _____    ______ ____
ROOT
ATOM      1  N   UNL     1       1.486   7.879  20.325  0.00  0.00    +0.000 N 
ATOM      2  C   UNL     1       1.590   6.530  20.860  0.00  0.00    +0.000 C 
ATOM      3  C   UNL     1       2.166   5.747  19.748  0.00  0.00    +0.000 A 
ATOM      4  C   UNL     1       2.549   6.592  18.705  0.00  0.00    +0.000 A 
ATOM      5  C   UNL     1       3.272   6.095  17.623  0.00  0.00    +0.000 A 
ATOM      6  C   UNL     1       3.568   4.711  17.599  0.00  0.00    +0.000 A 
ATOM      7  C   UNL     1       3.072   3.870  18.629  0.00  0.00    +0.000 A 
ATOM      8  C   UNL     1       2.372   4.376  19.726  0.00  0.00    +0.000 A 
ATOM      9  C   UNL     1       2.040   7.960  19.041  0.00  0.00    +0.000 C 
ATOM     10  O   UNL     1       2.113   8.915  18.288  0.00  0.00    +0.000 OA
ENDROOT
BRANCH   1  15
ATOM     11  C   UNL     1      -0.504  10.982  20.981  0.00  0.00    +0.000 A 
ATOM     12  C   UNL     1      -0.555  10.935  22.382  0.00  0.00    +0.000 A 
ATOM     13  C   UNL     1      -0.025   9.852  23.103  0.00  0.00    +0.000 A 
ATOM     14  C   UNL     1       0.602   8.782  22.451  0.00  0.00    +0.000 A 
ATOM     15  C   UNL     1       0.726   8.813  21.067  0.00  0.00    +0.000 A 
ATOM     16  C   UNL     1       0.145   9.897  20.375  0.00  0.00    +0.000 A 
BRANCH  11  17
ATOM     17  C   UNL     1      -1.132  12.164  20.075  0.00  0.00    +0.000 C 
ATOM     18  C   UNL     1      -2.321  12.935  20.712  0.00  0.00    +0.000 C 
ATOM     19  O   UNL     1      -3.228  12.544  19.666  0.00  0.00    +0.000 OA
ATOM     20  C   UNL     1      -2.202  11.776  19.006  0.00  0.00    +0.000 C 
BRANCH  17  21
ATOM     21  C   UNL     1      -0.027  13.095  19.524  0.00  0.00    +0.000 C 
BRANCH  21  27
ATOM     22  C   UNL     1      -0.532  16.099  20.417  0.00  0.00    +0.000 C 
ATOM     23  N   UNL     1       0.472  15.197  20.912  0.00  0.00    +0.000 N 
ATOM     24  C   UNL     1       1.426  15.524  21.830  0.00  0.00    +0.000 A 
ATOM     25  N   UNL     1       2.181  14.480  22.065  0.00  0.00    +0.000 NA
ATOM     26  N   UNL     1       1.724  13.452  21.280  0.00  0.00    +0.000 NA
ATOM     27  C   UNL     1       0.697  13.884  20.573  0.00  0.00    +0.000 A 
ENDBRANCH  21  27
ENDBRANCH  17  21
ENDBRANCH  11  17
ENDBRANCH   1  15
BRANCH   8  28
ATOM     28  C   UNL     1       1.871   3.461  20.813  0.00  0.00    +0.000 C 
ATOM     29  F   UNL     1       0.518   3.436  20.931  0.00  0.00    +0.000 F 
ATOM     30  F   UNL     1       2.247   2.169  20.604  0.00  0.00    +0.000 F 
ATOM     31  F   UNL     1       2.345   3.802  22.041  0.00  0.00    +0.000 F 
ENDBRANCH   8  28
BRANCH   6  32
ATOM     32  C   UNL     1       4.514   4.066  16.594  0.00  0.00    +0.000 C 
BRANCH  32  33
ATOM     33  N   UNL     1       5.935   3.984  16.958  0.00  0.00    +0.000 NA
ATOM     34  C   UNL     1       6.376   5.107  17.811  0.00  0.00    +0.000 C 
ATOM     35  C   UNL     1       6.968   6.183  16.885  0.00  0.00    +0.000 C 
ATOM     36  C   UNL     1       7.472   5.420  15.700  0.00  0.00    +0.000 C 
ATOM     37  C   UNL     1       6.587   4.971  14.574  0.00  0.00    +0.000 C 
ATOM     38  C   UNL     1       6.820   4.057  15.750  0.00  0.00    +0.000 C 
ENDBRANCH  32  33
ENDBRANCH   6  32
TORSDOF 7
ENDMDL
MODEL 9
REMARK VINA RESULT:      -9.3      2.464      9.231
REMARK  Name = 
REMARK  8 active torsions:
REMARK  status: ('A' for Active; 'I' for Inactive)
REMARK    1  A    between atoms: C_1  and  N_2
REMARK    2  A    between atoms: C_6  and  C_7
REMARK    3  A    between atoms: C_7  and  C_8
REMARK    4  A    between atoms: C_8  and  C_9
REMARK    5  A    between atoms: C_13  and  N_14
REMARK    6  A    between atoms: C_19  and  C_20
REMARK    7  A    between atoms: C_20  and  N_21
REMARK    8  A    between atoms: C_28  and  C_29
REMARK                            x       y       z     vdW  Elec       q    Type
REMARK                         _______ _______ _______ _____ _____    ______ ____
ROOT
ATOM      1  N   UNL     1       1.441   7.989  20.349  0.00  0.00    +0.000 N 
ATOM      2  C   UNL     1       1.568   6.643  20.884  0.00  0.00    +0.000 C 
ATOM      3  C   UNL     1       2.142   5.867  19.766  0.00  0.00    +0.000 A 
ATOM      4  C   UNL     1       2.501   6.716  18.718  0.00  0.00    +0.000 A 
ATOM      5  C   UNL     1       3.219   6.227  17.628  0.00  0.00    +0.000 A 
ATOM      6  C   UNL     1       3.534   4.847  17.601  0.00  0.00    +0.000 A 
ATOM      7  C   UNL     1       3.061   4.001  18.639  0.00  0.00    +0.000 A 
ATOM      8  C   UNL     1       2.367   4.499  19.743  0.00  0.00    +0.000 A 
ATOM      9  C   UNL     1       1.978   8.077  19.058  0.00  0.00    +0.000 C 
ATOM     10  O   UNL     1       2.029   9.032  18.304  0.00  0.00    +0.000 OA
ENDROOT
BRANCH   1  15
ATOM     11  C   UNL     1      -0.519  11.104  21.045  0.00  0.00    +0.000 A 
ATOM     12  C   UNL     1      -0.605  11.018  22.443  0.00  0.00    +0.000 A 
ATOM     13  C   UNL     1      -0.110   9.906  23.145  0.00  0.00    +0.000 A 
ATOM     14  C   UNL     1       0.517   8.846  22.478  0.00  0.00    +0.000 A 
ATOM     15  C   UNL     1       0.676   8.914  21.098  0.00  0.00    +0.000 A 
ATOM     16  C   UNL     1       0.130  10.027  20.424  0.00  0.00    +0.000 A 
BRANCH  11  17
ATOM     17  C   UNL     1      -1.105  12.321  20.158  0.00  0.00    +0.000 C 
ATOM     18  C   UNL     1      -2.649  12.335  19.980  0.00  0.00    +0.000 C 
ATOM     19  O   UNL     1      -2.556  12.205  18.549  0.00  0.00    +0.000 OA
ATOM     20  C   UNL     1      -1.116  12.156  18.606  0.00  0.00    +0.000 C 
BRANCH  17  21
ATOM     21  C   UNL     1      -0.534  13.681  20.625  0.00  0.00    +0.000 C 
BRANCH  21  27
ATOM     22  C   UNL     1      -0.069  16.074  18.593  0.00  0.00    +0.000 C 
ATOM     23  N   UNL     1       0.898  15.110  19.044  0.00  0.00    +0.000 N 
ATOM     24  C   UNL     1       2.189  15.042  18.610  0.00  0.00    +0.000 A 
ATOM     25  N   UNL     1       2.801  14.055  19.217  0.00  0.00    +0.000 NA
ATOM     26  N   UNL     1       1.895  13.456  20.054  0.00  0.00    +0.000 NA
ATOM     27  C   UNL     1       0.739  14.084  19.946  0.00  0.00    +0.000 A 
ENDBRANCH  21  27
ENDBRANCH  17  21
ENDBRANCH  11  17
ENDBRANCH   1  15
BRANCH   8  28
ATOM     28  C   UNL     1       1.891   3.578  20.837  0.00  0.00    +0.000 C 
ATOM     29  F   UNL     1       2.314   3.933  22.077  0.00  0.00    +0.000 F 
ATOM     30  F   UNL     1       0.532   3.533  20.908  0.00  0.00    +0.000 F 
ATOM     31  F   UNL     1       2.305   2.296  20.656  0.00  0.00    +0.000 F 
ENDBRANCH   8  28
BRANCH   6  32
ATOM     32  C   UNL     1       4.477   4.214  16.586  0.00  0.00    +0.000 C 
BRANCH  32  33
ATOM     33  N   UNL     1       5.880   4.040  16.983  0.00  0.00    +0.000 NA
ATOM     34  C   UNL     1       6.388   5.156  17.808  0.00  0.00    +0.000 C 
ATOM     35  C   UNL     1       7.076   6.151  16.859  0.00  0.00    +0.000 C 
ATOM     36  C   UNL     1       7.545   5.312  15.712  0.00  0.00    +0.000 C 
ATOM     37  C   UNL     1       6.650   4.891  14.582  0.00  0.00    +0.000 C 
ATOM     38  C   UNL     1       6.791   4.004  15.793  0.00  0.00    +0.000 C 
ENDBRANCH  32  33
ENDBRANCH   6  32
TORSDOF 7
ENDMDL
