MODEL 1
REMARK VINA RESULT:     -10.3      0.000      0.000
REMARK  Name = 
REMARK  8 active torsions:
REMARK  status: ('A' for Active; 'I' for Inactive)
REMARK    1  A    between atoms: C_1  and  N_2
REMARK    2  A    between atoms: N_8  and  C_9
REMARK    3  A    between atoms: C_13  and  C_14
REMARK    4  A    between atoms: N_20  and  C_21
REMARK    5  A    between atoms: C_25  and  C_26
REMARK    6  A    between atoms: C_26  and  C_27
REMARK    7  A    between atoms: C_27  and  C_28
REMARK    8  A    between atoms: N_32  and  C_33
REMARK                            x       y       z     vdW  Elec       q    Type
REMARK                         _______ _______ _______ _____ _____    ______ ____
ROOT
ATOM      1  C   UNL     1       3.760   5.522  17.963  0.00  0.00    +0.000 A 
ATOM      2  C   UNL     1       3.303   6.836  18.064  0.00  0.00    +0.000 A 
ATOM      3  C   UNL     1       2.442   7.158  19.089  0.00  0.00    +0.000 A 
ATOM      4  C   UNL     1       1.999   6.237  20.027  0.00  0.00    +0.000 A 
ATOM      5  C   UNL     1       2.427   4.919  19.971  0.00  0.00    +0.000 A 
ATOM      6  C   UNL     1       3.323   4.590  18.939  0.00  0.00    +0.000 A 
ATOM      7  C   UNL     1       1.051   6.901  20.961  0.00  0.00    +0.000 C 
ATOM      8  N   UNL     1       1.035   8.280  20.494  0.00  0.00    +0.000 N 
ATOM      9  C   UNL     1       1.828   8.455  19.365  0.00  0.00    +0.000 C 
ATOM     10  O   UNL     1       2.028   9.432  18.665  0.00  0.00    +0.000 OA
ENDROOT
BRANCH   1  18
ATOM     11  C   UNL     1       8.021   4.298  17.380  0.00  0.00    +0.000 C 
ATOM     12  N   UNL     1       7.366   4.863  16.205  0.00  0.00    +0.000 NA
ATOM     13  C   UNL     1       6.749   6.187  16.510  0.00  0.00    +0.000 C 
ATOM     14  C   UNL     1       5.298   6.020  16.008  0.00  0.00    +0.000 C 
ATOM     15  C   UNL     1       5.520   5.076  14.826  0.00  0.00    +0.000 C 
ATOM     16  C   UNL     1       6.222   4.038  15.704  0.00  0.00    +0.000 C 
ATOM     17  C   UNL     1       5.098   3.777  16.758  0.00  0.00    +0.000 C 
ATOM     18  N   UNL     1       4.557   5.132  16.932  0.00  0.00    +0.000 N 
ENDBRANCH   1  18
BRANCH   8  19
ATOM     19  C   UNL     1       0.287   9.277  21.154  0.00  0.00    +0.000 A 
ATOM     20  C   UNL     1      -0.034   9.179  22.509  0.00  0.00    +0.000 A 
ATOM     21  C   UNL     1      -0.773  10.178  23.134  0.00  0.00    +0.000 A 
ATOM     22  C   UNL     1      -1.221  11.271  22.395  0.00  0.00    +0.000 A 
ATOM     23  C   UNL     1      -0.964  11.393  21.017  0.00  0.00    +0.000 A 
ATOM     24  C   UNL     1      -0.178  10.385  20.437  0.00  0.00    +0.000 A 
BRANCH  23  25
ATOM     25  C   UNL     1      -1.573  12.574  20.136  0.00  0.00    +0.000 C 
ATOM     26  C   UNL     1      -1.460  14.049  20.632  0.00  0.00    +0.000 C 
ATOM     27  O   UNL     1      -1.001  14.469  19.311  0.00  0.00    +0.000 OA
ATOM     28  C   UNL     1      -0.588  13.105  19.049  0.00  0.00    +0.000 C 
BRANCH  25  29
ATOM     29  C   UNL     1      -2.975  12.225  19.594  0.00  0.00    +0.000 C 
BRANCH  29  30
ATOM     30  C   UNL     1      -2.967  11.612  18.227  0.00  0.00    +0.000 A 
ATOM     31  N   UNL     1      -1.953  10.993  17.658  0.00  0.00    +0.000 NA
ATOM     32  N   UNL     1      -2.364  10.522  16.428  0.00  0.00    +0.000 NA
ATOM     33  C   UNL     1      -3.621  10.867  16.270  0.00  0.00    +0.000 A 
ATOM     34  N   UNL     1      -4.035  11.566  17.366  0.00  0.00    +0.000 N 
ATOM     35  C   UNL     1      -5.353  12.111  17.544  0.00  0.00    +0.000 C 
ENDBRANCH  29  30
ENDBRANCH  25  29
ENDBRANCH  23  25
ENDBRANCH   8  19
BRANCH   5  36
ATOM     36  C   UNL     1       1.946   3.865  20.932  0.00  0.00    +0.000 C 
ATOM     37  F   UNL     1       2.293   4.106  22.225  0.00  0.00    +0.000 F 
ATOM     38  F   UNL     1       0.592   3.739  20.929  0.00  0.00    +0.000 F 
ATOM     39  F   UNL     1       2.440   2.631  20.641  0.00  0.00    +0.000 F 
ENDBRANCH   5  36
TORSDOF 6
ENDMDL
MODEL 2
REMARK VINA RESULT:     -10.2      0.728      1.315
REMARK  Name = 
REMARK  8 active torsions:
REMARK  status: ('A' for Active; 'I' for Inactive)
REMARK    1  A    between atoms: C_1  and  N_2
REMARK    2  A    between atoms: N_8  and  C_9
REMARK    3  A    between atoms: C_13  and  C_14
REMARK    4  A    between atoms: N_20  and  C_21
REMARK    5  A    between atoms: C_25  and  C_26
REMARK    6  A    between atoms: C_26  and  C_27
REMARK    7  A    between atoms: C_27  and  C_28
REMARK    8  A    between atoms: N_32  and  C_33
REMARK                            x       y       z     vdW  Elec       q    Type
REMARK                         _______ _______ _______ _____ _____    ______ ____
ROOT
ATOM      1  C   UNL     1       3.693   5.728  17.937  0.00  0.00    +0.000 A 
ATOM      2  C   UNL     1       3.223   7.036  18.062  0.00  0.00    +0.000 A 
ATOM      3  C   UNL     1       2.381   7.338  19.109  0.00  0.00    +0.000 A 
ATOM      4  C   UNL     1       1.968   6.401  20.046  0.00  0.00    +0.000 A 
ATOM      5  C   UNL     1       2.410   5.089  19.966  0.00  0.00    +0.000 A 
ATOM      6  C   UNL     1       3.286   4.781  18.911  0.00  0.00    +0.000 A 
ATOM      7  C   UNL     1       1.034   7.044  21.007  0.00  0.00    +0.000 C 
ATOM      8  N   UNL     1       0.992   8.428  20.556  0.00  0.00    +0.000 N 
ATOM      9  C   UNL     1       1.759   8.625  19.413  0.00  0.00    +0.000 C 
ATOM     10  O   UNL     1       1.933   9.611  18.720  0.00  0.00    +0.000 OA
ENDROOT
BRANCH   1  18
ATOM     11  C   UNL     1       7.891   4.339  17.281  0.00  0.00    +0.000 C 
ATOM     12  N   UNL     1       7.265   4.998  16.140  0.00  0.00    +0.000 NA
ATOM     13  C   UNL     1       6.710   6.331  16.517  0.00  0.00    +0.000 C 
ATOM     14  C   UNL     1       5.254   6.260  16.010  0.00  0.00    +0.000 C 
ATOM     15  C   UNL     1       5.433   5.373  14.777  0.00  0.00    +0.000 C 
ATOM     16  C   UNL     1       6.083   4.257  15.595  0.00  0.00    +0.000 C 
ATOM     17  C   UNL     1       4.948   3.991  16.635  0.00  0.00    +0.000 C 
ATOM     18  N   UNL     1       4.471   5.359  16.884  0.00  0.00    +0.000 N 
ENDBRANCH   1  18
BRANCH   8  19
ATOM     19  C   UNL     1       0.249   9.409  21.244  0.00  0.00    +0.000 A 
ATOM     20  C   UNL     1      -0.091   9.265  22.590  0.00  0.00    +0.000 A 
ATOM     21  C   UNL     1      -0.826  10.250  23.242  0.00  0.00    +0.000 A 
ATOM     22  C   UNL     1      -1.251  11.376  22.539  0.00  0.00    +0.000 A 
ATOM     23  C   UNL     1      -0.974  11.545  21.170  0.00  0.00    +0.000 A 
ATOM     24  C   UNL     1      -0.193  10.549  20.562  0.00  0.00    +0.000 A 
BRANCH  23  25
ATOM     25  C   UNL     1      -1.557  12.766  20.326  0.00  0.00    +0.000 C 
ATOM     26  C   UNL     1      -2.838  13.508  20.818  0.00  0.00    +0.000 C 
ATOM     27  O   UNL     1      -2.189  14.797  20.599  0.00  0.00    +0.000 OA
ATOM     28  C   UNL     1      -0.903  14.135  20.688  0.00  0.00    +0.000 C 
BRANCH  25  29
ATOM     29  C   UNL     1      -1.578  12.463  18.813  0.00  0.00    +0.000 C 
BRANCH  29  30
ATOM     30  C   UNL     1      -2.749  11.640  18.370  0.00  0.00    +0.000 A 
ATOM     31  N   UNL     1      -4.020  11.930  18.559  0.00  0.00    +0.000 NA
ATOM     32  N   UNL     1      -4.785  10.956  17.952  0.00  0.00    +0.000 NA
ATOM     33  C   UNL     1      -3.964  10.088  17.407  0.00  0.00    +0.000 A 
ATOM     34  N   UNL     1      -2.679  10.468  17.658  0.00  0.00    +0.000 N 
ATOM     35  C   UNL     1      -1.510   9.754  17.222  0.00  0.00    +0.000 C 
ENDBRANCH  29  30
ENDBRANCH  25  29
ENDBRANCH  23  25
ENDBRANCH   8  19
BRANCH   5  36
ATOM     36  C   UNL     1       1.961   4.018  20.925  0.00  0.00    +0.000 C 
ATOM     37  F   UNL     1       2.433   2.779  20.618  0.00  0.00    +0.000 F 
ATOM     38  F   UNL     1       2.364   4.263  22.201  0.00  0.00    +0.000 F 
ATOM     39  F   UNL     1       0.607   3.897  20.972  0.00  0.00    +0.000 F 
ENDBRANCH   5  36
TORSDOF 6
ENDMDL
MODEL 3
REMARK VINA RESULT:     -10.2      1.781      2.623
REMARK  Name = 
REMARK  8 active torsions:
REMARK  status: ('A' for Active; 'I' for Inactive)
REMARK    1  A    between atoms: C_1  and  N_2
REMARK    2  A    between atoms: N_8  and  C_9
REMARK    3  A    between atoms: C_13  and  C_14
REMARK    4  A    between atoms: N_20  and  C_21
REMARK    5  A    between atoms: C_25  and  C_26
REMARK    6  A    between atoms: C_26  and  C_27
REMARK    7  A    between atoms: C_27  and  C_28
REMARK    8  A    between atoms: N_32  and  C_33
REMARK                            x       y       z     vdW  Elec       q    Type
REMARK                         _______ _______ _______ _____ _____    ______ ____
ROOT
ATOM      1  C   UNL     1       3.745   5.572  17.975  0.00  0.00    +0.000 A 
ATOM      2  C   UNL     1       3.300   6.887  18.112  0.00  0.00    +0.000 A 
ATOM      3  C   UNL     1       2.445   7.190  19.147  0.00  0.00    +0.000 A 
ATOM      4  C   UNL     1       1.994   6.248  20.061  0.00  0.00    +0.000 A 
ATOM      5  C   UNL     1       2.410   4.929  19.969  0.00  0.00    +0.000 A 
ATOM      6  C   UNL     1       3.300   4.619  18.927  0.00  0.00    +0.000 A 
ATOM      7  C   UNL     1       1.054   6.897  21.015  0.00  0.00    +0.000 C 
ATOM      8  N   UNL     1       1.051   8.288  20.585  0.00  0.00    +0.000 N 
ATOM      9  C   UNL     1       1.844   8.485  19.460  0.00  0.00    +0.000 C 
ATOM     10  O   UNL     1       2.052   9.479  18.785  0.00  0.00    +0.000 OA
ENDROOT
BRANCH   1  18
ATOM     11  C   UNL     1       7.992   4.322  17.352  0.00  0.00    +0.000 C 
ATOM     12  N   UNL     1       7.341   4.925  16.193  0.00  0.00    +0.000 NA
ATOM     13  C   UNL     1       6.737   6.246  16.534  0.00  0.00    +0.000 C 
ATOM     14  C   UNL     1       5.284   6.107  16.031  0.00  0.00    +0.000 C 
ATOM     15  C   UNL     1       5.495   5.193  14.824  0.00  0.00    +0.000 C 
ATOM     16  C   UNL     1       6.188   4.125  15.672  0.00  0.00    +0.000 C 
ATOM     17  C   UNL     1       5.063   3.847  16.721  0.00  0.00    +0.000 C 
ATOM     18  N   UNL     1       4.536   5.202  16.933  0.00  0.00    +0.000 N 
ENDBRANCH   1  18
BRANCH   8  19
ATOM     19  C   UNL     1       0.314   9.273  21.273  0.00  0.00    +0.000 A 
ATOM     20  C   UNL     1       0.033   9.163  22.636  0.00  0.00    +0.000 A 
ATOM     21  C   UNL     1      -0.696  10.153  23.288  0.00  0.00    +0.000 A 
ATOM     22  C   UNL     1      -1.174  11.247  22.570  0.00  0.00    +0.000 A 
ATOM     23  C   UNL     1      -0.957  11.380  21.187  0.00  0.00    +0.000 A 
ATOM     24  C   UNL     1      -0.179  10.382  20.577  0.00  0.00    +0.000 A 
BRANCH  23  25
ATOM     25  C   UNL     1      -1.600  12.563  20.332  0.00  0.00    +0.000 C 
ATOM     26  C   UNL     1      -3.148  12.636  20.151  0.00  0.00    +0.000 C 
ATOM     27  O   UNL     1      -3.131  14.056  20.489  0.00  0.00    +0.000 OA
ATOM     28  C   UNL     1      -1.866  13.854  21.165  0.00  0.00    +0.000 C 
BRANCH  25  29
ATOM     29  C   UNL     1      -0.826  12.813  19.021  0.00  0.00    +0.000 C 
BRANCH  29  30
ATOM     30  C   UNL     1      -0.000  14.063  19.026  0.00  0.00    +0.000 A 
ATOM     31  N   UNL     1      -0.388  15.253  18.618  0.00  0.00    +0.000 NA
ATOM     32  N   UNL     1       0.638  16.148  18.842  0.00  0.00    +0.000 NA
ATOM     33  C   UNL     1       1.634  15.482  19.380  0.00  0.00    +0.000 A 
ATOM     34  N   UNL     1       1.284  14.169  19.499  0.00  0.00    +0.000 N 
ATOM     35  C   UNL     1       2.128  13.139  20.039  0.00  0.00    +0.000 C 
ENDBRANCH  29  30
ENDBRANCH  25  29
ENDBRANCH  23  25
ENDBRANCH   8  19
BRANCH   5  36
ATOM     36  C   UNL     1       1.920   3.853  20.902  0.00  0.00    +0.000 C 
ATOM     37  F   UNL     1       2.259   4.064  22.203  0.00  0.00    +0.000 F 
ATOM     38  F   UNL     1       0.565   3.731  20.887  0.00  0.00    +0.000 F 
ATOM     39  F   UNL     1       2.414   2.626  20.586  0.00  0.00    +0.000 F 
ENDBRANCH   5  36
TORSDOF 6
ENDMDL
MODEL 4
REMARK VINA RESULT:     -10.1      1.901      2.967
REMARK  Name = 
REMARK  8 active torsions:
REMARK  status: ('A' for Active; 'I' for Inactive)
REMARK    1  A    between atoms: C_1  and  N_2
REMARK    2  A    between atoms: N_8  and  C_9
REMARK    3  A    between atoms: C_13  and  C_14
REMARK    4  A    between atoms: N_20  and  C_21
REMARK    5  A    between atoms: C_25  and  C_26
REMARK    6  A    between atoms: C_26  and  C_27
REMARK    7  A    between atoms: C_27  and  C_28
REMARK    8  A    between atoms: N_32  and  C_33
REMARK                            x       y       z     vdW  Elec       q    Type
REMARK                         _______ _______ _______ _____ _____    ______ ____
ROOT
ATOM      1  C   UNL     1       3.755   5.521  17.949  0.00  0.00    +0.000 A 
ATOM      2  C   UNL     1       3.312   6.838  18.067  0.00  0.00    +0.000 A 
ATOM      3  C   UNL     1       2.451   7.155  19.095  0.00  0.00    +0.000 A 
ATOM      4  C   UNL     1       1.995   6.225  20.018  0.00  0.00    +0.000 A 
ATOM      5  C   UNL     1       2.409   4.904  19.944  0.00  0.00    +0.000 A 
ATOM      6  C   UNL     1       3.304   4.580  18.910  0.00  0.00    +0.000 A 
ATOM      7  C   UNL     1       1.051   6.886  20.958  0.00  0.00    +0.000 C 
ATOM      8  N   UNL     1       1.052   8.272  20.511  0.00  0.00    +0.000 N 
ATOM      9  C   UNL     1       1.851   8.455  19.388  0.00  0.00    +0.000 C 
ATOM     10  O   UNL     1       2.064   9.439  18.702  0.00  0.00    +0.000 OA
ENDROOT
BRANCH   1  18
ATOM     11  C   UNL     1       8.013   4.291  17.357  0.00  0.00    +0.000 C 
ATOM     12  N   UNL     1       7.359   4.866  16.187  0.00  0.00    +0.000 NA
ATOM     13  C   UNL     1       6.745   6.190  16.501  0.00  0.00    +0.000 C 
ATOM     14  C   UNL     1       5.294   6.030  15.998  0.00  0.00    +0.000 C 
ATOM     15  C   UNL     1       5.514   5.095  14.809  0.00  0.00    +0.000 C 
ATOM     16  C   UNL     1       6.213   4.048  15.679  0.00  0.00    +0.000 C 
ATOM     17  C   UNL     1       5.089   3.782  16.731  0.00  0.00    +0.000 C 
ATOM     18  N   UNL     1       4.551   5.137  16.915  0.00  0.00    +0.000 N 
ENDBRANCH   1  18
BRANCH   8  19
ATOM     19  C   UNL     1       0.313   9.267  21.183  0.00  0.00    +0.000 A 
ATOM     20  C   UNL     1       0.175   9.268  22.572  0.00  0.00    +0.000 A 
ATOM     21  C   UNL     1      -0.560  10.264  23.208  0.00  0.00    +0.000 A 
ATOM     22  C   UNL     1      -1.188  11.251  22.451  0.00  0.00    +0.000 A 
ATOM     23  C   UNL     1      -1.117  11.267  21.046  0.00  0.00    +0.000 A 
ATOM     24  C   UNL     1      -0.329  10.270  20.448  0.00  0.00    +0.000 A 
BRANCH  23  25
ATOM     25  C   UNL     1      -1.928  12.318  20.162  0.00  0.00    +0.000 C 
ATOM     26  C   UNL     1      -2.992  11.813  19.138  0.00  0.00    +0.000 C 
ATOM     27  O   UNL     1      -3.948  12.800  19.629  0.00  0.00    +0.000 OA
ATOM     28  C   UNL     1      -3.205  12.866  20.871  0.00  0.00    +0.000 C 
BRANCH  25  29
ATOM     29  C   UNL     1      -1.011  13.417  19.587  0.00  0.00    +0.000 C 
BRANCH  29  30
ATOM     30  C   UNL     1      -0.023  13.966  20.571  0.00  0.00    +0.000 A 
ATOM     31  N   UNL     1      -0.306  14.680  21.641  0.00  0.00    +0.000 NA
ATOM     32  N   UNL     1       0.869  14.941  22.315  0.00  0.00    +0.000 NA
ATOM     33  C   UNL     1       1.847  14.382  21.640  0.00  0.00    +0.000 A 
ATOM     34  N   UNL     1       1.335  13.774  20.531  0.00  0.00    +0.000 N 
ATOM     35  C   UNL     1       2.111  13.066  19.550  0.00  0.00    +0.000 C 
ENDBRANCH  29  30
ENDBRANCH  25  29
ENDBRANCH  23  25
ENDBRANCH   8  19
BRANCH   5  36
ATOM     36  C   UNL     1       1.913   3.841  20.888  0.00  0.00    +0.000 C 
ATOM     37  F   UNL     1       2.388   2.597  20.606  0.00  0.00    +0.000 F 
ATOM     38  F   UNL     1       2.265   4.088  22.179  0.00  0.00    +0.000 F 
ATOM     39  F   UNL     1       0.558   3.729  20.881  0.00  0.00    +0.000 F 
ENDBRANCH   5  36
TORSDOF 6
ENDMDL
MODEL 5
REMARK VINA RESULT:     -10.0      2.991      9.547
REMARK  Name = 
REMARK  8 active torsions:
REMARK  status: ('A' for Active; 'I' for Inactive)
REMARK    1  A    between atoms: C_1  and  N_2
REMARK    2  A    between atoms: N_8  and  C_9
REMARK    3  A    between atoms: C_13  and  C_14
REMARK    4  A    between atoms: N_20  and  C_21
REMARK    5  A    between atoms: C_25  and  C_26
REMARK    6  A    between atoms: C_26  and  C_27
REMARK    7  A    between atoms: C_27  and  C_28
REMARK    8  A    between atoms: N_32  and  C_33
REMARK                            x       y       z     vdW  Elec       q    Type
REMARK                         _______ _______ _______ _____ _____    ______ ____
ROOT
ATOM      1  C   UNL     1       0.118  12.118  19.903  0.00  0.00    +0.000 A 
ATOM      2  C   UNL     1       0.797  11.416  18.907  0.00  0.00    +0.000 A 
ATOM      3  C   UNL     1       1.154  10.108  19.149  0.00  0.00    +0.000 A 
ATOM      4  C   UNL     1       0.878   9.453  20.340  0.00  0.00    +0.000 A 
ATOM      5  C   UNL     1       0.202  10.107  21.359  0.00  0.00    +0.000 A 
ATOM      6  C   UNL     1      -0.183  11.435  21.110  0.00  0.00    +0.000 A 
ATOM      7  C   UNL     1       1.437   8.076  20.286  0.00  0.00    +0.000 C 
ATOM      8  N   UNL     1       2.010   8.001  18.950  0.00  0.00    +0.000 N 
ATOM      9  C   UNL     1       1.883   9.203  18.263  0.00  0.00    +0.000 C 
ATOM     10  O   UNL     1       2.275   9.546  17.161  0.00  0.00    +0.000 OA
ENDROOT
BRANCH   1  18
ATOM     11  C   UNL     1       2.211  15.888  18.724  0.00  0.00    +0.000 C 
ATOM     12  N   UNL     1       1.037  16.064  19.572  0.00  0.00    +0.000 NA
ATOM     13  C   UNL     1       1.125  15.226  20.804  0.00  0.00    +0.000 C 
ATOM     14  C   UNL     1      -0.218  14.465  20.805  0.00  0.00    +0.000 C 
ATOM     15  C   UNL     1      -1.130  15.511  20.164  0.00  0.00    +0.000 C 
ATOM     16  C   UNL     1      -0.239  15.623  18.926  0.00  0.00    +0.000 C 
ATOM     17  C   UNL     1      -0.248  14.132  18.455  0.00  0.00    +0.000 C 
ATOM     18  N   UNL     1      -0.199  13.432  19.746  0.00  0.00    +0.000 N 
ENDBRANCH   1  18
BRANCH   8  19
ATOM     19  C   UNL     1       2.605   6.818  18.465  0.00  0.00    +0.000 A 
ATOM     20  C   UNL     1       1.860   5.660  18.238  0.00  0.00    +0.000 A 
ATOM     21  C   UNL     1       2.475   4.508  17.759  0.00  0.00    +0.000 A 
ATOM     22  C   UNL     1       3.850   4.501  17.530  0.00  0.00    +0.000 A 
ATOM     23  C   UNL     1       4.651   5.628  17.787  0.00  0.00    +0.000 A 
ATOM     24  C   UNL     1       3.984   6.783  18.228  0.00  0.00    +0.000 A 
BRANCH  23  25
ATOM     25  C   UNL     1       6.240   5.597  17.646  0.00  0.00    +0.000 C 
ATOM     26  C   UNL     1       7.020   6.919  17.371  0.00  0.00    +0.000 C 
ATOM     27  O   UNL     1       7.976   6.587  18.423  0.00  0.00    +0.000 OA
ATOM     28  C   UNL     1       6.983   5.712  19.012  0.00  0.00    +0.000 C 
BRANCH  25  29
ATOM     29  C   UNL     1       6.717   4.420  16.770  0.00  0.00    +0.000 C 
BRANCH  29  30
ATOM     30  C   UNL     1       7.030   4.798  15.355  0.00  0.00    +0.000 A 
ATOM     31  N   UNL     1       8.049   5.528  14.951  0.00  0.00    +0.000 NA
ATOM     32  N   UNL     1       8.019   5.598  13.574  0.00  0.00    +0.000 NA
ATOM     33  C   UNL     1       6.978   4.910  13.164  0.00  0.00    +0.000 A 
ATOM     34  N   UNL     1       6.320   4.405  14.248  0.00  0.00    +0.000 N 
ATOM     35  C   UNL     1       5.128   3.604  14.186  0.00  0.00    +0.000 C 
ENDBRANCH  29  30
ENDBRANCH  25  29
ENDBRANCH  23  25
ENDBRANCH   8  19
BRANCH   5  36
ATOM     36  C   UNL     1      -0.085   9.465  22.690  0.00  0.00    +0.000 C 
ATOM     37  F   UNL     1      -0.737   8.274  22.591  0.00  0.00    +0.000 F 
ATOM     38  F   UNL     1       1.048   9.210  23.398  0.00  0.00    +0.000 F 
ATOM     39  F   UNL     1      -0.862  10.246  23.488  0.00  0.00    +0.000 F 
ENDBRANCH   5  36
TORSDOF 6
ENDMDL
MODEL 6
REMARK VINA RESULT:      -9.9      1.262      1.774
REMARK  Name = 
REMARK  8 active torsions:
REMARK  status: ('A' for Active; 'I' for Inactive)
REMARK    1  A    between atoms: C_1  and  N_2
REMARK    2  A    between atoms: N_8  and  C_9
REMARK    3  A    between atoms: C_13  and  C_14
REMARK    4  A    between atoms: N_20  and  C_21
REMARK    5  A    between atoms: C_25  and  C_26
REMARK    6  A    between atoms: C_26  and  C_27
REMARK    7  A    between atoms: C_27  and  C_28
REMARK    8  A    between atoms: N_32  and  C_33
REMARK                            x       y       z     vdW  Elec       q    Type
REMARK                         _______ _______ _______ _____ _____    ______ ____
ROOT
ATOM      1  C   UNL     1       3.704   5.819  17.954  0.00  0.00    +0.000 A 
ATOM      2  C   UNL     1       3.222   7.121  18.088  0.00  0.00    +0.000 A 
ATOM      3  C   UNL     1       2.372   7.407  19.132  0.00  0.00    +0.000 A 
ATOM      4  C   UNL     1       1.962   6.458  20.059  0.00  0.00    +0.000 A 
ATOM      5  C   UNL     1       2.415   5.152  19.971  0.00  0.00    +0.000 A 
ATOM      6  C   UNL     1       3.300   4.860  18.919  0.00  0.00    +0.000 A 
ATOM      7  C   UNL     1       1.016   7.086  21.020  0.00  0.00    +0.000 C 
ATOM      8  N   UNL     1       0.965   8.473  20.580  0.00  0.00    +0.000 N 
ATOM      9  C   UNL     1       1.737   8.686  19.444  0.00  0.00    +0.000 C 
ATOM     10  O   UNL     1       1.906   9.680  18.759  0.00  0.00    +0.000 OA
ENDROOT
BRANCH   1  18
ATOM     11  C   UNL     1       7.880   4.354  17.323  0.00  0.00    +0.000 C 
ATOM     12  N   UNL     1       7.289   5.063  16.194  0.00  0.00    +0.000 NA
ATOM     13  C   UNL     1       6.759   6.396  16.605  0.00  0.00    +0.000 C 
ATOM     14  C   UNL     1       5.310   6.375  16.072  0.00  0.00    +0.000 C 
ATOM     15  C   UNL     1       5.490   5.525  14.814  0.00  0.00    +0.000 C 
ATOM     16  C   UNL     1       6.101   4.367  15.606  0.00  0.00    +0.000 C 
ATOM     17  C   UNL     1       4.941   4.095  16.618  0.00  0.00    +0.000 C 
ATOM     18  N   UNL     1       4.492   5.465  16.904  0.00  0.00    +0.000 N 
ENDBRANCH   1  18
BRANCH   8  19
ATOM     19  C   UNL     1       0.209   9.442  21.272  0.00  0.00    +0.000 A 
ATOM     20  C   UNL     1      -0.111   9.298  22.623  0.00  0.00    +0.000 A 
ATOM     21  C   UNL     1      -0.859  10.271  23.279  0.00  0.00    +0.000 A 
ATOM     22  C   UNL     1      -1.318  11.382  22.574  0.00  0.00    +0.000 A 
ATOM     23  C   UNL     1      -1.062  11.550  21.201  0.00  0.00    +0.000 A 
ATOM     24  C   UNL     1      -0.266  10.567  20.589  0.00  0.00    +0.000 A 
BRANCH  23  25
ATOM     25  C   UNL     1      -1.682  12.752  20.357  0.00  0.00    +0.000 C 
ATOM     26  C   UNL     1      -1.951  14.126  21.047  0.00  0.00    +0.000 C 
ATOM     27  O   UNL     1      -1.312  14.822  19.935  0.00  0.00    +0.000 OA
ATOM     28  C   UNL     1      -0.608  13.599  19.608  0.00  0.00    +0.000 C 
BRANCH  25  29
ATOM     29  C   UNL     1      -2.849  12.286  19.462  0.00  0.00    +0.000 C 
BRANCH  29  30
ATOM     30  C   UNL     1      -4.183  12.293  20.143  0.00  0.00    +0.000 A 
ATOM     31  N   UNL     1      -4.393  12.335  21.443  0.00  0.00    +0.000 NA
ATOM     32  N   UNL     1      -5.753  12.386  21.664  0.00  0.00    +0.000 NA
ATOM     33  C   UNL     1      -6.347  12.372  20.493  0.00  0.00    +0.000 A 
ATOM     34  N   UNL     1      -5.402  12.297  19.512  0.00  0.00    +0.000 N 
ATOM     35  C   UNL     1      -5.681  12.252  18.103  0.00  0.00    +0.000 C 
ENDBRANCH  29  30
ENDBRANCH  25  29
ENDBRANCH  23  25
ENDBRANCH   8  19
BRANCH   5  36
ATOM     36  C   UNL     1       1.970   4.069  20.918  0.00  0.00    +0.000 C 
ATOM     37  F   UNL     1       0.620   3.908  20.966  0.00  0.00    +0.000 F 
ATOM     38  F   UNL     1       2.477   2.850  20.587  0.00  0.00    +0.000 F 
ATOM     39  F   UNL     1       2.361   4.305  22.199  0.00  0.00    +0.000 F 
ENDBRANCH   5  36
TORSDOF 6
ENDMDL
MODEL 7
REMARK VINA RESULT:      -9.9      3.065      9.430
REMARK  Name = 
REMARK  8 active torsions:
REMARK  status: ('A' for Active; 'I' for Inactive)
REMARK    1  A    between atoms: C_1  and  N_2
REMARK    2  A    between atoms: N_8  and  C_9
REMARK    3  A    between atoms: C_13  and  C_14
REMARK    4  A    between atoms: N_20  and  C_21
REMARK    5  A    between atoms: C_25  and  C_26
REMARK    6  A    between atoms: C_26  and  C_27
REMARK    7  A    between atoms: C_27  and  C_28
REMARK    8  A    between atoms: N_32  and  C_33
REMARK                            x       y       z     vdW  Elec       q    Type
REMARK                         _______ _______ _______ _____ _____    ______ ____
ROOT
ATOM      1  C   UNL     1       0.670  11.874  19.606  0.00  0.00    +0.000 A 
ATOM      2  C   UNL     1       1.319  11.013  18.721  0.00  0.00    +0.000 A 
ATOM      3  C   UNL     1       1.493   9.697  19.087  0.00  0.00    +0.000 A 
ATOM      4  C   UNL     1       1.060   9.183  20.301  0.00  0.00    +0.000 A 
ATOM      5  C   UNL     1       0.408   9.997  21.213  0.00  0.00    +0.000 A 
ATOM      6  C   UNL     1       0.209  11.336  20.836  0.00  0.00    +0.000 A 
ATOM      7  C   UNL     1       1.445   7.749  20.394  0.00  0.00    +0.000 C 
ATOM      8  N   UNL     1       2.090   7.494  19.114  0.00  0.00    +0.000 N 
ATOM      9  C   UNL     1       2.159   8.640  18.330  0.00  0.00    +0.000 C 
ATOM     10  O   UNL     1       2.662   8.840  17.237  0.00  0.00    +0.000 OA
ENDROOT
BRANCH   1  18
ATOM     11  C   UNL     1       2.685  15.703  20.731  0.00  0.00    +0.000 C 
ATOM     12  N   UNL     1       1.288  15.826  20.331  0.00  0.00    +0.000 NA
ATOM     13  C   UNL     1       0.414  14.900  21.110  0.00  0.00    +0.000 C 
ATOM     14  C   UNL     1      -0.370  14.151  20.011  0.00  0.00    +0.000 C 
ATOM     15  C   UNL     1      -0.478  15.249  18.952  0.00  0.00    +0.000 C 
ATOM     16  C   UNL     1       1.038  15.443  18.905  0.00  0.00    +0.000 C 
ATOM     17  C   UNL     1       1.482  13.990  18.535  0.00  0.00    +0.000 C 
ATOM     18  N   UNL     1       0.531  13.198  19.326  0.00  0.00    +0.000 N 
ENDBRANCH   1  18
BRANCH   8  19
ATOM     19  C   UNL     1       2.563   6.212  18.765  0.00  0.00    +0.000 A 
ATOM     20  C   UNL     1       2.073   5.056  19.377  0.00  0.00    +0.000 A 
ATOM     21  C   UNL     1       2.558   3.805  19.012  0.00  0.00    +0.000 A 
ATOM     22  C   UNL     1       3.562   3.705  18.050  0.00  0.00    +0.000 A 
ATOM     23  C   UNL     1       4.121   4.842  17.439  0.00  0.00    +0.000 A 
ATOM     24  C   UNL     1       3.571   6.082  17.804  0.00  0.00    +0.000 A 
BRANCH  23  25
ATOM     25  C   UNL     1       5.351   4.751  16.429  0.00  0.00    +0.000 C 
ATOM     26  C   UNL     1       5.274   3.796  15.197  0.00  0.00    +0.000 C 
ATOM     27  O   UNL     1       5.759   4.862  14.327  0.00  0.00    +0.000 OA
ATOM     28  C   UNL     1       5.309   5.831  15.304  0.00  0.00    +0.000 C 
BRANCH  25  29
ATOM     29  C   UNL     1       6.702   4.672  17.171  0.00  0.00    +0.000 C 
BRANCH  29  30
ATOM     30  C   UNL     1       7.312   6.006  17.473  0.00  0.00    +0.000 A 
ATOM     31  N   UNL     1       7.395   7.029  16.648  0.00  0.00    +0.000 NA
ATOM     32  N   UNL     1       7.968   8.088  17.320  0.00  0.00    +0.000 NA
ATOM     33  C   UNL     1       8.226   7.688  18.544  0.00  0.00    +0.000 A 
ATOM     34  N   UNL     1       7.847   6.385  18.679  0.00  0.00    +0.000 N 
ATOM     35  C   UNL     1       7.985   5.609  19.881  0.00  0.00    +0.000 C 
ENDBRANCH  29  30
ENDBRANCH  25  29
ENDBRANCH  23  25
ENDBRANCH   8  19
BRANCH   5  36
ATOM     36  C   UNL     1      -0.044   9.509  22.564  0.00  0.00    +0.000 C 
ATOM     37  F   UNL     1      -0.831   8.400  22.508  0.00  0.00    +0.000 F 
ATOM     38  F   UNL     1       1.000   9.182  23.373  0.00  0.00    +0.000 F 
ATOM     39  F   UNL     1      -0.768  10.442  23.240  0.00  0.00    +0.000 F 
ENDBRANCH   5  36
TORSDOF 6
ENDMDL
MODEL 8
REMARK VINA RESULT:      -9.8      3.035      9.718
REMARK  Name = 
REMARK  8 active torsions:
REMARK  status: ('A' for Active; 'I' for Inactive)
REMARK    1  A    between atoms: C_1  and  N_2
REMARK    2  A    between atoms: N_8  and  C_9
REMARK    3  A    between atoms: C_13  and  C_14
REMARK    4  A    between atoms: N_20  and  C_21
REMARK    5  A    between atoms: C_25  and  C_26
REMARK    6  A    between atoms: C_26  and  C_27
REMARK    7  A    between atoms: C_27  and  C_28
REMARK    8  A    between atoms: N_32  and  C_33
REMARK                            x       y       z     vdW  Elec       q    Type
REMARK                         _______ _______ _______ _____ _____    ______ ____
ROOT
ATOM      1  C   UNL     1       0.722  11.923  19.675  0.00  0.00    +0.000 A 
ATOM      2  C   UNL     1       1.347  11.142  18.702  0.00  0.00    +0.000 A 
ATOM      3  C   UNL     1       1.511   9.796  18.942  0.00  0.00    +0.000 A 
ATOM      4  C   UNL     1       1.092   9.176  20.111  0.00  0.00    +0.000 A 
ATOM      5  C   UNL     1       0.464   9.909  21.106  0.00  0.00    +0.000 A 
ATOM      6  C   UNL     1       0.274  11.279  20.857  0.00  0.00    +0.000 A 
ATOM      7  C   UNL     1       1.462   7.736  20.064  0.00  0.00    +0.000 C 
ATOM      8  N   UNL     1       2.083   7.594  18.755  0.00  0.00    +0.000 N 
ATOM      9  C   UNL     1       2.153   8.807  18.080  0.00  0.00    +0.000 C 
ATOM     10  O   UNL     1       2.640   9.101  17.002  0.00  0.00    +0.000 OA
ENDROOT
BRANCH   1  18
ATOM     11  C   UNL     1       0.277  15.507  22.309  0.00  0.00    +0.000 C 
ATOM     12  N   UNL     1      -0.265  15.650  20.962  0.00  0.00    +0.000 NA
ATOM     13  C   UNL     1      -1.206  14.540  20.633  0.00  0.00    +0.000 C 
ATOM     14  C   UNL     1      -0.665  14.011  19.287  0.00  0.00    +0.000 C 
ATOM     15  C   UNL     1      -0.122  15.304  18.679  0.00  0.00    +0.000 C 
ATOM     16  C   UNL     1       0.775  15.572  19.888  0.00  0.00    +0.000 C 
ATOM     17  C   UNL     1       1.617  14.255  19.893  0.00  0.00    +0.000 C 
ATOM     18  N   UNL     1       0.594  13.268  19.521  0.00  0.00    +0.000 N 
ENDBRANCH   1  18
BRANCH   8  19
ATOM     19  C   UNL     1       2.535   6.345  18.282  0.00  0.00    +0.000 A 
ATOM     20  C   UNL     1       1.726   5.207  18.320  0.00  0.00    +0.000 A 
ATOM     21  C   UNL     1       2.200   3.988  17.845  0.00  0.00    +0.000 A 
ATOM     22  C   UNL     1       3.501   3.895  17.356  0.00  0.00    +0.000 A 
ATOM     23  C   UNL     1       4.371   5.001  17.341  0.00  0.00    +0.000 A 
ATOM     24  C   UNL     1       3.838   6.221  17.787  0.00  0.00    +0.000 A 
BRANCH  23  25
ATOM     25  C   UNL     1       5.898   4.880  16.898  0.00  0.00    +0.000 C 
ATOM     26  C   UNL     1       6.781   6.162  16.799  0.00  0.00    +0.000 C 
ATOM     27  O   UNL     1       7.847   5.499  17.542  0.00  0.00    +0.000 OA
ATOM     28  C   UNL     1       6.864   4.584  18.086  0.00  0.00    +0.000 C 
BRANCH  25  29
ATOM     29  C   UNL     1       6.076   3.930  15.695  0.00  0.00    +0.000 C 
BRANCH  29  30
ATOM     30  C   UNL     1       6.804   4.539  14.536  0.00  0.00    +0.000 A 
ATOM     31  N   UNL     1       7.766   5.436  14.606  0.00  0.00    +0.000 NA
ATOM     32  N   UNL     1       8.215   5.696  13.328  0.00  0.00    +0.000 NA
ATOM     33  C   UNL     1       7.514   4.953  12.502  0.00  0.00    +0.000 A 
ATOM     34  N   UNL     1       6.607   4.225  13.215  0.00  0.00    +0.000 N 
ATOM     35  C   UNL     1       5.662   3.304  12.644  0.00  0.00    +0.000 C 
ENDBRANCH  29  30
ENDBRANCH  25  29
ENDBRANCH  23  25
ENDBRANCH   8  19
BRANCH   5  36
ATOM     36  C   UNL     1       0.028   9.302  22.413  0.00  0.00    +0.000 C 
ATOM     37  F   UNL     1      -0.752   8.196  22.268  0.00  0.00    +0.000 F 
ATOM     38  F   UNL     1       1.082   8.914  23.181  0.00  0.00    +0.000 F 
ATOM     39  F   UNL     1      -0.695  10.167  23.173  0.00  0.00    +0.000 F 
ENDBRANCH   5  36
TORSDOF 6
ENDMDL
MODEL 9
REMARK VINA RESULT:      -9.8      1.213      1.744
REMARK  Name = 
REMARK  8 active torsions:
REMARK  status: ('A' for Active; 'I' for Inactive)
REMARK    1  A    between atoms: C_1  and  N_2
REMARK    2  A    between atoms: N_8  and  C_9
REMARK    3  A    between atoms: C_13  and  C_14
REMARK    4  A    between atoms: N_20  and  C_21
REMARK    5  A    between atoms: C_25  and  C_26
REMARK    6  A    between atoms: C_26  and  C_27
REMARK    7  A    between atoms: C_27  and  C_28
REMARK    8  A    between atoms: N_32  and  C_33
REMARK                            x       y       z     vdW  Elec       q    Type
REMARK                         _______ _______ _______ _____ _____    ______ ____
ROOT
ATOM      1  C   UNL     1       3.725   5.618  17.938  0.00  0.00    +0.000 A 
ATOM      2  C   UNL     1       3.313   6.942  18.093  0.00  0.00    +0.000 A 
ATOM      3  C   UNL     1       2.495   7.259  19.153  0.00  0.00    +0.000 A 
ATOM      4  C   UNL     1       2.050   6.323  20.076  0.00  0.00    +0.000 A 
ATOM      5  C   UNL     1       2.433   4.996  19.967  0.00  0.00    +0.000 A 
ATOM      6  C   UNL     1       3.286   4.670  18.898  0.00  0.00    +0.000 A 
ATOM      7  C   UNL     1       1.152   6.988  21.058  0.00  0.00    +0.000 C 
ATOM      8  N   UNL     1       1.167   8.381  20.634  0.00  0.00    +0.000 N 
ATOM      9  C   UNL     1       1.932   8.566  19.488  0.00  0.00    +0.000 C 
ATOM     10  O   UNL     1       2.143   9.558  18.812  0.00  0.00    +0.000 OA
ENDROOT
BRANCH   1  18
ATOM     11  C   UNL     1       7.932   4.308  17.183  0.00  0.00    +0.000 C 
ATOM     12  N   UNL     1       7.253   4.918  16.045  0.00  0.00    +0.000 NA
ATOM     13  C   UNL     1       6.679   6.248  16.402  0.00  0.00    +0.000 C 
ATOM     14  C   UNL     1       5.209   6.128  15.946  0.00  0.00    +0.000 C 
ATOM     15  C   UNL     1       5.369   5.210  14.734  0.00  0.00    +0.000 C 
ATOM     16  C   UNL     1       6.073   4.134  15.562  0.00  0.00    +0.000 C 
ATOM     17  C   UNL     1       4.978   3.873  16.646  0.00  0.00    +0.000 C 
ATOM     18  N   UNL     1       4.477   5.235  16.872  0.00  0.00    +0.000 N 
ENDBRANCH   1  18
BRANCH   8  19
ATOM     19  C   UNL     1       0.473   9.380  21.347  0.00  0.00    +0.000 A 
ATOM     20  C   UNL     1      -0.396   9.067  22.394  0.00  0.00    +0.000 A 
ATOM     21  C   UNL     1      -1.068  10.074  23.079  0.00  0.00    +0.000 A 
ATOM     22  C   UNL     1      -0.894  11.403  22.700  0.00  0.00    +0.000 A 
ATOM     23  C   UNL     1      -0.065  11.766  21.622  0.00  0.00    +0.000 A 
ATOM     24  C   UNL     1       0.627  10.723  20.987  0.00  0.00    +0.000 A 
BRANCH  23  25
ATOM     25  C   UNL     1       0.048  13.269  21.101  0.00  0.00    +0.000 C 
ATOM     26  C   UNL     1      -0.207  14.453  22.085  0.00  0.00    +0.000 C 
ATOM     27  O   UNL     1       1.006  15.117  21.617  0.00  0.00    +0.000 OA
ATOM     28  C   UNL     1       1.500  13.835  21.159  0.00  0.00    +0.000 C 
BRANCH  25  29
ATOM     29  C   UNL     1      -0.644  13.459  19.735  0.00  0.00    +0.000 C 
BRANCH  29  30
ATOM     30  C   UNL     1      -2.043  12.926  19.679  0.00  0.00    +0.000 A 
ATOM     31  N   UNL     1      -3.068  13.352  20.389  0.00  0.00    +0.000 NA
ATOM     32  N   UNL     1      -4.189  12.648  20.004  0.00  0.00    +0.000 NA
ATOM     33  C   UNL     1      -3.826  11.803  19.067  0.00  0.00    +0.000 A 
ATOM     34  N   UNL     1      -2.486  11.932  18.843  0.00  0.00    +0.000 N 
ATOM     35  C   UNL     1      -1.734  11.162  17.890  0.00  0.00    +0.000 C 
ENDBRANCH  29  30
ENDBRANCH  25  29
ENDBRANCH  23  25
ENDBRANCH   8  19
BRANCH   5  36
ATOM     36  C   UNL     1       1.946   3.927  20.909  0.00  0.00    +0.000 C 
ATOM     37  F   UNL     1       0.592   3.794  20.931  0.00  0.00    +0.000 F 
ATOM     38  F   UNL     1       2.435   2.697  20.595  0.00  0.00    +0.000 F 
ATOM     39  F   UNL     1       2.315   4.161  22.197  0.00  0.00    +0.000 F 
ENDBRANCH   5  36
TORSDOF 6
ENDMDL
