MODEL 1
REMARK VINA RESULT:      -9.4      0.000      0.000
REMARK  Name = 
REMARK  9 active torsions:
REMARK  status: ('A' for Active; 'I' for Inactive)
REMARK    1  A    between atoms: C_1  and  C_2
REMARK    2  A    between atoms: C_2  and  C_3
REMARK    3  A    between atoms: C_2  and  C_10
REMARK    4  A    between atoms: C_3  and  C_4
REMARK    5  A    between atoms: N_8  and  C_9
REMARK    6  A    between atoms: C_14  and  N_15
REMARK    7  A    between atoms: C_16  and  C_18
REMARK    8  A    between atoms: C_20  and  C_21
REMARK    9  A    between atoms: C_25  and  O_26
REMARK                            x       y       z     vdW  Elec       q    Type
REMARK                         _______ _______ _______ _____ _____    ______ ____
ROOT
ATOM      1  N   UNL     1       0.913   7.823  21.226  0.00  0.00    +0.000 N 
ATOM      2  C   UNL     1       1.719   7.618  20.125  0.00  0.00    +0.000 C 
ATOM      3  O   UNL     1       2.037   8.454  19.284  0.00  0.00    +0.000 OA
ATOM      4  H   UNL     1       0.865   7.053  21.885  0.00  0.00    +0.000 HD
ENDROOT
BRANCH   1   9
ATOM      5  C   UNL     1      -0.787  11.088  20.717  0.00  0.00    +0.000 A 
ATOM      6  C   UNL     1      -1.182  11.385  22.031  0.00  0.00    +0.000 A 
ATOM      7  C   UNL     1      -0.860  10.533  23.077  0.00  0.00    +0.000 A 
ATOM      8  C   UNL     1      -0.164   9.353  22.828  0.00  0.00    +0.000 A 
ATOM      9  C   UNL     1       0.213   9.011  21.526  0.00  0.00    +0.000 A 
ATOM     10  C   UNL     1      -0.095   9.885  20.478  0.00  0.00    +0.000 A 
BRANCH   5  12
ATOM     11  C   UNL     1      -0.599  13.448  19.841  0.00  0.00    +0.000 C 
ATOM     12  C   UNL     1      -1.110  12.025  19.556  0.00  0.00    +0.000 C 
BRANCH  12  13
ATOM     13  C   UNL     1      -2.620  11.963  19.248  0.00  0.00    +0.000 C 
BRANCH  13  14
ATOM     14  C   UNL     1      -2.948  11.551  17.851  0.00  0.00    +0.000 A 
ATOM     15  N   UNL     1      -2.104  11.291  16.871  0.00  0.00    +0.000 NA
ATOM     16  N   UNL     1      -2.829  10.943  15.756  0.00  0.00    +0.000 NA
ATOM     17  C   UNL     1      -4.099  10.973  16.081  0.00  0.00    +0.000 A 
ATOM     18  N   UNL     1      -4.222  11.341  17.384  0.00  0.00    +0.000 N 
ATOM     19  C   UNL     1      -5.453  11.455  18.118  0.00  0.00    +0.000 C 
ENDBRANCH  13  14
ENDBRANCH  12  13
ENDBRANCH   5  12
ENDBRANCH   1   9
BRANCH   2  20
ATOM     20  C   UNL     1       2.280   6.243  19.997  0.00  0.00    +0.000 A 
ATOM     21  C   UNL     1       3.537   6.116  19.426  0.00  0.00    +0.000 A 
ATOM     22  C   UNL     1       4.129   4.864  19.400  0.00  0.00    +0.000 A 
ATOM     23  C   UNL     1       3.395   3.761  19.838  0.00  0.00    +0.000 A 
ATOM     24  C   UNL     1       2.122   3.976  20.347  0.00  0.00    +0.000 A 
ATOM     25  N   UNL     1       1.552   5.198  20.469  0.00  0.00    +0.000 NA
BRANCH  22  26
ATOM     26  C   UNL     1       5.480   4.680  18.807  0.00  0.00    +0.000 C 
ATOM     27  O   UNL     1       6.435   4.595  19.574  0.00  0.00    +0.000 OA
ATOM     28  N   UNL     1       5.618   4.595  17.429  0.00  0.00    +0.000 N 
ATOM     29  C   UNL     1       6.870   4.153  16.825  0.00  0.00    +0.000 C 
ATOM     30  C   UNL     1       7.008   5.013  15.570  0.00  0.00    +0.000 C 
ATOM     31  C   UNL     1       5.567   5.213  15.117  0.00  0.00    +0.000 C 
ATOM     32  F   UNL     1       5.196   4.159  14.338  0.00  0.00    +0.000 F 
ATOM     33  C   UNL     1       4.748   5.190  16.408  0.00  0.00    +0.000 C 
BRANCH  30  34
ATOM     34  O   UNL     1       7.619   6.273  15.865  0.00  0.00    +0.000 OA
ATOM     35  H   UNL     1       7.313   6.916  15.197  0.00  0.00    +0.000 HD
ENDBRANCH  30  34
ENDBRANCH  22  26
ENDBRANCH   2  20
TORSDOF 7
ENDMDL
MODEL 2
REMARK VINA RESULT:      -9.0      6.172      8.679
REMARK  Name = 
REMARK  9 active torsions:
REMARK  status: ('A' for Active; 'I' for Inactive)
REMARK    1  A    between atoms: C_1  and  C_2
REMARK    2  A    between atoms: C_2  and  C_3
REMARK    3  A    between atoms: C_2  and  C_10
REMARK    4  A    between atoms: C_3  and  C_4
REMARK    5  A    between atoms: N_8  and  C_9
REMARK    6  A    between atoms: C_14  and  N_15
REMARK    7  A    between atoms: C_16  and  C_18
REMARK    8  A    between atoms: C_20  and  C_21
REMARK    9  A    between atoms: C_25  and  O_26
REMARK                            x       y       z     vdW  Elec       q    Type
REMARK                         _______ _______ _______ _____ _____    ______ ____
ROOT
ATOM      1  N   UNL     1       7.803   8.917  17.821  0.00  0.00    +0.000 N 
ATOM      2  C   UNL     1       7.877   7.569  18.108  0.00  0.00    +0.000 C 
ATOM      3  O   UNL     1       8.583   7.039  18.961  0.00  0.00    +0.000 OA
ATOM      4  H   UNL     1       7.068   9.189  17.176  0.00  0.00    +0.000 HD
ENDROOT
BRANCH   1   9
ATOM      5  C   UNL     1       9.666  12.117  18.133  0.00  0.00    +0.000 A 
ATOM      6  C   UNL     1      10.206  11.980  19.421  0.00  0.00    +0.000 A 
ATOM      7  C   UNL     1       9.985  10.830  20.165  0.00  0.00    +0.000 A 
ATOM      8  C   UNL     1       9.196   9.806  19.647  0.00  0.00    +0.000 A 
ATOM      9  C   UNL     1       8.614   9.926  18.382  0.00  0.00    +0.000 A 
ATOM     10  C   UNL     1       8.859  11.079  17.628  0.00  0.00    +0.000 A 
BRANCH   5  12
ATOM     11  C   UNL     1      11.362  13.385  16.758  0.00  0.00    +0.000 C 
ATOM     12  C   UNL     1       9.918  13.365  17.291  0.00  0.00    +0.000 C 
BRANCH  12  13
ATOM     13  C   UNL     1       9.545  14.621  18.104  0.00  0.00    +0.000 C 
BRANCH  13  14
ATOM     14  C   UNL     1       8.083  14.927  18.130  0.00  0.00    +0.000 A 
ATOM     15  N   UNL     1       7.113  14.261  17.534  0.00  0.00    +0.000 NA
ATOM     16  N   UNL     1       5.921  14.881  17.824  0.00  0.00    +0.000 NA
ATOM     17  C   UNL     1       6.182  15.899  18.608  0.00  0.00    +0.000 A 
ATOM     18  N   UNL     1       7.521  15.963  18.833  0.00  0.00    +0.000 N 
ATOM     19  C   UNL     1       8.194  16.919  19.670  0.00  0.00    +0.000 C 
ENDBRANCH  13  14
ENDBRANCH  12  13
ENDBRANCH   5  12
ENDBRANCH   1   9
BRANCH   2  20
ATOM     20  C   UNL     1       6.960   6.701  17.316  0.00  0.00    +0.000 A 
ATOM     21  C   UNL     1       5.715   6.422  17.859  0.00  0.00    +0.000 A 
ATOM     22  C   UNL     1       4.804   5.714  17.094  0.00  0.00    +0.000 A 
ATOM     23  C   UNL     1       5.208   5.204  15.859  0.00  0.00    +0.000 A 
ATOM     24  C   UNL     1       6.492   5.490  15.418  0.00  0.00    +0.000 A 
ATOM     25  N   UNL     1       7.376   6.255  16.102  0.00  0.00    +0.000 NA
BRANCH  22  26
ATOM     26  C   UNL     1       3.452   5.400  17.630  0.00  0.00    +0.000 C 
ATOM     27  O   UNL     1       2.620   6.303  17.649  0.00  0.00    +0.000 OA
ATOM     28  N   UNL     1       3.170   4.114  18.069  0.00  0.00    +0.000 N 
ATOM     29  C   UNL     1       1.800   3.699  18.348  0.00  0.00    +0.000 C 
ATOM     30  C   UNL     1       1.923   2.786  19.566  0.00  0.00    +0.000 C 
ATOM     31  C   UNL     1       3.270   2.103  19.363  0.00  0.00    +0.000 C 
ATOM     32  F   UNL     1       3.098   1.006  18.574  0.00  0.00    +0.000 F 
ATOM     33  C   UNL     1       4.115   3.130  18.609  0.00  0.00    +0.000 C 
BRANCH  30  34
ATOM     34  O   UNL     1       1.922   3.537  20.784  0.00  0.00    +0.000 OA
ATOM     35  H   UNL     1       2.680   4.151  20.757  0.00  0.00    +0.000 HD
ENDBRANCH  30  34
ENDBRANCH  22  26
ENDBRANCH   2  20
TORSDOF 7
ENDMDL
MODEL 3
REMARK VINA RESULT:      -9.0      0.830      1.109
REMARK  Name = 
REMARK  9 active torsions:
REMARK  status: ('A' for Active; 'I' for Inactive)
REMARK    1  A    between atoms: C_1  and  C_2
REMARK    2  A    between atoms: C_2  and  C_3
REMARK    3  A    between atoms: C_2  and  C_10
REMARK    4  A    between atoms: C_3  and  C_4
REMARK    5  A    between atoms: N_8  and  C_9
REMARK    6  A    between atoms: C_14  and  N_15
REMARK    7  A    between atoms: C_16  and  C_18
REMARK    8  A    between atoms: C_20  and  C_21
REMARK    9  A    between atoms: C_25  and  O_26
REMARK                            x       y       z     vdW  Elec       q    Type
REMARK                         _______ _______ _______ _____ _____    ______ ____
ROOT
ATOM      1  N   UNL     1       1.266   7.953  21.394  0.00  0.00    +0.000 N 
ATOM      2  C   UNL     1       1.716   7.652  20.125  0.00  0.00    +0.000 C 
ATOM      3  O   UNL     1       1.692   8.391  19.145  0.00  0.00    +0.000 OA
ATOM      4  H   UNL     1       1.486   7.269  22.112  0.00  0.00    +0.000 HD
ENDROOT
BRANCH   1   9
ATOM      5  C   UNL     1       0.081  11.473  21.296  0.00  0.00    +0.000 A 
ATOM      6  C   UNL     1      -0.729  11.509  22.441  0.00  0.00    +0.000 A 
ATOM      7  C   UNL     1      -0.855  10.392  23.255  0.00  0.00    +0.000 A 
ATOM      8  C   UNL     1      -0.198   9.210  22.924  0.00  0.00    +0.000 A 
ATOM      9  C   UNL     1       0.588   9.131  21.771  0.00  0.00    +0.000 A 
ATOM     10  C   UNL     1       0.729  10.267  20.967  0.00  0.00    +0.000 A 
BRANCH   5  12
ATOM     11  C   UNL     1       1.189  13.729  21.055  0.00  0.00    +0.000 C 
ATOM     12  C   UNL     1       0.252  12.698  20.401  0.00  0.00    +0.000 C 
BRANCH  12  13
ATOM     13  C   UNL     1      -1.135  13.269  20.038  0.00  0.00    +0.000 C 
BRANCH  13  14
ATOM     14  C   UNL     1      -1.879  12.476  19.015  0.00  0.00    +0.000 A 
ATOM     15  N   UNL     1      -1.395  11.919  17.923  0.00  0.00    +0.000 NA
ATOM     16  N   UNL     1      -2.423  11.280  17.270  0.00  0.00    +0.000 NA
ATOM     17  C   UNL     1      -3.509  11.440  17.987  0.00  0.00    +0.000 A 
ATOM     18  N   UNL     1      -3.216  12.175  19.092  0.00  0.00    +0.000 N 
ATOM     19  C   UNL     1      -4.136  12.532  20.138  0.00  0.00    +0.000 C 
ENDBRANCH  13  14
ENDBRANCH  12  13
ENDBRANCH   5  12
ENDBRANCH   1   9
BRANCH   2  20
ATOM     20  C   UNL     1       2.331   6.302  19.973  0.00  0.00    +0.000 A 
ATOM     21  C   UNL     1       3.619   6.239  19.465  0.00  0.00    +0.000 A 
ATOM     22  C   UNL     1       4.254   5.010  19.421  0.00  0.00    +0.000 A 
ATOM     23  C   UNL     1       3.537   3.866  19.776  0.00  0.00    +0.000 A 
ATOM     24  C   UNL     1       2.233   4.019  20.226  0.00  0.00    +0.000 A 
ATOM     25  N   UNL     1       1.615   5.216  20.366  0.00  0.00    +0.000 NA
BRANCH  22  26
ATOM     26  C   UNL     1       5.639   4.894  18.893  0.00  0.00    +0.000 C 
ATOM     27  O   UNL     1       6.567   5.005  19.689  0.00  0.00    +0.000 OA
ATOM     28  N   UNL     1       5.840   4.651  17.541  0.00  0.00    +0.000 N 
ATOM     29  C   UNL     1       7.153   4.269  17.033  0.00  0.00    +0.000 C 
ATOM     30  C   UNL     1       7.254   4.975  15.682  0.00  0.00    +0.000 C 
ATOM     31  C   UNL     1       5.820   4.966  15.169  0.00  0.00    +0.000 C 
ATOM     32  F   UNL     1       5.586   3.790  14.522  0.00  0.00    +0.000 F 
ATOM     33  C   UNL     1       4.957   5.020  16.429  0.00  0.00    +0.000 C 
BRANCH  30  34
ATOM     34  O   UNL     1       7.724   6.319  15.829  0.00  0.00    +0.000 OA
ATOM     35  H   UNL     1       7.084   6.908  15.386  0.00  0.00    +0.000 HD
ENDBRANCH  30  34
ENDBRANCH  22  26
ENDBRANCH   2  20
TORSDOF 7
ENDMDL
MODEL 4
REMARK VINA RESULT:      -9.0      2.050      3.225
REMARK  Name = 
REMARK  9 active torsions:
REMARK  status: ('A' for Active; 'I' for Inactive)
REMARK    1  A    between atoms: C_1  and  C_2
REMARK    2  A    between atoms: C_2  and  C_3
REMARK    3  A    between atoms: C_2  and  C_10
REMARK    4  A    between atoms: C_3  and  C_4
REMARK    5  A    between atoms: N_8  and  C_9
REMARK    6  A    between atoms: C_14  and  N_15
REMARK    7  A    between atoms: C_16  and  C_18
REMARK    8  A    between atoms: C_20  and  C_21
REMARK    9  A    between atoms: C_25  and  O_26
REMARK                            x       y       z     vdW  Elec       q    Type
REMARK                         _______ _______ _______ _____ _____    ______ ____
ROOT
ATOM      1  N   UNL     1       1.497   8.509  19.062  0.00  0.00    +0.000 N 
ATOM      2  C   UNL     1       1.663   7.803  20.236  0.00  0.00    +0.000 C 
ATOM      3  O   UNL     1       1.349   8.173  21.364  0.00  0.00    +0.000 OA
ATOM      4  H   UNL     1       1.692   7.995  18.209  0.00  0.00    +0.000 HD
ENDROOT
BRANCH   1   9
ATOM      5  C   UNL     1      -0.843  11.396  19.056  0.00  0.00    +0.000 A 
ATOM      6  C   UNL     1       0.041  12.449  18.774  0.00  0.00    +0.000 A 
ATOM      7  C   UNL     1       1.389  12.203  18.555  0.00  0.00    +0.000 A 
ATOM      8  C   UNL     1       1.885  10.905  18.643  0.00  0.00    +0.000 A 
ATOM      9  C   UNL     1       1.037   9.839  18.956  0.00  0.00    +0.000 A 
ATOM     10  C   UNL     1      -0.325  10.090  19.154  0.00  0.00    +0.000 A 
BRANCH   5  12
ATOM     11  C   UNL     1      -3.091  11.657  17.936  0.00  0.00    +0.000 C 
ATOM     12  C   UNL     1      -2.333  11.644  19.276  0.00  0.00    +0.000 C 
BRANCH  12  13
ATOM     13  C   UNL     1      -2.526  12.930  20.105  0.00  0.00    +0.000 C 
BRANCH  13  14
ATOM     14  C   UNL     1      -3.132  12.710  21.452  0.00  0.00    +0.000 A 
ATOM     15  N   UNL     1      -4.413  12.707  21.764  0.00  0.00    +0.000 NA
ATOM     16  N   UNL     1      -4.530  12.460  23.111  0.00  0.00    +0.000 NA
ATOM     17  C   UNL     1      -3.321  12.295  23.592  0.00  0.00    +0.000 A 
ATOM     18  N   UNL     1      -2.414  12.434  22.588  0.00  0.00    +0.000 N 
ATOM     19  C   UNL     1      -0.989  12.290  22.710  0.00  0.00    +0.000 C 
ENDBRANCH  13  14
ENDBRANCH  12  13
ENDBRANCH   5  12
ENDBRANCH   1   9
BRANCH   2  20
ATOM     20  C   UNL     1       2.242   6.439  20.079  0.00  0.00    +0.000 A 
ATOM     21  C   UNL     1       3.523   6.344  19.558  0.00  0.00    +0.000 A 
ATOM     22  C   UNL     1       4.126   5.099  19.509  0.00  0.00    +0.000 A 
ATOM     23  C   UNL     1       3.385   3.973  19.872  0.00  0.00    +0.000 A 
ATOM     24  C   UNL     1       2.090   4.159  20.334  0.00  0.00    +0.000 A 
ATOM     25  N   UNL     1       1.504   5.371  20.479  0.00  0.00    +0.000 NA
BRANCH  22  26
ATOM     26  C   UNL     1       5.503   4.948  18.967  0.00  0.00    +0.000 C 
ATOM     27  O   UNL     1       6.440   5.001  19.759  0.00  0.00    +0.000 OA
ATOM     28  N   UNL     1       5.686   4.739  17.607  0.00  0.00    +0.000 N 
ATOM     29  C   UNL     1       6.981   4.324  17.078  0.00  0.00    +0.000 C 
ATOM     30  C   UNL     1       7.100   5.066  15.748  0.00  0.00    +0.000 C 
ATOM     31  C   UNL     1       5.662   5.125  15.245  0.00  0.00    +0.000 C 
ATOM     32  F   UNL     1       5.381   3.978  14.566  0.00  0.00    +0.000 F 
ATOM     33  C   UNL     1       4.810   5.173  16.513  0.00  0.00    +0.000 C 
BRANCH  30  34
ATOM     34  O   UNL     1       7.619   6.387  15.931  0.00  0.00    +0.000 OA
ATOM     35  H   UNL     1       8.588   6.315  16.026  0.00  0.00    +0.000 HD
ENDBRANCH  30  34
ENDBRANCH  22  26
ENDBRANCH   2  20
TORSDOF 7
ENDMDL
MODEL 5
REMARK VINA RESULT:      -9.0      0.958      1.232
REMARK  Name = 
REMARK  9 active torsions:
REMARK  status: ('A' for Active; 'I' for Inactive)
REMARK    1  A    between atoms: C_1  and  C_2
REMARK    2  A    between atoms: C_2  and  C_3
REMARK    3  A    between atoms: C_2  and  C_10
REMARK    4  A    between atoms: C_3  and  C_4
REMARK    5  A    between atoms: N_8  and  C_9
REMARK    6  A    between atoms: C_14  and  N_15
REMARK    7  A    between atoms: C_16  and  C_18
REMARK    8  A    between atoms: C_20  and  C_21
REMARK    9  A    between atoms: C_25  and  O_26
REMARK                            x       y       z     vdW  Elec       q    Type
REMARK                         _______ _______ _______ _____ _____    ______ ____
ROOT
ATOM      1  N   UNL     1       0.825   7.961  21.249  0.00  0.00    +0.000 N 
ATOM      2  C   UNL     1       1.666   7.760  20.173  0.00  0.00    +0.000 C 
ATOM      3  O   UNL     1       2.005   8.596  19.342  0.00  0.00    +0.000 OA
ATOM      4  H   UNL     1       0.761   7.191  21.907  0.00  0.00    +0.000 HD
ENDROOT
BRANCH   1   9
ATOM      5  C   UNL     1      -1.081  11.096  20.662  0.00  0.00    +0.000 A 
ATOM      6  C   UNL     1      -1.331  11.502  21.982  0.00  0.00    +0.000 A 
ATOM      7  C   UNL     1      -0.846  10.766  23.054  0.00  0.00    +0.000 A 
ATOM      8  C   UNL     1      -0.127   9.595  22.827  0.00  0.00    +0.000 A 
ATOM      9  C   UNL     1       0.108   9.144  21.525  0.00  0.00    +0.000 A 
ATOM     10  C   UNL     1      -0.365   9.903  20.448  0.00  0.00    +0.000 A 
BRANCH   5  12
ATOM     11  C   UNL     1      -0.502  12.875  18.966  0.00  0.00    +0.000 C 
ATOM     12  C   UNL     1      -1.586  11.906  19.470  0.00  0.00    +0.000 C 
BRANCH  12  13
ATOM     13  C   UNL     1      -2.910  12.603  19.844  0.00  0.00    +0.000 C 
BRANCH  13  14
ATOM     14  C   UNL     1      -4.110  12.073  19.131  0.00  0.00    +0.000 A 
ATOM     15  N   UNL     1      -4.162  11.566  17.914  0.00  0.00    +0.000 NA
ATOM     16  N   UNL     1      -5.459  11.194  17.655  0.00  0.00    +0.000 NA
ATOM     17  C   UNL     1      -6.170  11.459  18.724  0.00  0.00    +0.000 A 
ATOM     18  N   UNL     1      -5.367  12.002  19.677  0.00  0.00    +0.000 N 
ATOM     19  C   UNL     1      -5.770  12.394  21.000  0.00  0.00    +0.000 C 
ENDBRANCH  13  14
ENDBRANCH  12  13
ENDBRANCH   5  12
ENDBRANCH   1   9
BRANCH   2  20
ATOM     20  C   UNL     1       2.240   6.388  20.065  0.00  0.00    +0.000 A 
ATOM     21  C   UNL     1       3.506   6.266  19.514  0.00  0.00    +0.000 A 
ATOM     22  C   UNL     1       4.107   5.019  19.507  0.00  0.00    +0.000 A 
ATOM     23  C   UNL     1       3.376   3.913  19.943  0.00  0.00    +0.000 A 
ATOM     24  C   UNL     1       2.094   4.123  20.432  0.00  0.00    +0.000 A 
ATOM     25  N   UNL     1       1.512   5.341  20.535  0.00  0.00    +0.000 NA
BRANCH  22  26
ATOM     26  C   UNL     1       5.468   4.840  18.935  0.00  0.00    +0.000 C 
ATOM     27  O   UNL     1       6.418   4.823  19.712  0.00  0.00    +0.000 OA
ATOM     28  N   UNL     1       5.622   4.685  17.564  0.00  0.00    +0.000 N 
ATOM     29  C   UNL     1       6.891   4.245  16.995  0.00  0.00    +0.000 C 
ATOM     30  C   UNL     1       7.017   5.040  15.697  0.00  0.00    +0.000 C 
ATOM     31  C   UNL     1       5.575   5.176  15.222  0.00  0.00    +0.000 C 
ATOM     32  F   UNL     1       5.240   4.072  14.498  0.00  0.00    +0.000 F 
ATOM     33  C   UNL     1       4.746   5.200  16.506  0.00  0.00    +0.000 C 
BRANCH  30  34
ATOM     34  O   UNL     1       7.590   6.331  15.928  0.00  0.00    +0.000 OA
ATOM     35  H   UNL     1       8.427   6.203  16.414  0.00  0.00    +0.000 HD
ENDBRANCH  30  34
ENDBRANCH  22  26
ENDBRANCH   2  20
TORSDOF 7
ENDMDL
MODEL 6
REMARK VINA RESULT:      -8.9      1.244      1.403
REMARK  Name = 
REMARK  9 active torsions:
REMARK  status: ('A' for Active; 'I' for Inactive)
REMARK    1  A    between atoms: C_1  and  C_2
REMARK    2  A    between atoms: C_2  and  C_3
REMARK    3  A    between atoms: C_2  and  C_10
REMARK    4  A    between atoms: C_3  and  C_4
REMARK    5  A    between atoms: N_8  and  C_9
REMARK    6  A    between atoms: C_14  and  N_15
REMARK    7  A    between atoms: C_16  and  C_18
REMARK    8  A    between atoms: C_20  and  C_21
REMARK    9  A    between atoms: C_25  and  O_26
REMARK                            x       y       z     vdW  Elec       q    Type
REMARK                         _______ _______ _______ _____ _____    ______ ____
ROOT
ATOM      1  N   UNL     1       2.043   7.186  20.568  0.00  0.00    +0.000 N 
ATOM      2  C   UNL     1       1.539   5.902  20.538  0.00  0.00    +0.000 C 
ATOM      3  O   UNL     1       0.360   5.575  20.641  0.00  0.00    +0.000 OA
ATOM      4  H   UNL     1       3.027   7.278  20.335  0.00  0.00    +0.000 HD
ENDROOT
BRANCH   1   9
ATOM      5  C   UNL     1      -0.098  10.167  19.985  0.00  0.00    +0.000 A 
ATOM      6  C   UNL     1      -0.192  10.680  21.288  0.00  0.00    +0.000 A 
ATOM      7  C   UNL     1       0.472  10.068  22.341  0.00  0.00    +0.000 A 
ATOM      8  C   UNL     1       1.219   8.914  22.118  0.00  0.00    +0.000 A 
ATOM      9  C   UNL     1       1.304   8.357  20.839  0.00  0.00    +0.000 A 
ATOM     10  C   UNL     1       0.650   8.992  19.777  0.00  0.00    +0.000 A 
BRANCH   5  12
ATOM     11  C   UNL     1      -1.011  12.340  19.082  0.00  0.00    +0.000 C 
ATOM     12  C   UNL     1      -0.802  10.840  18.810  0.00  0.00    +0.000 C 
BRANCH  12  13
ATOM     13  C   UNL     1      -2.108  10.085  18.489  0.00  0.00    +0.000 C 
BRANCH  13  14
ATOM     14  C   UNL     1      -2.657  10.354  17.126  0.00  0.00    +0.000 A 
ATOM     15  N   UNL     1      -2.195   9.911  15.973  0.00  0.00    +0.000 NA
ATOM     16  N   UNL     1      -3.003  10.392  14.970  0.00  0.00    +0.000 NA
ATOM     17  C   UNL     1      -3.953  11.100  15.530  0.00  0.00    +0.000 A 
ATOM     18  N   UNL     1      -3.783  11.098  16.878  0.00  0.00    +0.000 N 
ATOM     19  C   UNL     1      -4.641  11.735  17.840  0.00  0.00    +0.000 C 
ENDBRANCH  13  14
ENDBRANCH  12  13
ENDBRANCH   5  12
ENDBRANCH   1   9
BRANCH   2  20
ATOM     20  C   UNL     1       2.548   4.830  20.308  0.00  0.00    +0.000 A 
ATOM     21  C   UNL     1       3.751   5.197  19.726  0.00  0.00    +0.000 A 
ATOM     22  C   UNL     1       4.748   4.243  19.607  0.00  0.00    +0.000 A 
ATOM     23  C   UNL     1       4.467   2.924  19.965  0.00  0.00    +0.000 A 
ATOM     24  C   UNL     1       3.216   2.637  20.493  0.00  0.00    +0.000 A 
ATOM     25  N   UNL     1       2.252   3.564  20.705  0.00  0.00    +0.000 NA
BRANCH  22  26
ATOM     26  C   UNL     1       6.059   4.593  18.998  0.00  0.00    +0.000 C 
ATOM     27  O   UNL     1       6.923   5.066  19.731  0.00  0.00    +0.000 OA
ATOM     28  N   UNL     1       6.270   4.364  17.646  0.00  0.00    +0.000 N 
ATOM     29  C   UNL     1       7.608   4.440  17.071  0.00  0.00    +0.000 C 
ATOM     30  C   UNL     1       7.392   5.062  15.693  0.00  0.00    +0.000 C 
ATOM     31  C   UNL     1       6.031   4.522  15.270  0.00  0.00    +0.000 C 
ATOM     32  F   UNL     1       6.199   3.305  14.680  0.00  0.00    +0.000 F 
ATOM     33  C   UNL     1       5.263   4.338  16.579  0.00  0.00    +0.000 C 
BRANCH  30  34
ATOM     34  O   UNL     1       7.362   6.491  15.763  0.00  0.00    +0.000 OA
ATOM     35  H   UNL     1       8.156   6.829  15.307  0.00  0.00    +0.000 HD
ENDBRANCH  30  34
ENDBRANCH  22  26
ENDBRANCH   2  20
TORSDOF 7
ENDMDL
MODEL 7
REMARK VINA RESULT:      -8.8      1.807      2.882
REMARK  Name = 
REMARK  9 active torsions:
REMARK  status: ('A' for Active; 'I' for Inactive)
REMARK    1  A    between atoms: C_1  and  C_2
REMARK    2  A    between atoms: C_2  and  C_3
REMARK    3  A    between atoms: C_2  and  C_10
REMARK    4  A    between atoms: C_3  and  C_4
REMARK    5  A    between atoms: N_8  and  C_9
REMARK    6  A    between atoms: C_14  and  N_15
REMARK    7  A    between atoms: C_16  and  C_18
REMARK    8  A    between atoms: C_20  and  C_21
REMARK    9  A    between atoms: C_25  and  O_26
REMARK                            x       y       z     vdW  Elec       q    Type
REMARK                         _______ _______ _______ _____ _____    ______ ____
ROOT
ATOM      1  N   UNL     1       0.792   8.057  21.220  0.00  0.00    +0.000 N 
ATOM      2  C   UNL     1       1.576   7.802  20.114  0.00  0.00    +0.000 C 
ATOM      3  O   UNL     1       1.859   8.593  19.218  0.00  0.00    +0.000 OA
ATOM      4  H   UNL     1       0.774   7.326  21.924  0.00  0.00    +0.000 HD
ENDROOT
BRANCH   1   9
ATOM      5  C   UNL     1      -1.075  11.201  20.555  0.00  0.00    +0.000 A 
ATOM      6  C   UNL     1      -1.361  11.617  21.865  0.00  0.00    +0.000 A 
ATOM      7  C   UNL     1      -0.914  10.884  22.955  0.00  0.00    +0.000 A 
ATOM      8  C   UNL     1      -0.197   9.707  22.758  0.00  0.00    +0.000 A 
ATOM      9  C   UNL     1       0.075   9.247  21.467  0.00  0.00    +0.000 A 
ATOM     10  C   UNL     1      -0.360  10.002  20.371  0.00  0.00    +0.000 A 
BRANCH   5  12
ATOM     11  C   UNL     1      -2.608  11.236  18.550  0.00  0.00    +0.000 C 
ATOM     12  C   UNL     1      -1.538  12.006  19.344  0.00  0.00    +0.000 C 
BRANCH  12  13
ATOM     13  C   UNL     1      -0.315  12.411  18.496  0.00  0.00    +0.000 C 
BRANCH  13  14
ATOM     14  C   UNL     1       0.195  13.788  18.769  0.00  0.00    +0.000 A 
ATOM     15  N   UNL     1      -0.476  14.809  19.263  0.00  0.00    +0.000 NA
ATOM     16  N   UNL     1       0.377  15.884  19.357  0.00  0.00    +0.000 NA
ATOM     17  C   UNL     1       1.557  15.493  18.940  0.00  0.00    +0.000 A 
ATOM     18  N   UNL     1       1.494  14.186  18.569  0.00  0.00    +0.000 N 
ATOM     19  C   UNL     1       2.590  13.389  18.090  0.00  0.00    +0.000 C 
ENDBRANCH  13  14
ENDBRANCH  12  13
ENDBRANCH   5  12
ENDBRANCH   1   9
BRANCH   2  20
ATOM     20  C   UNL     1       2.162   6.433  20.053  0.00  0.00    +0.000 A 
ATOM     21  C   UNL     1       3.436   6.305  19.521  0.00  0.00    +0.000 A 
ATOM     22  C   UNL     1       4.047   5.063  19.558  0.00  0.00    +0.000 A 
ATOM     23  C   UNL     1       3.319   3.965  20.018  0.00  0.00    +0.000 A 
ATOM     24  C   UNL     1       2.030   4.178  20.486  0.00  0.00    +0.000 A 
ATOM     25  N   UNL     1       1.438   5.395  20.546  0.00  0.00    +0.000 NA
BRANCH  22  26
ATOM     26  C   UNL     1       5.416   4.879  19.007  0.00  0.00    +0.000 C 
ATOM     27  O   UNL     1       6.355   4.868  19.799  0.00  0.00    +0.000 OA
ATOM     28  N   UNL     1       5.590   4.712  17.641  0.00  0.00    +0.000 N 
ATOM     29  C   UNL     1       6.866   4.267  17.094  0.00  0.00    +0.000 C 
ATOM     30  C   UNL     1       7.012   5.050  15.791  0.00  0.00    +0.000 C 
ATOM     31  C   UNL     1       5.578   5.183  15.294  0.00  0.00    +0.000 C 
ATOM     32  F   UNL     1       5.252   4.073  14.575  0.00  0.00    +0.000 F 
ATOM     33  C   UNL     1       4.729   5.218  16.565  0.00  0.00    +0.000 C 
BRANCH  30  34
ATOM     34  O   UNL     1       7.583   6.343  16.020  0.00  0.00    +0.000 OA
ATOM     35  H   UNL     1       8.527   6.300  15.774  0.00  0.00    +0.000 HD
ENDBRANCH  30  34
ENDBRANCH  22  26
ENDBRANCH   2  20
TORSDOF 7
ENDMDL
MODEL 8
REMARK VINA RESULT:      -8.8      1.336      1.431
REMARK  Name = 
REMARK  9 active torsions:
REMARK  status: ('A' for Active; 'I' for Inactive)
REMARK    1  A    between atoms: C_1  and  C_2
REMARK    2  A    between atoms: C_2  and  C_3
REMARK    3  A    between atoms: C_2  and  C_10
REMARK    4  A    between atoms: C_3  and  C_4
REMARK    5  A    between atoms: N_8  and  C_9
REMARK    6  A    between atoms: C_14  and  N_15
REMARK    7  A    between atoms: C_16  and  C_18
REMARK    8  A    between atoms: C_20  and  C_21
REMARK    9  A    between atoms: C_25  and  O_26
REMARK                            x       y       z     vdW  Elec       q    Type
REMARK                         _______ _______ _______ _____ _____    ______ ____
ROOT
ATOM      1  N   UNL     1       0.775   7.783  21.346  0.00  0.00    +0.000 N 
ATOM      2  C   UNL     1       1.602   7.506  20.276  0.00  0.00    +0.000 C 
ATOM      3  O   UNL     1       2.022   8.308  19.447  0.00  0.00    +0.000 OA
ATOM      4  H   UNL     1       0.637   7.022  22.003  0.00  0.00    +0.000 HD
ENDROOT
BRANCH   1   9
ATOM      5  C   UNL     1      -0.569  11.201  20.782  0.00  0.00    +0.000 A 
ATOM      6  C   UNL     1      -1.034  11.515  22.068  0.00  0.00    +0.000 A 
ATOM      7  C   UNL     1      -0.875  10.620  23.117  0.00  0.00    +0.000 A 
ATOM      8  C   UNL     1      -0.274   9.384  22.895  0.00  0.00    +0.000 A 
ATOM      9  C   UNL     1       0.167   9.027  21.618  0.00  0.00    +0.000 A 
ATOM     10  C   UNL     1       0.024   9.942  20.569  0.00  0.00    +0.000 A 
BRANCH   5  12
ATOM     11  C   UNL     1       0.009  13.505  19.926  0.00  0.00    +0.000 C 
ATOM     12  C   UNL     1      -0.714  12.181  19.621  0.00  0.00    +0.000 C 
BRANCH  12  13
ATOM     13  C   UNL     1      -2.208  12.360  19.279  0.00  0.00    +0.000 C 
BRANCH  13  14
ATOM     14  C   UNL     1      -2.649  11.641  18.047  0.00  0.00    +0.000 A 
ATOM     15  N   UNL     1      -1.895  10.981  17.189  0.00  0.00    +0.000 NA
ATOM     16  N   UNL     1      -2.707  10.468  16.205  0.00  0.00    +0.000 NA
ATOM     17  C   UNL     1      -3.941  10.804  16.492  0.00  0.00    +0.000 A 
ATOM     18  N   UNL     1      -3.956  11.532  17.640  0.00  0.00    +0.000 N 
ATOM     19  C   UNL     1      -5.124  12.052  18.297  0.00  0.00    +0.000 C 
ENDBRANCH  13  14
ENDBRANCH  12  13
ENDBRANCH   5  12
ENDBRANCH   1   9
BRANCH   2  20
ATOM     20  C   UNL     1       2.049   6.088  20.170  0.00  0.00    +0.000 A 
ATOM     21  C   UNL     1       2.864   5.752  19.101  0.00  0.00    +0.000 A 
ATOM     22  C   UNL     1       3.386   4.470  19.043  0.00  0.00    +0.000 A 
ATOM     23  C   UNL     1       2.979   3.531  19.992  0.00  0.00    +0.000 A 
ATOM     24  C   UNL     1       2.118   3.944  20.999  0.00  0.00    +0.000 A 
ATOM     25  N   UNL     1       1.663   5.212  21.135  0.00  0.00    +0.000 NA
BRANCH  22  26
ATOM     26  C   UNL     1       4.273   4.067  17.920  0.00  0.00    +0.000 C 
ATOM     27  O   UNL     1       4.060   2.983  17.384  0.00  0.00    +0.000 OA
ATOM     28  N   UNL     1       5.288   4.918  17.507  0.00  0.00    +0.000 N 
ATOM     29  C   UNL     1       6.000   4.686  16.256  0.00  0.00    +0.000 C 
ATOM     30  C   UNL     1       7.443   5.084  16.564  0.00  0.00    +0.000 C 
ATOM     31  C   UNL     1       7.290   6.228  17.559  0.00  0.00    +0.000 C 
ATOM     32  F   UNL     1       7.128   7.395  16.874  0.00  0.00    +0.000 F 
ATOM     33  C   UNL     1       6.000   5.913  18.316  0.00  0.00    +0.000 C 
BRANCH  30  34
ATOM     34  O   UNL     1       8.168   4.002  17.155  0.00  0.00    +0.000 OA
ATOM     35  H   UNL     1       8.189   4.148  18.120  0.00  0.00    +0.000 HD
ENDBRANCH  30  34
ENDBRANCH  22  26
ENDBRANCH   2  20
TORSDOF 7
ENDMDL
MODEL 9
REMARK VINA RESULT:      -8.7      2.727      4.111
REMARK  Name = 
REMARK  9 active torsions:
REMARK  status: ('A' for Active; 'I' for Inactive)
REMARK    1  A    between atoms: C_1  and  C_2
REMARK    2  A    between atoms: C_2  and  C_3
REMARK    3  A    between atoms: C_2  and  C_10
REMARK    4  A    between atoms: C_3  and  C_4
REMARK    5  A    between atoms: N_8  and  C_9
REMARK    6  A    between atoms: C_14  and  N_15
REMARK    7  A    between atoms: C_16  and  C_18
REMARK    8  A    between atoms: C_20  and  C_21
REMARK    9  A    between atoms: C_25  and  O_26
REMARK                            x       y       z     vdW  Elec       q    Type
REMARK                         _______ _______ _______ _____ _____    ______ ____
ROOT
ATOM      1  N   UNL     1       1.086   9.305  17.891  0.00  0.00    +0.000 N 
ATOM      2  C   UNL     1       1.788   8.522  18.785  0.00  0.00    +0.000 C 
ATOM      3  O   UNL     1       1.548   8.381  19.981  0.00  0.00    +0.000 OA
ATOM      4  H   UNL     1       1.346   9.199  16.916  0.00  0.00    +0.000 HD
ENDROOT
BRANCH   1   9
ATOM      5  C   UNL     1      -2.319  10.794  17.916  0.00  0.00    +0.000 A 
ATOM      6  C   UNL     1      -2.131  11.861  18.808  0.00  0.00    +0.000 A 
ATOM      7  C   UNL     1      -0.886  12.105  19.369  0.00  0.00    +0.000 A 
ATOM      8  C   UNL     1       0.189  11.272  19.072  0.00  0.00    +0.000 A 
ATOM      9  C   UNL     1       0.027  10.180  18.215  0.00  0.00    +0.000 A 
ATOM     10  C   UNL     1      -1.226   9.951  17.635  0.00  0.00    +0.000 A 
BRANCH   5  12
ATOM     11  C   UNL     1      -3.527  10.298  15.755  0.00  0.00    +0.000 C 
ATOM     12  C   UNL     1      -3.675  10.523  17.270  0.00  0.00    +0.000 C 
BRANCH  12  13
ATOM     13  C   UNL     1      -4.654  11.659  17.631  0.00  0.00    +0.000 C 
BRANCH  13  14
ATOM     14  C   UNL     1      -5.653  11.302  18.681  0.00  0.00    +0.000 A 
ATOM     15  N   UNL     1      -6.414  10.226  18.733  0.00  0.00    +0.000 NA
ATOM     16  N   UNL     1      -7.182  10.293  19.871  0.00  0.00    +0.000 NA
ATOM     17  C   UNL     1      -6.860  11.395  20.504  0.00  0.00    +0.000 A 
ATOM     18  N   UNL     1      -5.901  12.055  19.802  0.00  0.00    +0.000 N 
ATOM     19  C   UNL     1      -5.266  13.286  20.188  0.00  0.00    +0.000 C 
ENDBRANCH  13  14
ENDBRANCH  12  13
ENDBRANCH   5  12
ENDBRANCH   1   9
BRANCH   2  20
ATOM     20  C   UNL     1       2.918   7.747  18.198  0.00  0.00    +0.000 A 
ATOM     21  C   UNL     1       3.300   6.583  18.847  0.00  0.00    +0.000 A 
ATOM     22  C   UNL     1       4.268   5.786  18.260  0.00  0.00    +0.000 A 
ATOM     23  C   UNL     1       4.908   6.238  17.105  0.00  0.00    +0.000 A 
ATOM     24  C   UNL     1       4.495   7.443  16.553  0.00  0.00    +0.000 A 
ATOM     25  N   UNL     1       3.489   8.200  17.052  0.00  0.00    +0.000 NA
BRANCH  22  26
ATOM     26  C   UNL     1       4.704   4.523  18.914  0.00  0.00    +0.000 C 
ATOM     27  O   UNL     1       5.874   4.442  19.280  0.00  0.00    +0.000 OA
ATOM     28  N   UNL     1       3.790   3.497  19.102  0.00  0.00    +0.000 N 
ATOM     29  C   UNL     1       4.100   2.363  19.966  0.00  0.00    +0.000 C 
ATOM     30  C   UNL     1       3.466   1.167  19.260  0.00  0.00    +0.000 C 
ATOM     31  C   UNL     1       2.222   1.758  18.608  0.00  0.00    +0.000 C 
ATOM     32  F   UNL     1       1.201   1.750  19.510  0.00  0.00    +0.000 F 
ATOM     33  C   UNL     1       2.599   3.206  18.296  0.00  0.00    +0.000 C 
BRANCH  30  34
ATOM     34  O   UNL     1       4.340   0.623  18.266  0.00  0.00    +0.000 OA
ATOM     35  H   UNL     1       4.368   1.250  17.518  0.00  0.00    +0.000 HD
ENDBRANCH  30  34
ENDBRANCH  22  26
ENDBRANCH   2  20
TORSDOF 7
ENDMDL
