MODEL 1
REMARK VINA RESULT:      -9.1      0.000      0.000
REMARK  Name = 
REMARK  7 active torsions:
REMARK  status: ('A' for Active; 'I' for Inactive)
REMARK    1  A    between atoms: C_1  and  C_2
REMARK    2  A    between atoms: C_2  and  S_3
REMARK    3  A    between atoms: C_2  and  C_10
REMARK    4  A    between atoms: S_3  and  C_4
REMARK    5  A    between atoms: N_8  and  C_9
REMARK    6  A    between atoms: C_14  and  N_15
REMARK    7  A    between atoms: C_16  and  C_18
REMARK                            x       y       z     vdW  Elec       q    Type
REMARK                         _______ _______ _______ _____ _____    ______ ____
ROOT
ATOM      1  C   UNL     1       4.589   5.040  18.069  0.00  0.00    +0.000 A 
ATOM      2  C   UNL     1       4.428   3.715  18.501  0.00  0.00    +0.000 A 
ATOM      3  C   UNL     1       3.498   3.405  19.483  0.00  0.00    +0.000 A 
ATOM      4  C   UNL     1       2.750   4.419  20.084  0.00  0.00    +0.000 A 
ATOM      5  C   UNL     1       2.942   5.764  19.745  0.00  0.00    +0.000 A 
ATOM      6  C   UNL     1       3.864   6.061  18.731  0.00  0.00    +0.000 A 
ENDROOT
BRANCH   5   7
ATOM      7  N   UNL     1       2.264   6.834  20.392  0.00  0.00    +0.000 N 
ATOM      8  C   UNL     1       1.842   8.013  19.794  0.00  0.00    +0.000 C 
ATOM      9  O   UNL     1       2.087   8.350  18.637  0.00  0.00    +0.000 OA
ATOM     10  H   UNL     1       2.008   6.720  21.367  0.00  0.00    +0.000 HD
BRANCH   8  11
ATOM     11  C   UNL     1       0.994   8.942  20.609  0.00  0.00    +0.000 A 
ATOM     12  C   UNL     1       0.293   8.382  21.675  0.00  0.00    +0.000 A 
ATOM     13  C   UNL     1      -0.500   9.200  22.461  0.00  0.00    +0.000 A 
ATOM     14  C   UNL     1      -0.523  10.568  22.208  0.00  0.00    +0.000 A 
ATOM     15  C   UNL     1      -1.240  11.421  23.061  0.00  0.00    +0.000 A 
ATOM     16  C   UNL     1      -1.175  12.798  22.887  0.00  0.00    +0.000 A 
ATOM     17  C   UNL     1      -0.442  13.314  21.823  0.00  0.00    +0.000 A 
ATOM     18  C   UNL     1       0.224  12.450  20.939  0.00  0.00    +0.000 A 
ATOM     19  C   UNL     1       0.231  11.070  21.116  0.00  0.00    +0.000 A 
ATOM     20  N   UNL     1       0.967  10.267  20.304  0.00  0.00    +0.000 NA
ENDBRANCH   8  11
ENDBRANCH   5   7
BRANCH   1  22
ATOM     21  C   UNL     1       4.947   6.560  16.071  0.00  0.00    +0.000 C 
ATOM     22  C   UNL     1       5.501   5.378  16.895  0.00  0.00    +0.000 C 
BRANCH  22  23
ATOM     23  S   UNL     1       5.725   3.985  15.731  0.00  0.00    +0.000 S 
BRANCH  23  24
ATOM     24  C   UNL     1       6.777   4.641  14.530  0.00  0.00    +0.000 A 
ATOM     25  N   UNL     1       7.764   5.489  14.701  0.00  0.00    +0.000 NA
ATOM     26  N   UNL     1       8.345   5.713  13.471  0.00  0.00    +0.000 NA
ATOM     27  C   UNL     1       7.685   5.005  12.585  0.00  0.00    +0.000 A 
ATOM     28  N   UNL     1       6.688   4.311  13.207  0.00  0.00    +0.000 N 
ATOM     29  C   UNL     1       5.755   3.424  12.565  0.00  0.00    +0.000 C 
ENDBRANCH  23  24
ENDBRANCH  22  23
ENDBRANCH   1  22
TORSDOF 5
ENDMDL
MODEL 2
REMARK VINA RESULT:      -9.0      6.098      7.649
REMARK  Name = 
REMARK  7 active torsions:
REMARK  status: ('A' for Active; 'I' for Inactive)
REMARK    1  A    between atoms: C_1  and  C_2
REMARK    2  A    between atoms: C_2  and  S_3
REMARK    3  A    between atoms: C_2  and  C_10
REMARK    4  A    between atoms: S_3  and  C_4
REMARK    5  A    between atoms: N_8  and  C_9
REMARK    6  A    between atoms: C_14  and  N_15
REMARK    7  A    between atoms: C_16  and  C_18
REMARK                            x       y       z     vdW  Elec       q    Type
REMARK                         _______ _______ _______ _____ _____    ______ ____
ROOT
ATOM      1  C   UNL     1       6.449   6.321  17.319  0.00  0.00    +0.000 A 
ATOM      2  C   UNL     1       7.038   5.470  18.266  0.00  0.00    +0.000 A 
ATOM      3  C   UNL     1       8.014   5.949  19.128  0.00  0.00    +0.000 A 
ATOM      4  C   UNL     1       8.452   7.271  19.024  0.00  0.00    +0.000 A 
ATOM      5  C   UNL     1       7.955   8.127  18.036  0.00  0.00    +0.000 A 
ATOM      6  C   UNL     1       6.948   7.640  17.189  0.00  0.00    +0.000 A 
ENDROOT
BRANCH   5   7
ATOM      7  N   UNL     1       8.434   9.453  17.840  0.00  0.00    +0.000 N 
ATOM      8  C   UNL     1       8.989  10.272  18.812  0.00  0.00    +0.000 C 
ATOM      9  O   UNL     1       9.053  10.009  20.012  0.00  0.00    +0.000 OA
ATOM     10  H   UNL     1       8.427   9.830  16.899  0.00  0.00    +0.000 HD
BRANCH   8  11
ATOM     11  C   UNL     1       9.590  11.572  18.367  0.00  0.00    +0.000 A 
ATOM     12  C   UNL     1      10.812  11.505  17.702  0.00  0.00    +0.000 A 
ATOM     13  C   UNL     1      11.404  12.678  17.266  0.00  0.00    +0.000 A 
ATOM     14  C   UNL     1      10.731  13.883  17.444  0.00  0.00    +0.000 A 
ATOM     15  C   UNL     1      11.271  15.066  16.913  0.00  0.00    +0.000 A 
ATOM     16  C   UNL     1      10.553  16.253  16.982  0.00  0.00    +0.000 A 
ATOM     17  C   UNL     1       9.325  16.267  17.635  0.00  0.00    +0.000 A 
ATOM     18  C   UNL     1       8.819  15.092  18.214  0.00  0.00    +0.000 A 
ATOM     19  C   UNL     1       9.481  13.871  18.113  0.00  0.00    +0.000 A 
ATOM     20  N   UNL     1       8.919  12.733  18.595  0.00  0.00    +0.000 NA
ENDBRANCH   8  11
ENDBRANCH   5   7
BRANCH   1  22
ATOM     21  C   UNL     1       4.005   5.645  17.309  0.00  0.00    +0.000 C 
ATOM     22  C   UNL     1       5.279   5.851  16.462  0.00  0.00    +0.000 C 
BRANCH  22  23
ATOM     23  S   UNL     1       5.601   4.267  15.606  0.00  0.00    +0.000 S 
BRANCH  23  24
ATOM     24  C   UNL     1       6.695   4.714  14.348  0.00  0.00    +0.000 A 
ATOM     25  N   UNL     1       7.731   5.515  14.430  0.00  0.00    +0.000 NA
ATOM     26  N   UNL     1       8.329   5.559  13.189  0.00  0.00    +0.000 NA
ATOM     27  C   UNL     1       7.630   4.794  12.384  0.00  0.00    +0.000 A 
ATOM     28  N   UNL     1       6.591   4.239  13.071  0.00  0.00    +0.000 N 
ATOM     29  C   UNL     1       5.607   3.341  12.527  0.00  0.00    +0.000 C 
ENDBRANCH  23  24
ENDBRANCH  22  23
ENDBRANCH   1  22
TORSDOF 5
ENDMDL
MODEL 3
REMARK VINA RESULT:      -9.0      2.135      3.231
REMARK  Name = 
REMARK  7 active torsions:
REMARK  status: ('A' for Active; 'I' for Inactive)
REMARK    1  A    between atoms: C_1  and  C_2
REMARK    2  A    between atoms: C_2  and  S_3
REMARK    3  A    between atoms: C_2  and  C_10
REMARK    4  A    between atoms: S_3  and  C_4
REMARK    5  A    between atoms: N_8  and  C_9
REMARK    6  A    between atoms: C_14  and  N_15
REMARK    7  A    between atoms: C_16  and  C_18
REMARK                            x       y       z     vdW  Elec       q    Type
REMARK                         _______ _______ _______ _____ _____    ______ ____
ROOT
ATOM      1  C   UNL     1       4.542   5.117  16.534  0.00  0.00    +0.000 A 
ATOM      2  C   UNL     1       4.050   3.826  16.776  0.00  0.00    +0.000 A 
ATOM      3  C   UNL     1       2.981   3.634  17.641  0.00  0.00    +0.000 A 
ATOM      4  C   UNL     1       2.421   4.721  18.314  0.00  0.00    +0.000 A 
ATOM      5  C   UNL     1       2.939   6.013  18.168  0.00  0.00    +0.000 A 
ATOM      6  C   UNL     1       4.001   6.198  17.270  0.00  0.00    +0.000 A 
ENDROOT
BRANCH   5   7
ATOM      7  N   UNL     1       2.455   7.133  18.899  0.00  0.00    +0.000 N 
ATOM      8  C   UNL     1       2.069   8.353  18.362  0.00  0.00    +0.000 C 
ATOM      9  O   UNL     1       2.190   8.681  17.183  0.00  0.00    +0.000 OA
ATOM     10  H   UNL     1       2.320   7.031  19.899  0.00  0.00    +0.000 HD
BRANCH   8  11
ATOM     11  C   UNL     1       1.425   9.346  19.283  0.00  0.00    +0.000 A 
ATOM     12  C   UNL     1       1.302  10.652  18.814  0.00  0.00    +0.000 A 
ATOM     13  C   UNL     1       0.709  11.604  19.625  0.00  0.00    +0.000 A 
ATOM     14  C   UNL     1       0.193  11.217  20.858  0.00  0.00    +0.000 A 
ATOM     15  C   UNL     1      -0.503  12.148  21.644  0.00  0.00    +0.000 A 
ATOM     16  C   UNL     1      -1.123  11.745  22.820  0.00  0.00    +0.000 A 
ATOM     17  C   UNL     1      -0.993  10.424  23.237  0.00  0.00    +0.000 A 
ATOM     18  C   UNL     1      -0.246   9.513  22.475  0.00  0.00    +0.000 A 
ATOM     19  C   UNL     1       0.338   9.864  21.261  0.00  0.00    +0.000 A 
ATOM     20  N   UNL     1       0.969   8.936  20.497  0.00  0.00    +0.000 NA
ENDBRANCH   8  11
ENDBRANCH   5   7
BRANCH   1  22
ATOM     21  C   UNL     1       5.281   4.656  14.152  0.00  0.00    +0.000 C 
ATOM     22  C   UNL     1       5.619   5.362  15.483  0.00  0.00    +0.000 C 
BRANCH  22  23
ATOM     23  S   UNL     1       7.271   4.762  15.989  0.00  0.00    +0.000 S 
BRANCH  23  24
ATOM     24  C   UNL     1       7.354   5.193  17.658  0.00  0.00    +0.000 A 
ATOM     25  N   UNL     1       7.257   4.400  18.699  0.00  0.00    +0.000 NA
ATOM     26  N   UNL     1       7.408   5.171  19.832  0.00  0.00    +0.000 NA
ATOM     27  C   UNL     1       7.578   6.414  19.446  0.00  0.00    +0.000 A 
ATOM     28  N   UNL     1       7.553   6.476  18.084  0.00  0.00    +0.000 N 
ATOM     29  C   UNL     1       7.708   7.668  17.294  0.00  0.00    +0.000 C 
ENDBRANCH  23  24
ENDBRANCH  22  23
ENDBRANCH   1  22
TORSDOF 5
ENDMDL
MODEL 4
REMARK VINA RESULT:      -8.7      5.244      8.076
REMARK  Name = 
REMARK  7 active torsions:
REMARK  status: ('A' for Active; 'I' for Inactive)
REMARK    1  A    between atoms: C_1  and  C_2
REMARK    2  A    between atoms: C_2  and  S_3
REMARK    3  A    between atoms: C_2  and  C_10
REMARK    4  A    between atoms: S_3  and  C_4
REMARK    5  A    between atoms: N_8  and  C_9
REMARK    6  A    between atoms: C_14  and  N_15
REMARK    7  A    between atoms: C_16  and  C_18
REMARK                            x       y       z     vdW  Elec       q    Type
REMARK                         _______ _______ _______ _____ _____    ______ ____
ROOT
ATOM      1  C   UNL     1       4.455   5.192  17.060  0.00  0.00    +0.000 A 
ATOM      2  C   UNL     1       5.198   4.241  16.344  0.00  0.00    +0.000 A 
ATOM      3  C   UNL     1       6.533   4.476  16.043  0.00  0.00    +0.000 A 
ATOM      4  C   UNL     1       7.130   5.683  16.408  0.00  0.00    +0.000 A 
ATOM      5  C   UNL     1       6.401   6.694  17.044  0.00  0.00    +0.000 A 
ATOM      6  C   UNL     1       5.061   6.433  17.369  0.00  0.00    +0.000 A 
ENDROOT
BRANCH   5   7
ATOM      7  N   UNL     1       6.947   7.970  17.357  0.00  0.00    +0.000 N 
ATOM      8  C   UNL     1       8.008   8.216  18.217  0.00  0.00    +0.000 C 
ATOM      9  O   UNL     1       8.564   7.373  18.918  0.00  0.00    +0.000 OA
ATOM     10  H   UNL     1       6.575   8.782  16.874  0.00  0.00    +0.000 HD
BRANCH   8  11
ATOM     11  C   UNL     1       8.542   9.616  18.279  0.00  0.00    +0.000 A 
ATOM     12  C   UNL     1       7.919  10.564  17.472  0.00  0.00    +0.000 A 
ATOM     13  C   UNL     1       8.373  11.872  17.499  0.00  0.00    +0.000 A 
ATOM     14  C   UNL     1       9.395  12.216  18.378  0.00  0.00    +0.000 A 
ATOM     15  C   UNL     1       9.793  13.558  18.491  0.00  0.00    +0.000 A 
ATOM     16  C   UNL     1      10.728  13.930  19.448  0.00  0.00    +0.000 A 
ATOM     17  C   UNL     1      11.307  12.952  20.248  0.00  0.00    +0.000 A 
ATOM     18  C   UNL     1      10.946  11.604  20.090  0.00  0.00    +0.000 A 
ATOM     19  C   UNL     1       9.970  11.200  19.184  0.00  0.00    +0.000 A 
ATOM     20  N   UNL     1       9.569   9.903  19.123  0.00  0.00    +0.000 NA
ENDBRANCH   8  11
ENDBRANCH   5   7
BRANCH   1  22
ATOM     21  C   UNL     1       2.734   5.544  18.888  0.00  0.00    +0.000 C 
ATOM     22  C   UNL     1       3.033   4.891  17.521  0.00  0.00    +0.000 C 
BRANCH  22  23
ATOM     23  S   UNL     1       2.698   3.103  17.709  0.00  0.00    +0.000 S 
BRANCH  23  24
ATOM     24  C   UNL     1       2.241   2.959  19.366  0.00  0.00    +0.000 A 
ATOM     25  N   UNL     1       1.054   3.148  19.893  0.00  0.00    +0.000 NA
ATOM     26  N   UNL     1       1.147   2.896  21.245  0.00  0.00    +0.000 NA
ATOM     27  C   UNL     1       2.393   2.574  21.504  0.00  0.00    +0.000 A 
ATOM     28  N   UNL     1       3.119   2.599  20.350  0.00  0.00    +0.000 N 
ATOM     29  C   UNL     1       4.522   2.300  20.232  0.00  0.00    +0.000 C 
ENDBRANCH  23  24
ENDBRANCH  22  23
ENDBRANCH   1  22
TORSDOF 5
ENDMDL
MODEL 5
REMARK VINA RESULT:      -8.5      2.006      2.862
REMARK  Name = 
REMARK  7 active torsions:
REMARK  status: ('A' for Active; 'I' for Inactive)
REMARK    1  A    between atoms: C_1  and  C_2
REMARK    2  A    between atoms: C_2  and  S_3
REMARK    3  A    between atoms: C_2  and  C_10
REMARK    4  A    between atoms: S_3  and  C_4
REMARK    5  A    between atoms: N_8  and  C_9
REMARK    6  A    between atoms: C_14  and  N_15
REMARK    7  A    between atoms: C_16  and  C_18
REMARK                            x       y       z     vdW  Elec       q    Type
REMARK                         _______ _______ _______ _____ _____    ______ ____
ROOT
ATOM      1  C   UNL     1       4.288   4.696  16.879  0.00  0.00    +0.000 A 
ATOM      2  C   UNL     1       3.666   3.440  16.841  0.00  0.00    +0.000 A 
ATOM      3  C   UNL     1       2.472   3.227  17.517  0.00  0.00    +0.000 A 
ATOM      4  C   UNL     1       1.910   4.251  18.282  0.00  0.00    +0.000 A 
ATOM      5  C   UNL     1       2.544   5.491  18.419  0.00  0.00    +0.000 A 
ATOM      6  C   UNL     1       3.734   5.703  17.707  0.00  0.00    +0.000 A 
ENDROOT
BRANCH   5   7
ATOM      7  N   UNL     1       2.050   6.531  19.255  0.00  0.00    +0.000 N 
ATOM      8  C   UNL     1       1.946   7.872  18.915  0.00  0.00    +0.000 C 
ATOM      9  O   UNL     1       2.365   8.376  17.875  0.00  0.00    +0.000 OA
ATOM     10  H   UNL     1       1.685   6.279  20.167  0.00  0.00    +0.000 HD
BRANCH   8  11
ATOM     11  C   UNL     1       1.240   8.780  19.877  0.00  0.00    +0.000 A 
ATOM     12  C   UNL     1       1.010   8.284  21.158  0.00  0.00    +0.000 A 
ATOM     13  C   UNL     1       0.367   9.088  22.084  0.00  0.00    +0.000 A 
ATOM     14  C   UNL     1       0.027  10.390  21.731  0.00  0.00    +0.000 A 
ATOM     15  C   UNL     1      -0.530  11.248  22.692  0.00  0.00    +0.000 A 
ATOM     16  C   UNL     1      -0.763  12.582  22.384  0.00  0.00    +0.000 A 
ATOM     17  C   UNL     1      -0.495  13.040  21.098  0.00  0.00    +0.000 A 
ATOM     18  C   UNL     1       0.007  12.161  20.126  0.00  0.00    +0.000 A 
ATOM     19  C   UNL     1       0.310  10.833  20.413  0.00  0.00    +0.000 A 
ATOM     20  N   UNL     1       0.890  10.033  19.480  0.00  0.00    +0.000 NA
ENDBRANCH   8  11
ENDBRANCH   5   7
BRANCH   1  22
ATOM     21  C   UNL     1       5.563   4.095  14.770  0.00  0.00    +0.000 C 
ATOM     22  C   UNL     1       5.520   4.988  16.029  0.00  0.00    +0.000 C 
BRANCH  22  23
ATOM     23  S   UNL     1       7.093   4.713  16.921  0.00  0.00    +0.000 S 
BRANCH  23  24
ATOM     24  C   UNL     1       7.546   6.302  17.420  0.00  0.00    +0.000 A 
ATOM     25  N   UNL     1       7.519   7.406  16.712  0.00  0.00    +0.000 NA
ATOM     26  N   UNL     1       7.941   8.438  17.522  0.00  0.00    +0.000 NA
ATOM     27  C   UNL     1       8.227   7.928  18.698  0.00  0.00    +0.000 A 
ATOM     28  N   UNL     1       7.991   6.585  18.681  0.00  0.00    +0.000 N 
ATOM     29  C   UNL     1       8.184   5.683  19.786  0.00  0.00    +0.000 C 
ENDBRANCH  23  24
ENDBRANCH  22  23
ENDBRANCH   1  22
TORSDOF 5
ENDMDL
MODEL 6
REMARK VINA RESULT:      -8.5      3.717      9.534
REMARK  Name = 
REMARK  7 active torsions:
REMARK  status: ('A' for Active; 'I' for Inactive)
REMARK    1  A    between atoms: C_1  and  C_2
REMARK    2  A    between atoms: C_2  and  S_3
REMARK    3  A    between atoms: C_2  and  C_10
REMARK    4  A    between atoms: S_3  and  C_4
REMARK    5  A    between atoms: N_8  and  C_9
REMARK    6  A    between atoms: C_14  and  N_15
REMARK    7  A    between atoms: C_16  and  C_18
REMARK                            x       y       z     vdW  Elec       q    Type
REMARK                         _______ _______ _______ _____ _____    ______ ____
ROOT
ATOM      1  C   UNL     1      -0.079  10.600  20.197  0.00  0.00    +0.000 A 
ATOM      2  C   UNL     1      -0.471  10.280  21.506  0.00  0.00    +0.000 A 
ATOM      3  C   UNL     1       0.090   9.191  22.159  0.00  0.00    +0.000 A 
ATOM      4  C   UNL     1       1.012   8.377  21.499  0.00  0.00    +0.000 A 
ATOM      5  C   UNL     1       1.363   8.608  20.164  0.00  0.00    +0.000 A 
ATOM      6  C   UNL     1       0.812   9.729  19.524  0.00  0.00    +0.000 A 
ENDROOT
BRANCH   5   7
ATOM      7  N   UNL     1       2.231   7.755  19.427  0.00  0.00    +0.000 N 
ATOM      8  C   UNL     1       2.341   6.380  19.573  0.00  0.00    +0.000 C 
ATOM      9  O   UNL     1       1.777   5.709  20.436  0.00  0.00    +0.000 OA
ATOM     10  H   UNL     1       2.789   8.165  18.686  0.00  0.00    +0.000 HD
BRANCH   8  11
ATOM     11  C   UNL     1       3.191   5.642  18.582  0.00  0.00    +0.000 A 
ATOM     12  C   UNL     1       2.670   4.458  18.064  0.00  0.00    +0.000 A 
ATOM     13  C   UNL     1       3.414   3.744  17.142  0.00  0.00    +0.000 A 
ATOM     14  C   UNL     1       4.631   4.259  16.708  0.00  0.00    +0.000 A 
ATOM     15  C   UNL     1       5.346   3.598  15.697  0.00  0.00    +0.000 A 
ATOM     16  C   UNL     1       6.502   4.165  15.174  0.00  0.00    +0.000 A 
ATOM     17  C   UNL     1       6.972   5.360  15.706  0.00  0.00    +0.000 A 
ATOM     18  C   UNL     1       6.283   5.986  16.757  0.00  0.00    +0.000 A 
ATOM     19  C   UNL     1       5.090   5.480  17.266  0.00  0.00    +0.000 A 
ATOM     20  N   UNL     1       4.393   6.160  18.213  0.00  0.00    +0.000 NA
ENDBRANCH   8  11
ENDBRANCH   5   7
BRANCH   1  22
ATOM     21  C   UNL     1      -0.024  13.135  20.209  0.00  0.00    +0.000 C 
ATOM     22  C   UNL     1      -0.577  11.870  19.517  0.00  0.00    +0.000 C 
BRANCH  22  23
ATOM     23  S   UNL     1      -2.399  12.024  19.521  0.00  0.00    +0.000 S 
BRANCH  23  24
ATOM     24  C   UNL     1      -2.838  11.566  17.917  0.00  0.00    +0.000 A 
ATOM     25  N   UNL     1      -2.040  11.229  16.930  0.00  0.00    +0.000 NA
ATOM     26  N   UNL     1      -2.826  10.914  15.842  0.00  0.00    +0.000 NA
ATOM     27  C   UNL     1      -4.079  11.082  16.195  0.00  0.00    +0.000 A 
ATOM     28  N   UNL     1      -4.135  11.491  17.495  0.00  0.00    +0.000 N 
ATOM     29  C   UNL     1      -5.336  11.775  18.236  0.00  0.00    +0.000 C 
ENDBRANCH  23  24
ENDBRANCH  22  23
ENDBRANCH   1  22
TORSDOF 5
ENDMDL
MODEL 7
REMARK VINA RESULT:      -8.5      1.424      2.270
REMARK  Name = 
REMARK  7 active torsions:
REMARK  status: ('A' for Active; 'I' for Inactive)
REMARK    1  A    between atoms: C_1  and  C_2
REMARK    2  A    between atoms: C_2  and  S_3
REMARK    3  A    between atoms: C_2  and  C_10
REMARK    4  A    between atoms: S_3  and  C_4
REMARK    5  A    between atoms: N_8  and  C_9
REMARK    6  A    between atoms: C_14  and  N_15
REMARK    7  A    between atoms: C_16  and  C_18
REMARK                            x       y       z     vdW  Elec       q    Type
REMARK                         _______ _______ _______ _____ _____    ______ ____
ROOT
ATOM      1  C   UNL     1       4.802   4.208  17.282  0.00  0.00    +0.000 A 
ATOM      2  C   UNL     1       4.064   3.040  17.044  0.00  0.00    +0.000 A 
ATOM      3  C   UNL     1       2.712   2.989  17.353  0.00  0.00    +0.000 A 
ATOM      4  C   UNL     1       2.089   4.086  17.952  0.00  0.00    +0.000 A 
ATOM      5  C   UNL     1       2.809   5.238  18.288  0.00  0.00    +0.000 A 
ATOM      6  C   UNL     1       4.168   5.288  17.943  0.00  0.00    +0.000 A 
ENDROOT
BRANCH   5   7
ATOM      7  N   UNL     1       2.234   6.344  18.975  0.00  0.00    +0.000 N 
ATOM      8  C   UNL     1       2.403   7.683  18.652  0.00  0.00    +0.000 C 
ATOM      9  O   UNL     1       3.162   8.115  17.787  0.00  0.00    +0.000 OA
ATOM     10  H   UNL     1       1.595   6.153  19.739  0.00  0.00    +0.000 HD
BRANCH   8  11
ATOM     11  C   UNL     1       1.574   8.687  19.396  0.00  0.00    +0.000 A 
ATOM     12  C   UNL     1       0.995   9.706  18.643  0.00  0.00    +0.000 A 
ATOM     13  C   UNL     1       0.216  10.654  19.284  0.00  0.00    +0.000 A 
ATOM     14  C   UNL     1      -0.022  10.526  20.648  0.00  0.00    +0.000 A 
ATOM     15  C   UNL     1      -0.895  11.420  21.289  0.00  0.00    +0.000 A 
ATOM     16  C   UNL     1      -1.231  11.231  22.623  0.00  0.00    +0.000 A 
ATOM     17  C   UNL     1      -0.648  10.184  23.329  0.00  0.00    +0.000 A 
ATOM     18  C   UNL     1       0.269   9.330  22.696  0.00  0.00    +0.000 A 
ATOM     19  C   UNL     1       0.585   9.451  21.346  0.00  0.00    +0.000 A 
ATOM     20  N   UNL     1       1.397   8.548  20.737  0.00  0.00    +0.000 NA
ENDBRANCH   8  11
ENDBRANCH   5   7
BRANCH   1  22
ATOM     21  C   UNL     1       7.180   4.748  17.978  0.00  0.00    +0.000 C 
ATOM     22  C   UNL     1       6.250   4.331  16.819  0.00  0.00    +0.000 C 
BRANCH  22  23
ATOM     23  S   UNL     1       6.481   5.566  15.491  0.00  0.00    +0.000 S 
BRANCH  23  24
ATOM     24  C   UNL     1       6.401   4.618  14.051  0.00  0.00    +0.000 A 
ATOM     25  N   UNL     1       5.535   3.677  13.755  0.00  0.00    +0.000 NA
ATOM     26  N   UNL     1       5.835   3.210  12.493  0.00  0.00    +0.000 NA
ATOM     27  C   UNL     1       6.884   3.872  12.064  0.00  0.00    +0.000 A 
ATOM     28  N   UNL     1       7.275   4.771  13.012  0.00  0.00    +0.000 N 
ATOM     29  C   UNL     1       8.386   5.679  12.903  0.00  0.00    +0.000 C 
ENDBRANCH  23  24
ENDBRANCH  22  23
ENDBRANCH   1  22
TORSDOF 5
ENDMDL
MODEL 8
REMARK VINA RESULT:      -8.3      3.746      5.222
REMARK  Name = 
REMARK  7 active torsions:
REMARK  status: ('A' for Active; 'I' for Inactive)
REMARK    1  A    between atoms: C_1  and  C_2
REMARK    2  A    between atoms: C_2  and  S_3
REMARK    3  A    between atoms: C_2  and  C_10
REMARK    4  A    between atoms: S_3  and  C_4
REMARK    5  A    between atoms: N_8  and  C_9
REMARK    6  A    between atoms: C_14  and  N_15
REMARK    7  A    between atoms: C_16  and  C_18
REMARK                            x       y       z     vdW  Elec       q    Type
REMARK                         _______ _______ _______ _____ _____    ______ ____
ROOT
ATOM      1  C   UNL     1       2.160   7.558  19.450  0.00  0.00    +0.000 A 
ATOM      2  C   UNL     1       2.252   7.934  18.102  0.00  0.00    +0.000 A 
ATOM      3  C   UNL     1       1.707   9.135  17.670  0.00  0.00    +0.000 A 
ATOM      4  C   UNL     1       1.019   9.954  18.567  0.00  0.00    +0.000 A 
ATOM      5  C   UNL     1       0.827   9.574  19.901  0.00  0.00    +0.000 A 
ATOM      6  C   UNL     1       1.408   8.372  20.332  0.00  0.00    +0.000 A 
ENDROOT
BRANCH   5   7
ATOM      7  N   UNL     1       0.061  10.336  20.826  0.00  0.00    +0.000 N 
ATOM      8  C   UNL     1       0.442  11.535  21.410  0.00  0.00    +0.000 C 
ATOM      9  O   UNL     1       1.547  12.062  21.294  0.00  0.00    +0.000 OA
ATOM     10  H   UNL     1      -0.877  10.017  21.048  0.00  0.00    +0.000 HD
BRANCH   8  11
ATOM     11  C   UNL     1      -0.580  12.267  22.227  0.00  0.00    +0.000 A 
ATOM     12  C   UNL     1      -1.776  11.601  22.483  0.00  0.00    +0.000 A 
ATOM     13  C   UNL     1      -2.749  12.233  23.238  0.00  0.00    +0.000 A 
ATOM     14  C   UNL     1      -2.481  13.488  23.775  0.00  0.00    +0.000 A 
ATOM     15  C   UNL     1      -3.417  14.095  24.627  0.00  0.00    +0.000 A 
ATOM     16  C   UNL     1      -3.111  15.292  25.261  0.00  0.00    +0.000 A 
ATOM     17  C   UNL     1      -1.893  15.910  24.994  0.00  0.00    +0.000 A 
ATOM     18  C   UNL     1      -0.987  15.326  24.095  0.00  0.00    +0.000 A 
ATOM     19  C   UNL     1      -1.233  14.098  23.487  0.00  0.00    +0.000 A 
ATOM     20  N   UNL     1      -0.294  13.510  22.701  0.00  0.00    +0.000 NA
ENDBRANCH   8  11
ENDBRANCH   5   7
BRANCH   1  22
ATOM     21  C   UNL     1       3.901   5.784  18.945  0.00  0.00    +0.000 C 
ATOM     22  C   UNL     1       2.874   6.314  19.969  0.00  0.00    +0.000 C 
BRANCH  22  23
ATOM     23  S   UNL     1       1.737   4.930  20.337  0.00  0.00    +0.000 S 
BRANCH  23  24
ATOM     24  C   UNL     1       2.031   3.824  19.046  0.00  0.00    +0.000 A 
ATOM     25  N   UNL     1       1.490   3.822  17.850  0.00  0.00    +0.000 NA
ATOM     26  N   UNL     1       2.039   2.774  17.141  0.00  0.00    +0.000 NA
ATOM     27  C   UNL     1       2.888   2.161  17.932  0.00  0.00    +0.000 A 
ATOM     28  N   UNL     1       2.917   2.789  19.143  0.00  0.00    +0.000 N 
ATOM     29  C   UNL     1       3.730   2.408  20.268  0.00  0.00    +0.000 C 
ENDBRANCH  23  24
ENDBRANCH  22  23
ENDBRANCH   1  22
TORSDOF 5
ENDMDL
MODEL 9
REMARK VINA RESULT:      -8.3      4.627     10.632
REMARK  Name = 
REMARK  7 active torsions:
REMARK  status: ('A' for Active; 'I' for Inactive)
REMARK    1  A    between atoms: C_1  and  C_2
REMARK    2  A    between atoms: C_2  and  S_3
REMARK    3  A    between atoms: C_2  and  C_10
REMARK    4  A    between atoms: S_3  and  C_4
REMARK    5  A    between atoms: N_8  and  C_9
REMARK    6  A    between atoms: C_14  and  N_15
REMARK    7  A    between atoms: C_16  and  C_18
REMARK                            x       y       z     vdW  Elec       q    Type
REMARK                         _______ _______ _______ _____ _____    ______ ____
ROOT
ATOM      1  C   UNL     1      -1.880  10.808  18.160  0.00  0.00    +0.000 A 
ATOM      2  C   UNL     1      -1.569  12.011  18.810  0.00  0.00    +0.000 A 
ATOM      3  C   UNL     1      -0.253  12.312  19.136  0.00  0.00    +0.000 A 
ATOM      4  C   UNL     1       0.763  11.395  18.864  0.00  0.00    +0.000 A 
ATOM      5  C   UNL     1       0.484  10.146  18.297  0.00  0.00    +0.000 A 
ATOM      6  C   UNL     1      -0.845   9.865  17.945  0.00  0.00    +0.000 A 
ENDROOT
BRANCH   5   7
ATOM      7  N   UNL     1       1.476   9.149  18.081  0.00  0.00    +0.000 N 
ATOM      8  C   UNL     1       1.926   8.229  19.016  0.00  0.00    +0.000 C 
ATOM      9  O   UNL     1       1.607   8.209  20.204  0.00  0.00    +0.000 OA
ATOM     10  H   UNL     1       1.862   9.051  17.147  0.00  0.00    +0.000 HD
BRANCH   8  11
ATOM     11  C   UNL     1       2.853   7.151  18.541  0.00  0.00    +0.000 A 
ATOM     12  C   UNL     1       2.851   5.957  19.259  0.00  0.00    +0.000 A 
ATOM     13  C   UNL     1       3.686   4.929  18.856  0.00  0.00    +0.000 A 
ATOM     14  C   UNL     1       4.454   5.092  17.707  0.00  0.00    +0.000 A 
ATOM     15  C   UNL     1       5.225   4.020  17.229  0.00  0.00    +0.000 A 
ATOM     16  C   UNL     1       5.903   4.132  16.022  0.00  0.00    +0.000 A 
ATOM     17  C   UNL     1       5.857   5.336  15.327  0.00  0.00    +0.000 A 
ATOM     18  C   UNL     1       5.131   6.422  15.841  0.00  0.00    +0.000 A 
ATOM     19  C   UNL     1       4.391   6.329  17.017  0.00  0.00    +0.000 A 
ATOM     20  N   UNL     1       3.618   7.364  17.437  0.00  0.00    +0.000 NA
ENDBRANCH   8  11
ENDBRANCH   5   7
BRANCH   1  22
ATOM     21  C   UNL     1      -3.316  10.218  16.155  0.00  0.00    +0.000 C 
ATOM     22  C   UNL     1      -3.295  10.525  17.668  0.00  0.00    +0.000 C 
BRANCH  22  23
ATOM     23  S   UNL     1      -4.446  11.921  17.936  0.00  0.00    +0.000 S 
BRANCH  23  24
ATOM     24  C   UNL     1      -5.703  11.219  18.887  0.00  0.00    +0.000 A 
ATOM     25  N   UNL     1      -6.285  10.055  18.717  0.00  0.00    +0.000 NA
ATOM     26  N   UNL     1      -7.212   9.896  19.725  0.00  0.00    +0.000 NA
ATOM     27  C   UNL     1      -7.176  10.975  20.471  0.00  0.00    +0.000 A 
ATOM     28  N   UNL     1      -6.238  11.836  19.982  0.00  0.00    +0.000 N 
ATOM     29  C   UNL     1      -5.909  13.123  20.535  0.00  0.00    +0.000 C 
ENDBRANCH  23  24
ENDBRANCH  22  23
ENDBRANCH   1  22
TORSDOF 5
ENDMDL
