MODEL 1
REMARK VINA RESULT:      -8.5      0.000      0.000
REMARK  Name = 
REMARK  9 active torsions:
REMARK  status: ('A' for Active; 'I' for Inactive)
REMARK    1  A    between atoms: C_1  and  N_2
REMARK    2  A    between atoms: C_3  and  C_5
REMARK    3  A    between atoms: C_9  and  C_10
REMARK    4  A    between atoms: N_12  and  C_13
REMARK    5  A    between atoms: C_17  and  C_18
REMARK    6  A    between atoms: C_18  and  C_19
REMARK    7  A    between atoms: C_18  and  S_20
REMARK    8  A    between atoms: S_20  and  C_21
REMARK    9  A    between atoms: N_25  and  C_26
REMARK                            x       y       z     vdW  Elec       q    Type
REMARK                         _______ _______ _______ _____ _____    ______ ____
ROOT
ATOM      1  C   UNL     1       2.273   8.070  18.531  0.00  0.00    +0.000 A 
ATOM      2  C   UNL     1       1.799   8.148  19.818  0.00  0.00    +0.000 A 
ATOM      3  N   UNL     1       1.045   9.298  19.845  0.00  0.00    +0.000 N 
ATOM      4  N   UNL     1       1.078   9.889  18.626  0.00  0.00    +0.000 NA
ATOM      5  N   UNL     1       1.822   9.145  17.818  0.00  0.00    +0.000 NA
ENDROOT
BRANCH   1  10
ATOM      6  C   UNL     1       3.546   4.642  17.637  0.00  0.00    +0.000 A 
ATOM      7  C   UNL     1       4.609   4.972  16.789  0.00  0.00    +0.000 A 
ATOM      8  C   UNL     1       4.919   6.310  16.553  0.00  0.00    +0.000 A 
ATOM      9  C   UNL     1       4.159   7.316  17.148  0.00  0.00    +0.000 A 
ATOM     10  C   UNL     1       3.069   6.998  17.972  0.00  0.00    +0.000 A 
ATOM     11  C   UNL     1       2.768   5.653  18.213  0.00  0.00    +0.000 A 
BRANCH   6  14
ATOM     12  C   UNL     1       1.551   1.698  18.913  0.00  0.00    +0.000 C 
ATOM     13  N   UNL     1       2.019   3.026  18.606  0.00  0.00    +0.000 N 
ATOM     14  C   UNL     1       3.198   3.225  17.921  0.00  0.00    +0.000 C 
ATOM     15  O   UNL     1       3.923   2.319  17.526  0.00  0.00    +0.000 OA
ATOM     16  H   UNL     1       1.379   3.798  18.732  0.00  0.00    +0.000 HD
ENDBRANCH   6  14
ENDBRANCH   1  10
BRANCH   3  17
ATOM     17  C   UNL     1       0.322   9.851  20.930  0.00  0.00    +0.000 A 
ATOM     18  C   UNL     1       0.398   9.250  22.193  0.00  0.00    +0.000 A 
ATOM     19  C   UNL     1      -0.329   9.779  23.258  0.00  0.00    +0.000 A 
ATOM     20  C   UNL     1      -1.144  10.896  23.066  0.00  0.00    +0.000 A 
ATOM     21  C   UNL     1      -1.238  11.509  21.808  0.00  0.00    +0.000 A 
ATOM     22  C   UNL     1      -0.483  10.984  20.746  0.00  0.00    +0.000 A 
BRANCH  21  23
ATOM     23  C   UNL     1      -2.172  12.693  21.613  0.00  0.00    +0.000 C 
ATOM     24  C   UNL     1      -1.593  13.656  20.567  0.00  0.00    +0.000 C 
BRANCH  23  25
ATOM     25  S   UNL     1      -2.469  13.636  23.155  0.00  0.00    +0.000 S 
BRANCH  25  26
ATOM     26  C   UNL     1      -4.045  13.087  23.592  0.00  0.00    +0.000 A 
ATOM     27  N   UNL     1      -4.346  12.117  24.423  0.00  0.00    +0.000 NA
ATOM     28  N   UNL     1      -5.721  12.049  24.505  0.00  0.00    +0.000 NA
ATOM     29  C   UNL     1      -6.211  12.974  23.710  0.00  0.00    +0.000 A 
ATOM     30  N   UNL     1      -5.192  13.638  23.099  0.00  0.00    +0.000 N 
ATOM     31  C   UNL     1      -5.329  14.707  22.146  0.00  0.00    +0.000 C 
ENDBRANCH  25  26
ENDBRANCH  23  25
ENDBRANCH  21  23
ENDBRANCH   3  17
TORSDOF 6
ENDMDL
MODEL 2
REMARK VINA RESULT:      -8.4      1.169      1.252
REMARK  Name = 
REMARK  9 active torsions:
REMARK  status: ('A' for Active; 'I' for Inactive)
REMARK    1  A    between atoms: C_1  and  N_2
REMARK    2  A    between atoms: C_3  and  C_5
REMARK    3  A    between atoms: C_9  and  C_10
REMARK    4  A    between atoms: N_12  and  C_13
REMARK    5  A    between atoms: C_17  and  C_18
REMARK    6  A    between atoms: C_18  and  C_19
REMARK    7  A    between atoms: C_18  and  S_20
REMARK    8  A    between atoms: S_20  and  C_21
REMARK    9  A    between atoms: N_25  and  C_26
REMARK                            x       y       z     vdW  Elec       q    Type
REMARK                         _______ _______ _______ _____ _____    ______ ____
ROOT
ATOM      1  C   UNL     1       2.664   7.728  18.294  0.00  0.00    +0.000 A 
ATOM      2  C   UNL     1       2.152   7.842  19.563  0.00  0.00    +0.000 A 
ATOM      3  N   UNL     1       1.399   8.992  19.535  0.00  0.00    +0.000 N 
ATOM      4  N   UNL     1       1.468   9.548  18.301  0.00  0.00    +0.000 NA
ATOM      5  N   UNL     1       2.236   8.782  17.538  0.00  0.00    +0.000 NA
ENDROOT
BRANCH   1  10
ATOM      6  C   UNL     1       4.190   4.321  17.808  0.00  0.00    +0.000 A 
ATOM      7  C   UNL     1       5.022   4.563  16.708  0.00  0.00    +0.000 A 
ATOM      8  C   UNL     1       5.102   5.844  16.167  0.00  0.00    +0.000 A 
ATOM      9  C   UNL     1       4.341   6.878  16.711  0.00  0.00    +0.000 A 
ATOM     10  C   UNL     1       3.477   6.641  17.790  0.00  0.00    +0.000 A 
ATOM     11  C   UNL     1       3.407   5.354  18.336  0.00  0.00    +0.000 A 
BRANCH   6  14
ATOM     12  C   UNL     1       4.781   1.528  20.283  0.00  0.00    +0.000 C 
ATOM     13  N   UNL     1       4.818   2.782  19.575  0.00  0.00    +0.000 N 
ATOM     14  C   UNL     1       4.093   2.968  18.418  0.00  0.00    +0.000 C 
ATOM     15  O   UNL     1       3.378   2.112  17.911  0.00  0.00    +0.000 OA
ATOM     16  H   UNL     1       5.230   3.580  20.039  0.00  0.00    +0.000 HD
ENDBRANCH   6  14
ENDBRANCH   1  10
BRANCH   3  17
ATOM     17  C   UNL     1       0.643   9.575  20.582  0.00  0.00    +0.000 A 
ATOM     18  C   UNL     1       0.669   9.002  21.859  0.00  0.00    +0.000 A 
ATOM     19  C   UNL     1      -0.089   9.561  22.887  0.00  0.00    +0.000 A 
ATOM     20  C   UNL     1      -0.886  10.680  22.641  0.00  0.00    +0.000 A 
ATOM     21  C   UNL     1      -0.931  11.266  21.368  0.00  0.00    +0.000 A 
ATOM     22  C   UNL     1      -0.144  10.711  20.345  0.00  0.00    +0.000 A 
BRANCH  21  23
ATOM     23  C   UNL     1      -1.847  12.454  21.113  0.00  0.00    +0.000 C 
ATOM     24  C   UNL     1      -1.291  13.314  19.970  0.00  0.00    +0.000 C 
BRANCH  23  25
ATOM     25  S   UNL     1      -2.059  13.524  22.584  0.00  0.00    +0.000 S 
BRANCH  25  26
ATOM     26  C   UNL     1      -3.742  13.324  22.912  0.00  0.00    +0.000 A 
ATOM     27  N   UNL     1      -4.538  12.396  22.434  0.00  0.00    +0.000 NA
ATOM     28  N   UNL     1      -5.785  12.591  22.992  0.00  0.00    +0.000 NA
ATOM     29  C   UNL     1      -5.706  13.638  23.782  0.00  0.00    +0.000 A 
ATOM     30  N   UNL     1      -4.443  14.144  23.746  0.00  0.00    +0.000 N 
ATOM     31  C   UNL     1      -3.973  15.298  24.464  0.00  0.00    +0.000 C 
ENDBRANCH  25  26
ENDBRANCH  23  25
ENDBRANCH  21  23
ENDBRANCH   3  17
TORSDOF 6
ENDMDL
MODEL 3
REMARK VINA RESULT:      -8.2      4.022     10.759
REMARK  Name = 
REMARK  9 active torsions:
REMARK  status: ('A' for Active; 'I' for Inactive)
REMARK    1  A    between atoms: C_1  and  N_2
REMARK    2  A    between atoms: C_3  and  C_5
REMARK    3  A    between atoms: C_9  and  C_10
REMARK    4  A    between atoms: N_12  and  C_13
REMARK    5  A    between atoms: C_17  and  C_18
REMARK    6  A    between atoms: C_18  and  C_19
REMARK    7  A    between atoms: C_18  and  S_20
REMARK    8  A    between atoms: S_20  and  C_21
REMARK    9  A    between atoms: N_25  and  C_26
REMARK                            x       y       z     vdW  Elec       q    Type
REMARK                         _______ _______ _______ _____ _____    ______ ____
ROOT
ATOM      1  C   UNL     1      -0.794  11.555  22.434  0.00  0.00    +0.000 A 
ATOM      2  C   UNL     1      -0.395  11.336  21.138  0.00  0.00    +0.000 A 
ATOM      3  N   UNL     1       0.381  10.203  21.197  0.00  0.00    +0.000 N 
ATOM      4  N   UNL     1       0.453   9.770  22.480  0.00  0.00    +0.000 NA
ATOM      5  N   UNL     1      -0.263  10.587  23.240  0.00  0.00    +0.000 NA
ENDROOT
BRANCH   1  10
ATOM      6  C   UNL     1      -3.910  13.518  23.216  0.00  0.00    +0.000 A 
ATOM      7  C   UNL     1      -3.363  14.620  23.882  0.00  0.00    +0.000 A 
ATOM      8  C   UNL     1      -1.982  14.726  24.031  0.00  0.00    +0.000 A 
ATOM      9  C   UNL     1      -1.149  13.725  23.532  0.00  0.00    +0.000 A 
ATOM     10  C   UNL     1      -1.687  12.598  22.894  0.00  0.00    +0.000 A 
ATOM     11  C   UNL     1      -3.075  12.501  22.738  0.00  0.00    +0.000 A 
BRANCH   6  14
ATOM     12  C   UNL     1      -7.408  12.172  23.697  0.00  0.00    +0.000 C 
ATOM     13  N   UNL     1      -5.985  12.385  23.764  0.00  0.00    +0.000 N 
ATOM     14  C   UNL     1      -5.379  13.381  23.028  0.00  0.00    +0.000 C 
ATOM     15  O   UNL     1      -5.979  14.144  22.281  0.00  0.00    +0.000 OA
ATOM     16  H   UNL     1      -5.467  11.923  24.497  0.00  0.00    +0.000 HD
ENDBRANCH   6  14
ENDBRANCH   1  10
BRANCH   3  17
ATOM     17  C   UNL     1       1.041   9.531  20.138  0.00  0.00    +0.000 A 
ATOM     18  C   UNL     1       1.297  10.209  18.940  0.00  0.00    +0.000 A 
ATOM     19  C   UNL     1       1.928   9.546  17.889  0.00  0.00    +0.000 A 
ATOM     20  C   UNL     1       2.288   8.204  18.021  0.00  0.00    +0.000 A 
ATOM     21  C   UNL     1       2.035   7.505  19.211  0.00  0.00    +0.000 A 
ATOM     22  C   UNL     1       1.422   8.189  20.274  0.00  0.00    +0.000 A 
BRANCH  21  23
ATOM     23  C   UNL     1       2.391   6.030  19.312  0.00  0.00    +0.000 C 
ATOM     24  C   UNL     1       2.280   5.558  20.768  0.00  0.00    +0.000 C 
BRANCH  23  25
ATOM     25  S   UNL     1       4.083   5.658  18.718  0.00  0.00    +0.000 S 
BRANCH  25  26
ATOM     26  C   UNL     1       4.193   3.966  19.039  0.00  0.00    +0.000 A 
ATOM     27  N   UNL     1       4.939   3.376  19.944  0.00  0.00    +0.000 NA
ATOM     28  N   UNL     1       4.682   2.023  19.878  0.00  0.00    +0.000 NA
ATOM     29  C   UNL     1       3.797   1.834  18.927  0.00  0.00    +0.000 A 
ATOM     30  N   UNL     1       3.475   3.028  18.357  0.00  0.00    +0.000 N 
ATOM     31  C   UNL     1       2.553   3.226  17.271  0.00  0.00    +0.000 C 
ENDBRANCH  25  26
ENDBRANCH  23  25
ENDBRANCH  21  23
ENDBRANCH   3  17
TORSDOF 6
ENDMDL
MODEL 4
REMARK VINA RESULT:      -8.2      3.098      4.458
REMARK  Name = 
REMARK  9 active torsions:
REMARK  status: ('A' for Active; 'I' for Inactive)
REMARK    1  A    between atoms: C_1  and  N_2
REMARK    2  A    between atoms: C_3  and  C_5
REMARK    3  A    between atoms: C_9  and  C_10
REMARK    4  A    between atoms: N_12  and  C_13
REMARK    5  A    between atoms: C_17  and  C_18
REMARK    6  A    between atoms: C_18  and  C_19
REMARK    7  A    between atoms: C_18  and  S_20
REMARK    8  A    between atoms: S_20  and  C_21
REMARK    9  A    between atoms: N_25  and  C_26
REMARK                            x       y       z     vdW  Elec       q    Type
REMARK                         _______ _______ _______ _____ _____    ______ ____
ROOT
ATOM      1  C   UNL     1       2.480   7.167  18.559  0.00  0.00    +0.000 A 
ATOM      2  C   UNL     1       1.867   7.402  19.765  0.00  0.00    +0.000 A 
ATOM      3  N   UNL     1       1.473   8.719  19.707  0.00  0.00    +0.000 N 
ATOM      4  N   UNL     1       1.847   9.251  18.518  0.00  0.00    +0.000 NA
ATOM      5  N   UNL     1       2.459   8.310  17.811  0.00  0.00    +0.000 NA
ENDROOT
BRANCH   1  10
ATOM      6  C   UNL     1       4.698   4.585  16.951  0.00  0.00    +0.000 A 
ATOM      7  C   UNL     1       4.030   3.408  17.308  0.00  0.00    +0.000 A 
ATOM      8  C   UNL     1       2.844   3.478  18.036  0.00  0.00    +0.000 A 
ATOM      9  C   UNL     1       2.334   4.718  18.420  0.00  0.00    +0.000 A 
ATOM     10  C   UNL     1       3.013   5.902  18.098  0.00  0.00    +0.000 A 
ATOM     11  C   UNL     1       4.199   5.828  17.359  0.00  0.00    +0.000 A 
BRANCH   6  14
ATOM     12  C   UNL     1       6.969   4.766  13.937  0.00  0.00    +0.000 C 
ATOM     13  N   UNL     1       5.821   4.745  14.806  0.00  0.00    +0.000 N 
ATOM     14  C   UNL     1       5.959   4.547  16.163  0.00  0.00    +0.000 C 
ATOM     15  O   UNL     1       7.034   4.378  16.726  0.00  0.00    +0.000 OA
ATOM     16  H   UNL     1       4.937   5.067  14.437  0.00  0.00    +0.000 HD
ENDBRANCH   6  14
ENDBRANCH   1  10
BRANCH   3  17
ATOM     17  C   UNL     1       0.786   9.476  20.688  0.00  0.00    +0.000 A 
ATOM     18  C   UNL     1       0.540   8.918  21.949  0.00  0.00    +0.000 A 
ATOM     19  C   UNL     1      -0.153   9.652  22.910  0.00  0.00    +0.000 A 
ATOM     20  C   UNL     1      -0.617  10.935  22.612  0.00  0.00    +0.000 A 
ATOM     21  C   UNL     1      -0.387  11.509  21.354  0.00  0.00    +0.000 A 
ATOM     22  C   UNL     1       0.335  10.771  20.400  0.00  0.00    +0.000 A 
BRANCH  21  23
ATOM     23  C   UNL     1      -0.947  12.887  21.037  0.00  0.00    +0.000 C 
ATOM     24  C   UNL     1      -2.390  12.768  20.527  0.00  0.00    +0.000 C 
BRANCH  23  25
ATOM     25  S   UNL     1       0.032  13.789  19.779  0.00  0.00    +0.000 S 
BRANCH  25  26
ATOM     26  C   UNL     1       1.340  14.390  20.731  0.00  0.00    +0.000 A 
ATOM     27  N   UNL     1       1.489  14.287  22.031  0.00  0.00    +0.000 NA
ATOM     28  N   UNL     1       2.695  14.871  22.359  0.00  0.00    +0.000 NA
ATOM     29  C   UNL     1       3.233  15.320  21.248  0.00  0.00    +0.000 A 
ATOM     30  N   UNL     1       2.405  15.057  20.199  0.00  0.00    +0.000 N 
ATOM     31  C   UNL     1       2.641  15.409  18.826  0.00  0.00    +0.000 C 
ENDBRANCH  25  26
ENDBRANCH  23  25
ENDBRANCH  21  23
ENDBRANCH   3  17
TORSDOF 6
ENDMDL
MODEL 5
REMARK VINA RESULT:      -8.1      1.997      2.853
REMARK  Name = 
REMARK  9 active torsions:
REMARK  status: ('A' for Active; 'I' for Inactive)
REMARK    1  A    between atoms: C_1  and  N_2
REMARK    2  A    between atoms: C_3  and  C_5
REMARK    3  A    between atoms: C_9  and  C_10
REMARK    4  A    between atoms: N_12  and  C_13
REMARK    5  A    between atoms: C_17  and  C_18
REMARK    6  A    between atoms: C_18  and  C_19
REMARK    7  A    between atoms: C_18  and  S_20
REMARK    8  A    between atoms: S_20  and  C_21
REMARK    9  A    between atoms: N_25  and  C_26
REMARK                            x       y       z     vdW  Elec       q    Type
REMARK                         _______ _______ _______ _____ _____    ______ ____
ROOT
ATOM      1  C   UNL     1       2.613   7.453  18.291  0.00  0.00    +0.000 A 
ATOM      2  C   UNL     1       2.084   7.562  19.554  0.00  0.00    +0.000 A 
ATOM      3  N   UNL     1       1.495   8.805  19.581  0.00  0.00    +0.000 N 
ATOM      4  N   UNL     1       1.677   9.418  18.386  0.00  0.00    +0.000 NA
ATOM      5  N   UNL     1       2.355   8.599  17.593  0.00  0.00    +0.000 NA
ENDROOT
BRANCH   1  10
ATOM      6  C   UNL     1       5.111   5.267  16.514  0.00  0.00    +0.000 A 
ATOM      7  C   UNL     1       4.571   4.000  16.764  0.00  0.00    +0.000 A 
ATOM      8  C   UNL     1       3.379   3.881  17.475  0.00  0.00    +0.000 A 
ATOM      9  C   UNL     1       2.735   5.022  17.950  0.00  0.00    +0.000 A 
ATOM     10  C   UNL     1       3.284   6.296  17.738  0.00  0.00    +0.000 A 
ATOM     11  C   UNL     1       4.477   6.411  17.015  0.00  0.00    +0.000 A 
BRANCH   6  14
ATOM     12  C   UNL     1       7.510   5.053  13.604  0.00  0.00    +0.000 C 
ATOM     13  N   UNL     1       6.361   4.928  14.463  0.00  0.00    +0.000 N 
ATOM     14  C   UNL     1       6.373   5.430  15.747  0.00  0.00    +0.000 C 
ATOM     15  O   UNL     1       7.331   6.007  16.248  0.00  0.00    +0.000 OA
ATOM     16  H   UNL     1       5.486   4.639  14.050  0.00  0.00    +0.000 HD
ENDBRANCH   6  14
ENDBRANCH   1  10
BRANCH   3  17
ATOM     17  C   UNL     1       0.795   9.424  20.646  0.00  0.00    +0.000 A 
ATOM     18  C   UNL     1       0.814   8.843  21.919  0.00  0.00    +0.000 A 
ATOM     19  C   UNL     1       0.110   9.438  22.965  0.00  0.00    +0.000 A 
ATOM     20  C   UNL     1      -0.626  10.603  22.741  0.00  0.00    +0.000 A 
ATOM     21  C   UNL     1      -0.663  11.198  21.472  0.00  0.00    +0.000 A 
ATOM     22  C   UNL     1       0.071  10.605  20.430  0.00  0.00    +0.000 A 
BRANCH  21  23
ATOM     23  C   UNL     1      -1.513  12.438  21.242  0.00  0.00    +0.000 C 
ATOM     24  C   UNL     1      -1.086  13.139  19.945  0.00  0.00    +0.000 C 
BRANCH  23  25
ATOM     25  S   UNL     1      -1.401  13.649  22.610  0.00  0.00    +0.000 S 
BRANCH  25  26
ATOM     26  C   UNL     1      -3.059  14.079  22.822  0.00  0.00    +0.000 A 
ATOM     27  N   UNL     1      -4.023  13.982  21.937  0.00  0.00    +0.000 NA
ATOM     28  N   UNL     1      -5.190  14.397  22.545  0.00  0.00    +0.000 NA
ATOM     29  C   UNL     1      -4.892  14.746  23.777  0.00  0.00    +0.000 A 
ATOM     30  N   UNL     1      -3.557  14.582  23.988  0.00  0.00    +0.000 N 
ATOM     31  C   UNL     1      -2.851  14.873  25.207  0.00  0.00    +0.000 C 
ENDBRANCH  25  26
ENDBRANCH  23  25
ENDBRANCH  21  23
ENDBRANCH   3  17
TORSDOF 6
ENDMDL
MODEL 6
REMARK VINA RESULT:      -8.1      4.163     10.928
REMARK  Name = 
REMARK  9 active torsions:
REMARK  status: ('A' for Active; 'I' for Inactive)
REMARK    1  A    between atoms: C_1  and  N_2
REMARK    2  A    between atoms: C_3  and  C_5
REMARK    3  A    between atoms: C_9  and  C_10
REMARK    4  A    between atoms: N_12  and  C_13
REMARK    5  A    between atoms: C_17  and  C_18
REMARK    6  A    between atoms: C_18  and  C_19
REMARK    7  A    between atoms: C_18  and  S_20
REMARK    8  A    between atoms: S_20  and  C_21
REMARK    9  A    between atoms: N_25  and  C_26
REMARK                            x       y       z     vdW  Elec       q    Type
REMARK                         _______ _______ _______ _____ _____    ______ ____
ROOT
ATOM      1  C   UNL     1      -0.807  11.263  22.670  0.00  0.00    +0.000 A 
ATOM      2  C   UNL     1      -0.432  11.155  21.354  0.00  0.00    +0.000 A 
ATOM      3  N   UNL     1       0.325  10.008  21.298  0.00  0.00    +0.000 N 
ATOM      4  N   UNL     1       0.407   9.460  22.535  0.00  0.00    +0.000 NA
ATOM      5  N   UNL     1      -0.282  10.218  23.377  0.00  0.00    +0.000 NA
ENDROOT
BRANCH   1  10
ATOM      6  C   UNL     1      -2.101  14.538  24.004  0.00  0.00    +0.000 A 
ATOM      7  C   UNL     1      -3.436  14.205  24.260  0.00  0.00    +0.000 A 
ATOM      8  C   UNL     1      -3.884  12.906  24.031  0.00  0.00    +0.000 A 
ATOM      9  C   UNL     1      -3.006  11.944  23.531  0.00  0.00    +0.000 A 
ATOM     10  C   UNL     1      -1.675  12.275  23.236  0.00  0.00    +0.000 A 
ATOM     11  C   UNL     1      -1.227  13.579  23.478  0.00  0.00    +0.000 A 
BRANCH   6  14
ATOM     12  C   UNL     1      -1.698  17.890  25.699  0.00  0.00    +0.000 C 
ATOM     13  N   UNL     1      -2.135  16.567  25.332  0.00  0.00    +0.000 N 
ATOM     14  C   UNL     1      -1.587  15.911  24.251  0.00  0.00    +0.000 C 
ATOM     15  O   UNL     1      -0.711  16.381  23.535  0.00  0.00    +0.000 OA
ATOM     16  H   UNL     1      -2.708  16.055  25.988  0.00  0.00    +0.000 HD
ENDBRANCH   6  14
ENDBRANCH   1  10
BRANCH   3  17
ATOM     17  C   UNL     1       0.956   9.424  20.172  0.00  0.00    +0.000 A 
ATOM     18  C   UNL     1       0.847  10.039  18.919  0.00  0.00    +0.000 A 
ATOM     19  C   UNL     1       1.450   9.456  17.805  0.00  0.00    +0.000 A 
ATOM     20  C   UNL     1       2.147   8.254  17.933  0.00  0.00    +0.000 A 
ATOM     21  C   UNL     1       2.264   7.619  19.178  0.00  0.00    +0.000 A 
ATOM     22  C   UNL     1       1.674   8.227  20.300  0.00  0.00    +0.000 A 
BRANCH  21  23
ATOM     23  C   UNL     1       2.985   6.285  19.282  0.00  0.00    +0.000 C 
ATOM     24  C   UNL     1       3.189   5.683  17.885  0.00  0.00    +0.000 C 
BRANCH  23  25
ATOM     25  S   UNL     1       2.087   5.061  20.306  0.00  0.00    +0.000 S 
BRANCH  25  26
ATOM     26  C   UNL     1       2.829   3.586  19.805  0.00  0.00    +0.000 A 
ATOM     27  N   UNL     1       4.079   3.226  19.982  0.00  0.00    +0.000 NA
ATOM     28  N   UNL     1       4.225   1.957  19.461  0.00  0.00    +0.000 NA
ATOM     29  C   UNL     1       3.061   1.593  18.973  0.00  0.00    +0.000 A 
ATOM     30  N   UNL     1       2.157   2.596  19.150  0.00  0.00    +0.000 N 
ATOM     31  C   UNL     1       0.781   2.578  18.733  0.00  0.00    +0.000 C 
ENDBRANCH  25  26
ENDBRANCH  23  25
ENDBRANCH  21  23
ENDBRANCH   3  17
TORSDOF 6
ENDMDL
MODEL 7
REMARK VINA RESULT:      -8.1      5.089     10.385
REMARK  Name = 
REMARK  9 active torsions:
REMARK  status: ('A' for Active; 'I' for Inactive)
REMARK    1  A    between atoms: C_1  and  N_2
REMARK    2  A    between atoms: C_3  and  C_5
REMARK    3  A    between atoms: C_9  and  C_10
REMARK    4  A    between atoms: N_12  and  C_13
REMARK    5  A    between atoms: C_17  and  C_18
REMARK    6  A    between atoms: C_18  and  C_19
REMARK    7  A    between atoms: C_18  and  S_20
REMARK    8  A    between atoms: S_20  and  C_21
REMARK    9  A    between atoms: N_25  and  C_26
REMARK                            x       y       z     vdW  Elec       q    Type
REMARK                         _______ _______ _______ _____ _____    ______ ____
ROOT
ATOM      1  C   UNL     1       1.377   8.524  19.673  0.00  0.00    +0.000 A 
ATOM      2  C   UNL     1       1.967   7.898  18.603  0.00  0.00    +0.000 A 
ATOM      3  N   UNL     1       2.473   6.727  19.117  0.00  0.00    +0.000 N 
ATOM      4  N   UNL     1       2.205   6.663  20.445  0.00  0.00    +0.000 NA
ATOM      5  N   UNL     1       1.535   7.754  20.791  0.00  0.00    +0.000 NA
ENDROOT
BRANCH   1  10
ATOM      6  C   UNL     1      -1.136  11.179  18.774  0.00  0.00    +0.000 A 
ATOM      7  C   UNL     1      -0.793  12.182  19.688  0.00  0.00    +0.000 A 
ATOM      8  C   UNL     1       0.278  11.992  20.558  0.00  0.00    +0.000 A 
ATOM      9  C   UNL     1       0.996  10.797  20.527  0.00  0.00    +0.000 A 
ATOM     10  C   UNL     1       0.640   9.770  19.640  0.00  0.00    +0.000 A 
ATOM     11  C   UNL     1      -0.431   9.970  18.761  0.00  0.00    +0.000 A 
BRANCH   6  14
ATOM     12  C   UNL     1      -3.052  11.020  15.522  0.00  0.00    +0.000 C 
ATOM     13  N   UNL     1      -2.028  10.935  16.531  0.00  0.00    +0.000 N 
ATOM     14  C   UNL     1      -2.265  11.356  17.822  0.00  0.00    +0.000 C 
ATOM     15  O   UNL     1      -3.330  11.821  18.207  0.00  0.00    +0.000 OA
ATOM     16  H   UNL     1      -1.202  10.390  16.328  0.00  0.00    +0.000 HD
ENDBRANCH   6  14
ENDBRANCH   1  10
BRANCH   3  17
ATOM     17  C   UNL     1       3.176   5.699  18.441  0.00  0.00    +0.000 A 
ATOM     18  C   UNL     1       3.109   4.384  18.917  0.00  0.00    +0.000 A 
ATOM     19  C   UNL     1       3.816   3.374  18.266  0.00  0.00    +0.000 A 
ATOM     20  C   UNL     1       4.603   3.673  17.153  0.00  0.00    +0.000 A 
ATOM     21  C   UNL     1       4.688   4.985  16.664  0.00  0.00    +0.000 A 
ATOM     22  C   UNL     1       3.952   5.992  17.311  0.00  0.00    +0.000 A 
BRANCH  21  23
ATOM     23  C   UNL     1       5.592   5.294  15.481  0.00  0.00    +0.000 C 
ATOM     24  C   UNL     1       5.101   4.551  14.232  0.00  0.00    +0.000 C 
BRANCH  23  25
ATOM     25  S   UNL     1       7.340   4.830  15.773  0.00  0.00    +0.000 S 
BRANCH  25  26
ATOM     26  C   UNL     1       7.527   5.235  17.440  0.00  0.00    +0.000 A 
ATOM     27  N   UNL     1       7.650   4.404  18.449  0.00  0.00    +0.000 NA
ATOM     28  N   UNL     1       7.817   5.160  19.591  0.00  0.00    +0.000 NA
ATOM     29  C   UNL     1       7.777   6.425  19.239  0.00  0.00    +0.000 A 
ATOM     30  N   UNL     1       7.576   6.519  17.896  0.00  0.00    +0.000 N 
ATOM     31  C   UNL     1       7.459   7.738  17.141  0.00  0.00    +0.000 C 
ENDBRANCH  25  26
ENDBRANCH  23  25
ENDBRANCH  21  23
ENDBRANCH   3  17
TORSDOF 6
ENDMDL
MODEL 8
REMARK VINA RESULT:      -8.0      3.135      4.217
REMARK  Name = 
REMARK  9 active torsions:
REMARK  status: ('A' for Active; 'I' for Inactive)
REMARK    1  A    between atoms: C_1  and  N_2
REMARK    2  A    between atoms: C_3  and  C_5
REMARK    3  A    between atoms: C_9  and  C_10
REMARK    4  A    between atoms: N_12  and  C_13
REMARK    5  A    between atoms: C_17  and  C_18
REMARK    6  A    between atoms: C_18  and  C_19
REMARK    7  A    between atoms: C_18  and  S_20
REMARK    8  A    between atoms: S_20  and  C_21
REMARK    9  A    between atoms: N_25  and  C_26
REMARK                            x       y       z     vdW  Elec       q    Type
REMARK                         _______ _______ _______ _____ _____    ______ ____
ROOT
ATOM      1  C   UNL     1       2.385   7.609  18.521  0.00  0.00    +0.000 A 
ATOM      2  C   UNL     1       1.882   7.732  19.793  0.00  0.00    +0.000 A 
ATOM      3  N   UNL     1       1.294   8.975  19.819  0.00  0.00    +0.000 N 
ATOM      4  N   UNL     1       1.451   9.575  18.614  0.00  0.00    +0.000 NA
ATOM      5  N   UNL     1       2.113   8.748  17.816  0.00  0.00    +0.000 NA
ENDROOT
BRANCH   1  10
ATOM      6  C   UNL     1       4.842   5.405  16.712  0.00  0.00    +0.000 A 
ATOM      7  C   UNL     1       4.312   4.140  16.991  0.00  0.00    +0.000 A 
ATOM      8  C   UNL     1       3.139   4.028  17.734  0.00  0.00    +0.000 A 
ATOM      9  C   UNL     1       2.504   5.175  18.210  0.00  0.00    +0.000 A 
ATOM     10  C   UNL     1       3.044   6.446  17.966  0.00  0.00    +0.000 A 
ATOM     11  C   UNL     1       4.219   6.554  17.212  0.00  0.00    +0.000 A 
BRANCH   6  14
ATOM     12  C   UNL     1       7.270   4.924  13.857  0.00  0.00    +0.000 C 
ATOM     13  N   UNL     1       6.136   4.835  14.740  0.00  0.00    +0.000 N 
ATOM     14  C   UNL     1       6.085   5.560  15.911  0.00  0.00    +0.000 C 
ATOM     15  O   UNL     1       6.972   6.318  16.286  0.00  0.00    +0.000 OA
ATOM     16  H   UNL     1       5.299   4.383  14.398  0.00  0.00    +0.000 HD
ENDBRANCH   6  14
ENDBRANCH   1  10
BRANCH   3  17
ATOM     17  C   UNL     1       0.616   9.606  20.891  0.00  0.00    +0.000 A 
ATOM     18  C   UNL     1       0.228   8.853  22.006  0.00  0.00    +0.000 A 
ATOM     19  C   UNL     1      -0.457   9.466  23.054  0.00  0.00    +0.000 A 
ATOM     20  C   UNL     1      -0.771  10.824  22.987  0.00  0.00    +0.000 A 
ATOM     21  C   UNL     1      -0.396  11.595  21.877  0.00  0.00    +0.000 A 
ATOM     22  C   UNL     1       0.316  10.974  20.837  0.00  0.00    +0.000 A 
BRANCH  21  23
ATOM     23  C   UNL     1      -0.794  13.061  21.805  0.00  0.00    +0.000 C 
ATOM     24  C   UNL     1      -1.811  13.388  22.908  0.00  0.00    +0.000 C 
BRANCH  23  25
ATOM     25  S   UNL     1      -1.529  13.528  20.194  0.00  0.00    +0.000 S 
BRANCH  25  26
ATOM     26  C   UNL     1      -0.300  14.549  19.541  0.00  0.00    +0.000 A 
ATOM     27  N   UNL     1       0.861  14.180  19.052  0.00  0.00    +0.000 NA
ATOM     28  N   UNL     1       1.504  15.316  18.607  0.00  0.00    +0.000 NA
ATOM     29  C   UNL     1       0.717  16.339  18.851  0.00  0.00    +0.000 A 
ATOM     30  N   UNL     1      -0.422  15.905  19.458  0.00  0.00    +0.000 N 
ATOM     31  C   UNL     1      -1.515  16.730  19.895  0.00  0.00    +0.000 C 
ENDBRANCH  25  26
ENDBRANCH  23  25
ENDBRANCH  21  23
ENDBRANCH   3  17
TORSDOF 6
ENDMDL
MODEL 9
REMARK VINA RESULT:      -8.0      3.600      4.707
REMARK  Name = 
REMARK  9 active torsions:
REMARK  status: ('A' for Active; 'I' for Inactive)
REMARK    1  A    between atoms: C_1  and  N_2
REMARK    2  A    between atoms: C_3  and  C_5
REMARK    3  A    between atoms: C_9  and  C_10
REMARK    4  A    between atoms: N_12  and  C_13
REMARK    5  A    between atoms: C_17  and  C_18
REMARK    6  A    between atoms: C_18  and  C_19
REMARK    7  A    between atoms: C_18  and  S_20
REMARK    8  A    between atoms: S_20  and  C_21
REMARK    9  A    between atoms: N_25  and  C_26
REMARK                            x       y       z     vdW  Elec       q    Type
REMARK                         _______ _______ _______ _____ _____    ______ ____
ROOT
ATOM      1  C   UNL     1       2.472   5.973  19.276  0.00  0.00    +0.000 A 
ATOM      2  C   UNL     1       2.109   7.284  19.089  0.00  0.00    +0.000 A 
ATOM      3  N   UNL     1       1.478   7.644  20.256  0.00  0.00    +0.000 N 
ATOM      4  N   UNL     1       1.454   6.585  21.102  0.00  0.00    +0.000 NA
ATOM      5  N   UNL     1       2.060   5.563  20.513  0.00  0.00    +0.000 NA
ENDROOT
BRANCH   1  10
ATOM      6  C   UNL     1       4.782   4.885  16.510  0.00  0.00    +0.000 A 
ATOM      7  C   UNL     1       4.729   3.494  16.659  0.00  0.00    +0.000 A 
ATOM      8  C   UNL     1       3.909   2.931  17.634  0.00  0.00    +0.000 A 
ATOM      9  C   UNL     1       3.156   3.754  18.471  0.00  0.00    +0.000 A 
ATOM     10  C   UNL     1       3.228   5.150  18.356  0.00  0.00    +0.000 A 
ATOM     11  C   UNL     1       4.046   5.711  17.368  0.00  0.00    +0.000 A 
BRANCH   6  14
ATOM     12  C   UNL     1       7.398   5.162  13.799  0.00  0.00    +0.000 C 
ATOM     13  N   UNL     1       6.537   4.680  14.848  0.00  0.00    +0.000 N 
ATOM     14  C   UNL     1       5.636   5.517  15.470  0.00  0.00    +0.000 C 
ATOM     15  O   UNL     1       5.495   6.702  15.191  0.00  0.00    +0.000 OA
ATOM     16  H   UNL     1       6.469   3.682  14.989  0.00  0.00    +0.000 HD
ENDBRANCH   6  14
ENDBRANCH   1  10
BRANCH   3  17
ATOM     17  C   UNL     1       0.911   8.895  20.601  0.00  0.00    +0.000 A 
ATOM     18  C   UNL     1       0.801   9.260  21.948  0.00  0.00    +0.000 A 
ATOM     19  C   UNL     1       0.225  10.482  22.292  0.00  0.00    +0.000 A 
ATOM     20  C   UNL     1      -0.257  11.335  21.298  0.00  0.00    +0.000 A 
ATOM     21  C   UNL     1      -0.163  10.986  19.943  0.00  0.00    +0.000 A 
ATOM     22  C   UNL     1       0.442   9.763  19.605  0.00  0.00    +0.000 A 
BRANCH  21  23
ATOM     23  C   UNL     1      -0.742  11.909  18.882  0.00  0.00    +0.000 C 
ATOM     24  C   UNL     1      -0.286  13.353  19.132  0.00  0.00    +0.000 C 
BRANCH  23  25
ATOM     25  S   UNL     1      -2.572  11.887  18.833  0.00  0.00    +0.000 S 
BRANCH  25  26
ATOM     26  C   UNL     1      -2.864  11.230  17.265  0.00  0.00    +0.000 A 
ATOM     27  N   UNL     1      -2.019  10.562  16.514  0.00  0.00    +0.000 NA
ATOM     28  N   UNL     1      -2.686  10.193  15.364  0.00  0.00    +0.000 NA
ATOM     29  C   UNL     1      -3.911  10.661  15.449  0.00  0.00    +0.000 A 
ATOM     30  N   UNL     1      -4.062  11.338  16.621  0.00  0.00    +0.000 N 
ATOM     31  C   UNL     1      -5.255  12.006  17.064  0.00  0.00    +0.000 C 
ENDBRANCH  25  26
ENDBRANCH  23  25
ENDBRANCH  21  23
ENDBRANCH   3  17
TORSDOF 6
ENDMDL
