MODEL 1
REMARK VINA RESULT:      -8.0      0.000      0.000
REMARK  Name = 
REMARK  6 active torsions:
REMARK  status: ('A' for Active; 'I' for Inactive)
REMARK    1  A    between atoms: C_1  and  C_2
REMARK    2  A    between atoms: C_2  and  S_3
REMARK    3  A    between atoms: C_2  and  C_10
REMARK    4  A    between atoms: S_3  and  C_4
REMARK    5  A    between atoms: N_8  and  C_9
REMARK    6  A    between atoms: C_16  and  C_18
REMARK                            x       y       z     vdW  Elec       q    Type
REMARK                         _______ _______ _______ _____ _____    ______ ____
ROOT
ATOM      1  C   UNL     1       4.738   5.459  17.501  0.00  0.00    +0.000 A 
ATOM      2  C   UNL     1       4.763   4.265  18.229  0.00  0.00    +0.000 A 
ATOM      3  C   UNL     1       3.921   4.124  19.317  0.00  0.00    +0.000 A 
ATOM      4  N   UNL     1       3.077   5.084  19.733  0.00  0.00    +0.000 NA
ATOM      5  C   UNL     1       3.031   6.238  19.050  0.00  0.00    +0.000 A 
ATOM      6  N   UNL     1       2.212   7.281  19.501  0.00  0.00    +0.000 N 
ATOM      7  C   UNL     1       1.438   7.227  20.657  0.00  0.00    +0.000 C 
ATOM      8  O   UNL     1       1.278   6.238  21.363  0.00  0.00    +0.000 OA
ATOM      9  C   UNL     1       3.822   6.450  17.921  0.00  0.00    +0.000 A 
ATOM     10  H   UNL     1       2.230   8.166  19.017  0.00  0.00    +0.000 HD
ENDROOT
BRANCH   7  11
ATOM     11  C   UNL     1       0.823   8.517  20.973  0.00  0.00    +0.000 A 
ATOM     12  N   UNL     1       0.251   8.789  22.132  0.00  0.00    +0.000 NA
ATOM     13  C   UNL     1      -0.312  10.059  22.074  0.00  0.00    +0.000 A 
ATOM     14  C   UNL     1      -1.030  10.694  23.108  0.00  0.00    +0.000 A 
ATOM     15  C   UNL     1      -1.588  11.961  22.894  0.00  0.00    +0.000 A 
ATOM     16  C   UNL     1      -1.429  12.604  21.671  0.00  0.00    +0.000 A 
ATOM     17  C   UNL     1      -0.702  12.008  20.637  0.00  0.00    +0.000 A 
ATOM     18  C   UNL     1      -0.154  10.735  20.862  0.00  0.00    +0.000 A 
ATOM     19  S   UNL     1       0.767   9.757  19.791  0.00  0.00    +0.000 S 
ENDBRANCH   7  11
BRANCH   1  21
ATOM     20  C   UNL     1       5.155   6.774  15.330  0.00  0.00    +0.000 C 
ATOM     21  C   UNL     1       5.684   5.730  16.327  0.00  0.00    +0.000 C 
BRANCH  21  22
ATOM     22  S   UNL     1       5.990   4.133  15.454  0.00  0.00    +0.000 S 
BRANCH  22  23
ATOM     23  C   UNL     1       6.896   4.614  14.070  0.00  0.00    +0.000 A 
ATOM     24  N   UNL     1       7.905   5.451  14.019  0.00  0.00    +0.000 NA
ATOM     25  N   UNL     1       8.254   5.601  12.692  0.00  0.00    +0.000 NA
ATOM     26  C   UNL     1       7.455   4.836  11.983  0.00  0.00    +0.000 A 
ATOM     27  N   UNL     1       6.606   4.170  12.814  0.00  0.00    +0.000 N 
ATOM     28  C   UNL     1       5.609   3.210  12.422  0.00  0.00    +0.000 C 
ENDBRANCH  22  23
ENDBRANCH  21  22
ENDBRANCH   1  21
TORSDOF 4
ENDMDL
MODEL 2
REMARK VINA RESULT:      -7.7      3.283      9.417
REMARK  Name = 
REMARK  6 active torsions:
REMARK  status: ('A' for Active; 'I' for Inactive)
REMARK    1  A    between atoms: C_1  and  C_2
REMARK    2  A    between atoms: C_2  and  S_3
REMARK    3  A    between atoms: C_2  and  C_10
REMARK    4  A    between atoms: S_3  and  C_4
REMARK    5  A    between atoms: N_8  and  C_9
REMARK    6  A    between atoms: C_16  and  C_18
REMARK                            x       y       z     vdW  Elec       q    Type
REMARK                         _______ _______ _______ _____ _____    ______ ____
ROOT
ATOM      1  C   UNL     1       0.036  10.506  19.567  0.00  0.00    +0.000 A 
ATOM      2  C   UNL     1      -0.486  10.026  20.772  0.00  0.00    +0.000 A 
ATOM      3  C   UNL     1       0.015   8.850  21.300  0.00  0.00    +0.000 A 
ATOM      4  N   UNL     1       0.979   8.122  20.710  0.00  0.00    +0.000 NA
ATOM      5  C   UNL     1       1.500   8.563  19.556  0.00  0.00    +0.000 A 
ATOM      6  N   UNL     1       2.457   7.790  18.885  0.00  0.00    +0.000 N 
ATOM      7  C   UNL     1       2.904   6.545  19.317  0.00  0.00    +0.000 C 
ATOM      8  O   UNL     1       2.616   6.015  20.385  0.00  0.00    +0.000 OA
ATOM      9  C   UNL     1       1.076   9.756  18.972  0.00  0.00    +0.000 A 
ATOM     10  H   UNL     1       2.798   8.099  17.986  0.00  0.00    +0.000 HD
ENDROOT
BRANCH   7  11
ATOM     11  C   UNL     1       3.770   5.894  18.333  0.00  0.00    +0.000 A 
ATOM     12  N   UNL     1       4.922   6.398  17.928  0.00  0.00    +0.000 NA
ATOM     13  C   UNL     1       5.446   5.586  16.928  0.00  0.00    +0.000 A 
ATOM     14  C   UNL     1       6.652   5.806  16.231  0.00  0.00    +0.000 A 
ATOM     15  C   UNL     1       7.036   4.929  15.209  0.00  0.00    +0.000 A 
ATOM     16  C   UNL     1       6.243   3.834  14.882  0.00  0.00    +0.000 A 
ATOM     17  C   UNL     1       5.055   3.579  15.574  0.00  0.00    +0.000 A 
ATOM     18  C   UNL     1       4.677   4.469  16.592  0.00  0.00    +0.000 A 
ATOM     19  S   UNL     1       3.284   4.425  17.596  0.00  0.00    +0.000 S 
ENDBRANCH   7  11
BRANCH   1  21
ATOM     20  C   UNL     1      -0.021  13.078  19.503  0.00  0.00    +0.000 C 
ATOM     21  C   UNL     1      -0.506  11.760  18.874  0.00  0.00    +0.000 C 
BRANCH  21  22
ATOM     22  S   UNL     1      -2.349  11.690  18.916  0.00  0.00    +0.000 S 
BRANCH  22  23
ATOM     23  C   UNL     1      -2.748  11.028  17.377  0.00  0.00    +0.000 A 
ATOM     24  N   UNL     1      -1.994  10.292  16.597  0.00  0.00    +0.000 NA
ATOM     25  N   UNL     1      -2.694  10.071  15.429  0.00  0.00    +0.000 NA
ATOM     26  C   UNL     1      -3.859  10.667  15.546  0.00  0.00    +0.000 A 
ATOM     27  N   UNL     1      -3.949  11.254  16.771  0.00  0.00    +0.000 N 
ATOM     28  C   UNL     1      -5.083  11.970  17.292  0.00  0.00    +0.000 C 
ENDBRANCH  22  23
ENDBRANCH  21  22
ENDBRANCH   1  21
TORSDOF 4
ENDMDL
MODEL 3
REMARK VINA RESULT:      -7.7      0.909      1.307
REMARK  Name = 
REMARK  6 active torsions:
REMARK  status: ('A' for Active; 'I' for Inactive)
REMARK    1  A    between atoms: C_1  and  C_2
REMARK    2  A    between atoms: C_2  and  S_3
REMARK    3  A    between atoms: C_2  and  C_10
REMARK    4  A    between atoms: S_3  and  C_4
REMARK    5  A    between atoms: N_8  and  C_9
REMARK    6  A    between atoms: C_16  and  C_18
REMARK                            x       y       z     vdW  Elec       q    Type
REMARK                         _______ _______ _______ _____ _____    ______ ____
ROOT
ATOM      1  C   UNL     1       4.523   5.686  17.561  0.00  0.00    +0.000 A 
ATOM      2  C   UNL     1       4.502   4.507  18.312  0.00  0.00    +0.000 A 
ATOM      3  C   UNL     1       3.656   4.420  19.403  0.00  0.00    +0.000 A 
ATOM      4  N   UNL     1       2.851   5.420  19.800  0.00  0.00    +0.000 NA
ATOM      5  C   UNL     1       2.849   6.561  19.094  0.00  0.00    +0.000 A 
ATOM      6  N   UNL     1       2.071   7.643  19.526  0.00  0.00    +0.000 N 
ATOM      7  C   UNL     1       1.297   7.643  20.683  0.00  0.00    +0.000 C 
ATOM      8  O   UNL     1       1.099   6.674  21.408  0.00  0.00    +0.000 OA
ATOM      9  C   UNL     1       3.646   6.720  17.962  0.00  0.00    +0.000 A 
ATOM     10  H   UNL     1       2.123   8.518  19.025  0.00  0.00    +0.000 HD
ENDROOT
BRANCH   7  11
ATOM     11  C   UNL     1       0.733   8.961  20.974  0.00  0.00    +0.000 A 
ATOM     12  N   UNL     1       0.950  10.029  20.227  0.00  0.00    +0.000 NA
ATOM     13  C   UNL     1       0.351  11.132  20.826  0.00  0.00    +0.000 A 
ATOM     14  C   UNL     1       0.382  12.456  20.341  0.00  0.00    +0.000 A 
ATOM     15  C   UNL     1      -0.225  13.481  21.076  0.00  0.00    +0.000 A 
ATOM     16  C   UNL     1      -0.870  13.204  22.276  0.00  0.00    +0.000 A 
ATOM     17  C   UNL     1      -0.937  11.897  22.767  0.00  0.00    +0.000 A 
ATOM     18  C   UNL     1      -0.318  10.878  22.025  0.00  0.00    +0.000 A 
ATOM     19  S   UNL     1      -0.223   9.199  22.376  0.00  0.00    +0.000 S 
ENDBRANCH   7  11
BRANCH   1  21
ATOM     20  C   UNL     1       4.968   6.911  15.342  0.00  0.00    +0.000 C 
ATOM     21  C   UNL     1       5.477   5.897  16.381  0.00  0.00    +0.000 C 
BRANCH  21  22
ATOM     22  S   UNL     1       5.761   4.264  15.572  0.00  0.00    +0.000 S 
BRANCH  22  23
ATOM     23  C   UNL     1       6.782   4.661  14.242  0.00  0.00    +0.000 A 
ATOM     24  N   UNL     1       7.824   5.457  14.237  0.00  0.00    +0.000 NA
ATOM     25  N   UNL     1       8.273   5.547  12.935  0.00  0.00    +0.000 NA
ATOM     26  C   UNL     1       7.497   4.788  12.195  0.00  0.00    +0.000 A 
ATOM     27  N   UNL     1       6.565   4.184  12.983  0.00  0.00    +0.000 N 
ATOM     28  C   UNL     1       5.561   3.248  12.552  0.00  0.00    +0.000 C 
ENDBRANCH  22  23
ENDBRANCH  21  22
ENDBRANCH   1  21
TORSDOF 4
ENDMDL
MODEL 4
REMARK VINA RESULT:      -7.7      1.993      2.958
REMARK  Name = 
REMARK  6 active torsions:
REMARK  status: ('A' for Active; 'I' for Inactive)
REMARK    1  A    between atoms: C_1  and  C_2
REMARK    2  A    between atoms: C_2  and  S_3
REMARK    3  A    between atoms: C_2  and  C_10
REMARK    4  A    between atoms: S_3  and  C_4
REMARK    5  A    between atoms: N_8  and  C_9
REMARK    6  A    between atoms: C_16  and  C_18
REMARK                            x       y       z     vdW  Elec       q    Type
REMARK                         _______ _______ _______ _____ _____    ______ ____
ROOT
ATOM      1  C   UNL     1       4.566   4.734  17.089  0.00  0.00    +0.000 A 
ATOM      2  C   UNL     1       4.432   3.507  17.747  0.00  0.00    +0.000 A 
ATOM      3  C   UNL     1       3.580   3.417  18.833  0.00  0.00    +0.000 A 
ATOM      4  N   UNL     1       2.874   4.455  19.312  0.00  0.00    +0.000 NA
ATOM      5  C   UNL     1       2.981   5.642  18.696  0.00  0.00    +0.000 A 
ATOM      6  N   UNL     1       2.310   6.757  19.214  0.00  0.00    +0.000 N 
ATOM      7  C   UNL     1       1.537   6.740  20.373  0.00  0.00    +0.000 C 
ATOM      8  O   UNL     1       1.247   5.742  21.023  0.00  0.00    +0.000 OA
ATOM      9  C   UNL     1       3.791   5.812  17.574  0.00  0.00    +0.000 A 
ATOM     10  H   UNL     1       2.445   7.659  18.782  0.00  0.00    +0.000 HD
ENDROOT
BRANCH   7  11
ATOM     11  C   UNL     1       1.101   8.080  20.768  0.00  0.00    +0.000 A 
ATOM     12  N   UNL     1       0.455   8.336  21.891  0.00  0.00    +0.000 NA
ATOM     13  C   UNL     1       0.107   9.682  21.918  0.00  0.00    +0.000 A 
ATOM     14  C   UNL     1      -0.613  10.330  22.944  0.00  0.00    +0.000 A 
ATOM     15  C   UNL     1      -0.937  11.686  22.817  0.00  0.00    +0.000 A 
ATOM     16  C   UNL     1      -0.547  12.404  21.692  0.00  0.00    +0.000 A 
ATOM     17  C   UNL     1       0.188  11.792  20.672  0.00  0.00    +0.000 A 
ATOM     18  C   UNL     1       0.501  10.430  20.807  0.00  0.00    +0.000 A 
ATOM     19  S   UNL     1       1.370   9.415  19.727  0.00  0.00    +0.000 S 
ENDBRANCH   7  11
BRANCH   1  21
ATOM     20  C   UNL     1       5.335   3.959  14.759  0.00  0.00    +0.000 C 
ATOM     21  C   UNL     1       5.537   4.944  15.923  0.00  0.00    +0.000 C 
BRANCH  21  22
ATOM     22  S   UNL     1       7.258   4.796  16.573  0.00  0.00    +0.000 S 
BRANCH  22  23
ATOM     23  C   UNL     1       7.553   6.353  17.249  0.00  0.00    +0.000 A 
ATOM     24  N   UNL     1       7.489   7.517  16.647  0.00  0.00    +0.000 NA
ATOM     25  N   UNL     1       7.894   8.476  17.553  0.00  0.00    +0.000 NA
ATOM     26  C   UNL     1       8.175   7.863  18.681  0.00  0.00    +0.000 A 
ATOM     27  N   UNL     1       7.942   6.528  18.544  0.00  0.00    +0.000 N 
ATOM     28  C   UNL     1       8.092   5.527  19.566  0.00  0.00    +0.000 C 
ENDBRANCH  22  23
ENDBRANCH  21  22
ENDBRANCH   1  21
TORSDOF 4
ENDMDL
MODEL 5
REMARK VINA RESULT:      -7.6      2.994      9.558
REMARK  Name = 
REMARK  6 active torsions:
REMARK  status: ('A' for Active; 'I' for Inactive)
REMARK    1  A    between atoms: C_1  and  C_2
REMARK    2  A    between atoms: C_2  and  S_3
REMARK    3  A    between atoms: C_2  and  C_10
REMARK    4  A    between atoms: S_3  and  C_4
REMARK    5  A    between atoms: N_8  and  C_9
REMARK    6  A    between atoms: C_16  and  C_18
REMARK                            x       y       z     vdW  Elec       q    Type
REMARK                         _______ _______ _______ _____ _____    ______ ____
ROOT
ATOM      1  C   UNL     1      -0.294  11.076  20.748  0.00  0.00    +0.000 A 
ATOM      2  C   UNL     1      -0.840  10.454  21.875  0.00  0.00    +0.000 A 
ATOM      3  C   UNL     1      -0.438   9.170  22.194  0.00  0.00    +0.000 A 
ATOM      4  N   UNL     1       0.448   8.466  21.468  0.00  0.00    +0.000 NA
ATOM      5  C   UNL     1       0.989   9.042  20.384  0.00  0.00    +0.000 A 
ATOM      6  N   UNL     1       1.862   8.308  19.570  0.00  0.00    +0.000 N 
ATOM      7  C   UNL     1       2.202   6.975  19.785  0.00  0.00    +0.000 C 
ATOM      8  O   UNL     1       1.884   6.306  20.763  0.00  0.00    +0.000 OA
ATOM      9  C   UNL     1       0.665  10.345  20.010  0.00  0.00    +0.000 A 
ATOM     10  H   UNL     1       2.217   8.727  18.723  0.00  0.00    +0.000 HD
ENDROOT
BRANCH   7  11
ATOM     11  C   UNL     1       2.992   6.420  18.685  0.00  0.00    +0.000 A 
ATOM     12  N   UNL     1       3.225   5.128  18.533  0.00  0.00    +0.000 NA
ATOM     13  C   UNL     1       4.078   4.946  17.450  0.00  0.00    +0.000 A 
ATOM     14  C   UNL     1       4.575   3.709  16.988  0.00  0.00    +0.000 A 
ATOM     15  C   UNL     1       5.470   3.677  15.912  0.00  0.00    +0.000 A 
ATOM     16  C   UNL     1       5.866   4.855  15.286  0.00  0.00    +0.000 A 
ATOM     17  C   UNL     1       5.370   6.091  15.708  0.00  0.00    +0.000 A 
ATOM     18  C   UNL     1       4.478   6.111  16.793  0.00  0.00    +0.000 A 
ATOM     19  S   UNL     1       3.721   7.462  17.537  0.00  0.00    +0.000 S 
ENDBRANCH   7  11
BRANCH   1  21
ATOM     20  C   UNL     1      -0.311  13.604  21.227  0.00  0.00    +0.000 C 
ATOM     21  C   UNL     1      -0.732  12.468  20.279  0.00  0.00    +0.000 C 
BRANCH  21  22
ATOM     22  S   UNL     1      -2.567  12.461  20.090  0.00  0.00    +0.000 S 
BRANCH  22  23
ATOM     23  C   UNL     1      -2.792  11.844  18.498  0.00  0.00    +0.000 A 
ATOM     24  N   UNL     1      -1.872  11.561  17.607  0.00  0.00    +0.000 NA
ATOM     25  N   UNL     1      -2.517  11.184  16.447  0.00  0.00    +0.000 NA
ATOM     26  C   UNL     1      -3.810  11.235  16.678  0.00  0.00    +0.000 A 
ATOM     27  N   UNL     1      -4.027  11.613  17.968  0.00  0.00    +0.000 N 
ATOM     28  C   UNL     1      -5.306  11.746  18.614  0.00  0.00    +0.000 C 
ENDBRANCH  22  23
ENDBRANCH  21  22
ENDBRANCH   1  21
TORSDOF 4
ENDMDL
MODEL 6
REMARK VINA RESULT:      -7.6      3.262      4.441
REMARK  Name = 
REMARK  6 active torsions:
REMARK  status: ('A' for Active; 'I' for Inactive)
REMARK    1  A    between atoms: C_1  and  C_2
REMARK    2  A    between atoms: C_2  and  S_3
REMARK    3  A    between atoms: C_2  and  C_10
REMARK    4  A    between atoms: S_3  and  C_4
REMARK    5  A    between atoms: N_8  and  C_9
REMARK    6  A    between atoms: C_16  and  C_18
REMARK                            x       y       z     vdW  Elec       q    Type
REMARK                         _______ _______ _______ _____ _____    ______ ____
ROOT
ATOM      1  C   UNL     1       2.636   6.898  18.685  0.00  0.00    +0.000 A 
ATOM      2  C   UNL     1       2.247   6.385  19.926  0.00  0.00    +0.000 A 
ATOM      3  C   UNL     1       1.550   7.200  20.800  0.00  0.00    +0.000 A 
ATOM      4  N   UNL     1       1.232   8.478  20.532  0.00  0.00    +0.000 NA
ATOM      5  C   UNL     1       1.590   8.993  19.346  0.00  0.00    +0.000 A 
ATOM      6  N   UNL     1       1.332  10.341  19.068  0.00  0.00    +0.000 N 
ATOM      7  C   UNL     1       0.741  11.229  19.963  0.00  0.00    +0.000 C 
ATOM      8  O   UNL     1       0.266  10.932  21.054  0.00  0.00    +0.000 OA
ATOM      9  C   UNL     1       2.264   8.230  18.394  0.00  0.00    +0.000 A 
ATOM     10  H   UNL     1       1.659  10.736  18.198  0.00  0.00    +0.000 HD
ENDROOT
BRANCH   7  11
ATOM     11  C   UNL     1       0.754  12.606  19.468  0.00  0.00    +0.000 A 
ATOM     12  N   UNL     1       1.857  13.253  19.139  0.00  0.00    +0.000 NA
ATOM     13  C   UNL     1       1.532  14.562  18.799  0.00  0.00    +0.000 A 
ATOM     14  C   UNL     1       2.443  15.567  18.414  0.00  0.00    +0.000 A 
ATOM     15  C   UNL     1       1.980  16.861  18.145  0.00  0.00    +0.000 A 
ATOM     16  C   UNL     1       0.625  17.161  18.243  0.00  0.00    +0.000 A 
ATOM     17  C   UNL     1      -0.302  16.177  18.599  0.00  0.00    +0.000 A 
ATOM     18  C   UNL     1       0.176  14.886  18.873  0.00  0.00    +0.000 A 
ATOM     19  S   UNL     1      -0.709  13.489  19.341  0.00  0.00    +0.000 S 
ENDBRANCH   7  11
BRANCH   1  21
ATOM     20  C   UNL     1       3.559   4.592  18.013  0.00  0.00    +0.000 C 
ATOM     21  C   UNL     1       3.470   6.092  17.683  0.00  0.00    +0.000 C 
BRANCH  21  22
ATOM     22  S   UNL     1       5.164   6.821  17.628  0.00  0.00    +0.000 S 
BRANCH  22  23
ATOM     23  C   UNL     1       5.901   5.989  16.312  0.00  0.00    +0.000 A 
ATOM     24  N   UNL     1       5.625   6.097  15.034  0.00  0.00    +0.000 NA
ATOM     25  N   UNL     1       6.400   5.176  14.361  0.00  0.00    +0.000 NA
ATOM     26  C   UNL     1       7.135   4.550  15.252  0.00  0.00    +0.000 A 
ATOM     27  N   UNL     1       6.878   5.054  16.490  0.00  0.00    +0.000 N 
ATOM     28  C   UNL     1       7.510   4.658  17.720  0.00  0.00    +0.000 C 
ENDBRANCH  22  23
ENDBRANCH  21  22
ENDBRANCH   1  21
TORSDOF 4
ENDMDL
MODEL 7
REMARK VINA RESULT:      -7.6      2.217      3.230
REMARK  Name = 
REMARK  6 active torsions:
REMARK  status: ('A' for Active; 'I' for Inactive)
REMARK    1  A    between atoms: C_1  and  C_2
REMARK    2  A    between atoms: C_2  and  S_3
REMARK    3  A    between atoms: C_2  and  C_10
REMARK    4  A    between atoms: S_3  and  C_4
REMARK    5  A    between atoms: N_8  and  C_9
REMARK    6  A    between atoms: C_16  and  C_18
REMARK                            x       y       z     vdW  Elec       q    Type
REMARK                         _______ _______ _______ _____ _____    ______ ____
ROOT
ATOM      1  C   UNL     1       4.419   5.088  17.545  0.00  0.00    +0.000 A 
ATOM      2  C   UNL     1       4.367   4.192  18.617  0.00  0.00    +0.000 A 
ATOM      3  C   UNL     1       3.593   4.509  19.719  0.00  0.00    +0.000 A 
ATOM      4  N   UNL     1       2.889   5.648  19.831  0.00  0.00    +0.000 NA
ATOM      5  C   UNL     1       2.920   6.523  18.814  0.00  0.00    +0.000 A 
ATOM      6  N   UNL     1       2.252   7.749  18.932  0.00  0.00    +0.000 N 
ATOM      7  C   UNL     1       1.560   8.160  20.068  0.00  0.00    +0.000 C 
ATOM      8  O   UNL     1       1.345   7.473  21.060  0.00  0.00    +0.000 OA
ATOM      9  C   UNL     1       3.647   6.267  17.653  0.00  0.00    +0.000 A 
ATOM     10  H   UNL     1       2.330   8.426  18.188  0.00  0.00    +0.000 HD
ENDROOT
BRANCH   7  11
ATOM     11  C   UNL     1       1.111   9.550  19.971  0.00  0.00    +0.000 A 
ATOM     12  N   UNL     1       0.505  10.191  20.954  0.00  0.00    +0.000 NA
ATOM     13  C   UNL     1       0.130  11.454  20.508  0.00  0.00    +0.000 A 
ATOM     14  C   UNL     1      -0.562  12.426  21.261  0.00  0.00    +0.000 A 
ATOM     15  C   UNL     1      -0.920  13.642  20.666  0.00  0.00    +0.000 A 
ATOM     16  C   UNL     1      -0.589  13.906  19.341  0.00  0.00    +0.000 A 
ATOM     17  C   UNL     1       0.117  12.971  18.580  0.00  0.00    +0.000 A 
ATOM     18  C   UNL     1       0.464  11.752  19.185  0.00  0.00    +0.000 A 
ATOM     19  S   UNL     1       1.311  10.419  18.508  0.00  0.00    +0.000 S 
ENDBRANCH   7  11
BRANCH   1  21
ATOM     20  C   UNL     1       4.900   3.623  15.485  0.00  0.00    +0.000 C 
ATOM     21  C   UNL     1       5.303   4.854  16.316  0.00  0.00    +0.000 C 
BRANCH  21  22
ATOM     22  S   UNL     1       7.048   4.676  16.887  0.00  0.00    +0.000 S 
BRANCH  22  23
ATOM     23  C   UNL     1       7.456   6.273  17.391  0.00  0.00    +0.000 A 
ATOM     24  N   UNL     1       7.423   7.374  16.680  0.00  0.00    +0.000 NA
ATOM     25  N   UNL     1       7.921   8.392  17.467  0.00  0.00    +0.000 NA
ATOM     26  C   UNL     1       8.225   7.877  18.637  0.00  0.00    +0.000 A 
ATOM     27  N   UNL     1       7.916   6.551  18.644  0.00  0.00    +0.000 N 
ATOM     28  C   UNL     1       8.064   5.647  19.753  0.00  0.00    +0.000 C 
ENDBRANCH  22  23
ENDBRANCH  21  22
ENDBRANCH   1  21
TORSDOF 4
ENDMDL
MODEL 8
REMARK VINA RESULT:      -7.5      2.080      3.014
REMARK  Name = 
REMARK  6 active torsions:
REMARK  status: ('A' for Active; 'I' for Inactive)
REMARK    1  A    between atoms: C_1  and  C_2
REMARK    2  A    between atoms: C_2  and  S_3
REMARK    3  A    between atoms: C_2  and  C_10
REMARK    4  A    between atoms: S_3  and  C_4
REMARK    5  A    between atoms: N_8  and  C_9
REMARK    6  A    between atoms: C_16  and  C_18
REMARK                            x       y       z     vdW  Elec       q    Type
REMARK                         _______ _______ _______ _____ _____    ______ ____
ROOT
ATOM      1  C   UNL     1       4.823   4.893  16.630  0.00  0.00    +0.000 A 
ATOM      2  C   UNL     1       4.864   3.647  17.265  0.00  0.00    +0.000 A 
ATOM      3  C   UNL     1       4.115   3.454  18.411  0.00  0.00    +0.000 A 
ATOM      4  N   UNL     1       3.350   4.407  18.969  0.00  0.00    +0.000 NA
ATOM      5  C   UNL     1       3.290   5.610  18.377  0.00  0.00    +0.000 A 
ATOM      6  N   UNL     1       2.555   6.642  18.974  0.00  0.00    +0.000 N 
ATOM      7  C   UNL     1       1.883   6.528  20.188  0.00  0.00    +0.000 C 
ATOM      8  O   UNL     1       1.746   5.494  20.833  0.00  0.00    +0.000 OA
ATOM      9  C   UNL     1       3.986   5.879  17.200  0.00  0.00    +0.000 A 
ATOM     10  H   UNL     1       2.565   7.561  18.554  0.00  0.00    +0.000 HD
ENDROOT
BRANCH   7  11
ATOM     11  C   UNL     1       1.349   7.810  20.649  0.00  0.00    +0.000 A 
ATOM     12  N   UNL     1       0.798   7.987  21.836  0.00  0.00    +0.000 NA
ATOM     13  C   UNL     1       0.313   9.288  21.923  0.00  0.00    +0.000 A 
ATOM     14  C   UNL     1      -0.362   9.848  23.027  0.00  0.00    +0.000 A 
ATOM     15  C   UNL     1      -0.841  11.162  22.958  0.00  0.00    +0.000 A 
ATOM     16  C   UNL     1      -0.646  11.925  21.812  0.00  0.00    +0.000 A 
ATOM     17  C   UNL     1       0.041  11.403  20.712  0.00  0.00    +0.000 A 
ATOM     18  C   UNL     1       0.510  10.082  20.791  0.00  0.00    +0.000 A 
ATOM     19  S   UNL     1       1.367   9.174  19.611  0.00  0.00    +0.000 S 
ENDBRANCH   7  11
BRANCH   1  21
ATOM     20  C   UNL     1       5.245   4.461  14.128  0.00  0.00    +0.000 C 
ATOM     21  C   UNL     1       5.672   5.219  15.397  0.00  0.00    +0.000 C 
BRANCH  21  22
ATOM     22  S   UNL     1       7.433   4.832  15.792  0.00  0.00    +0.000 S 
BRANCH  22  23
ATOM     23  C   UNL     1       7.553   5.233  17.463  0.00  0.00    +0.000 A 
ATOM     24  N   UNL     1       7.642   4.414  18.483  0.00  0.00    +0.000 NA
ATOM     25  N   UNL     1       7.624   5.177  19.632  0.00  0.00    +0.000 NA
ATOM     26  C   UNL     1       7.541   6.437  19.270  0.00  0.00    +0.000 A 
ATOM     27  N   UNL     1       7.529   6.521  17.911  0.00  0.00    +0.000 N 
ATOM     28  C   UNL     1       7.486   7.729  17.131  0.00  0.00    +0.000 C 
ENDBRANCH  22  23
ENDBRANCH  21  22
ENDBRANCH   1  21
TORSDOF 4
ENDMDL
MODEL 9
REMARK VINA RESULT:      -7.5      2.322      3.450
REMARK  Name = 
REMARK  6 active torsions:
REMARK  status: ('A' for Active; 'I' for Inactive)
REMARK    1  A    between atoms: C_1  and  C_2
REMARK    2  A    between atoms: C_2  and  S_3
REMARK    3  A    between atoms: C_2  and  C_10
REMARK    4  A    between atoms: S_3  and  C_4
REMARK    5  A    between atoms: N_8  and  C_9
REMARK    6  A    between atoms: C_16  and  C_18
REMARK                            x       y       z     vdW  Elec       q    Type
REMARK                         _______ _______ _______ _____ _____    ______ ____
ROOT
ATOM      1  C   UNL     1       4.422   5.082  17.435  0.00  0.00    +0.000 A 
ATOM      2  C   UNL     1       4.305   4.097  18.420  0.00  0.00    +0.000 A 
ATOM      3  C   UNL     1       3.503   4.340  19.520  0.00  0.00    +0.000 A 
ATOM      4  N   UNL     1       2.829   5.487  19.711  0.00  0.00    +0.000 NA
ATOM      5  C   UNL     1       2.921   6.447  18.778  0.00  0.00    +0.000 A 
ATOM      6  N   UNL     1       2.286   7.678  18.983  0.00  0.00    +0.000 N 
ATOM      7  C   UNL     1       1.567   8.010  20.129  0.00  0.00    +0.000 C 
ATOM      8  O   UNL     1       1.296   7.244  21.048  0.00  0.00    +0.000 OA
ATOM      9  C   UNL     1       3.681   6.271  17.623  0.00  0.00    +0.000 A 
ATOM     10  H   UNL     1       2.411   8.416  18.306  0.00  0.00    +0.000 HD
ENDROOT
BRANCH   7  11
ATOM     11  C   UNL     1       1.163   9.416  20.142  0.00  0.00    +0.000 A 
ATOM     12  N   UNL     1       1.260  10.213  19.093  0.00  0.00    +0.000 NA
ATOM     13  C   UNL     1       0.882  11.499  19.464  0.00  0.00    +0.000 A 
ATOM     14  C   UNL     1       0.874  12.634  18.626  0.00  0.00    +0.000 A 
ATOM     15  C   UNL     1       0.516  13.883  19.148  0.00  0.00    +0.000 A 
ATOM     16  C   UNL     1       0.155  14.013  20.485  0.00  0.00    +0.000 A 
ATOM     17  C   UNL     1       0.131  12.901  21.331  0.00  0.00    +0.000 A 
ATOM     18  C   UNL     1       0.499  11.655  20.799  0.00  0.00    +0.000 A 
ATOM     19  S   UNL     1       0.578  10.130  21.586  0.00  0.00    +0.000 S 
ENDBRANCH   7  11
BRANCH   1  21
ATOM     20  C   UNL     1       4.973   3.749  15.305  0.00  0.00    +0.000 C 
ATOM     21  C   UNL     1       5.342   4.929  16.219  0.00  0.00    +0.000 C 
BRANCH  21  22
ATOM     22  S   UNL     1       7.072   4.730  16.828  0.00  0.00    +0.000 S 
BRANCH  22  23
ATOM     23  C   UNL     1       7.477   6.312  17.374  0.00  0.00    +0.000 A 
ATOM     24  N   UNL     1       7.453   7.431  16.690  0.00  0.00    +0.000 NA
ATOM     25  N   UNL     1       7.944   8.429  17.506  0.00  0.00    +0.000 NA
ATOM     26  C   UNL     1       8.235   7.885  18.667  0.00  0.00    +0.000 A 
ATOM     27  N   UNL     1       7.924   6.559  18.639  0.00  0.00    +0.000 N 
ATOM     28  C   UNL     1       8.060   5.629  19.727  0.00  0.00    +0.000 C 
ENDBRANCH  22  23
ENDBRANCH  21  22
ENDBRANCH   1  21
TORSDOF 4
ENDMDL
