MODEL 1
REMARK VINA RESULT:     -10.2      0.000      0.000
REMARK  Name = 
REMARK  8 active torsions:
REMARK  status: ('A' for Active; 'I' for Inactive)
REMARK    1  A    between atoms: C_1  and  N_2
REMARK    2  A    between atoms: C_6  and  C_7
REMARK    3  A    between atoms: C_7  and  C_8
REMARK    4  A    between atoms: C_8  and  C_9
REMARK    5  A    between atoms: C_13  and  N_14
REMARK    6  A    between atoms: C_19  and  C_20
REMARK    7  A    between atoms: C_20  and  N_21
REMARK    8  A    between atoms: C_28  and  C_29
REMARK                            x       y       z     vdW  Elec       q    Type
REMARK                         _______ _______ _______ _____ _____    ______ ____
ROOT
ATOM      1  N   UNL     1       1.429   8.263  20.181  0.00  0.00    +0.000 N 
ATOM      2  C   UNL     1       1.519   6.915  20.696  0.00  0.00    +0.000 C 
ATOM      3  C   UNL     1       2.275   6.171  19.675  0.00  0.00    +0.000 A 
ATOM      4  C   UNL     1       2.701   7.039  18.672  0.00  0.00    +0.000 A 
ATOM      5  C   UNL     1       3.482   6.568  17.623  0.00  0.00    +0.000 A 
ATOM      6  C   UNL     1       3.824   5.191  17.602  0.00  0.00    +0.000 A 
ATOM      7  C   UNL     1       3.338   4.337  18.619  0.00  0.00    +0.000 A 
ATOM      8  C   UNL     1       2.542   4.811  19.663  0.00  0.00    +0.000 A 
ATOM      9  C   UNL     1       2.137   8.387  18.977  0.00  0.00    +0.000 C 
ATOM     10  O   UNL     1       2.285   9.356  18.248  0.00  0.00    +0.000 OA
ENDROOT
BRANCH   1  15
ATOM     11  C   UNL     1      -0.829  11.233  20.617  0.00  0.00    +0.000 A 
ATOM     12  C   UNL     1      -0.986  11.218  22.010  0.00  0.00    +0.000 A 
ATOM     13  C   UNL     1      -0.407  10.209  22.802  0.00  0.00    +0.000 A 
ATOM     14  C   UNL     1       0.375   9.190  22.234  0.00  0.00    +0.000 A 
ATOM     15  C   UNL     1       0.582   9.178  20.864  0.00  0.00    +0.000 A 
ATOM     16  C   UNL     1      -0.055  10.185  20.102  0.00  0.00    +0.000 A 
BRANCH  11  17
ATOM     17  C   UNL     1      -1.473  12.326  19.610  0.00  0.00    +0.000 C 
ATOM     18  C   UNL     1      -0.547  12.781  18.450  0.00  0.00    +0.000 C 
ATOM     19  O   UNL     1      -0.582  14.159  18.867  0.00  0.00    +0.000 OA
ATOM     20  C   UNL     1      -1.386  13.832  20.018  0.00  0.00    +0.000 C 
BRANCH  17  21
ATOM     21  C   UNL     1      -2.894  11.918  19.147  0.00  0.00    +0.000 C 
BRANCH  21  27
ATOM     22  C   UNL     1      -5.280  12.110  17.080  0.00  0.00    +0.000 C 
ATOM     23  N   UNL     1      -4.023  11.435  16.896  0.00  0.00    +0.000 N 
ATOM     24  C   UNL     1      -3.672  10.739  15.778  0.00  0.00    +0.000 A 
ATOM     25  N   UNL     1      -2.478  10.214  15.947  0.00  0.00    +0.000 NA
ATOM     26  N   UNL     1      -2.046  10.570  17.199  0.00  0.00    +0.000 NA
ATOM     27  C   UNL     1      -2.963  11.329  17.764  0.00  0.00    +0.000 A 
ENDBRANCH  21  27
ENDBRANCH  17  21
ENDBRANCH  11  17
ENDBRANCH   1  15
BRANCH   8  28
ATOM     28  C   UNL     1       2.007   3.870  20.712  0.00  0.00    +0.000 C 
ATOM     29  F   UNL     1       0.653   3.814  20.775  0.00  0.00    +0.000 F 
ATOM     30  F   UNL     1       2.432   2.593  20.514  0.00  0.00    +0.000 F 
ATOM     31  F   UNL     1       2.418   4.214  21.964  0.00  0.00    +0.000 F 
ENDBRANCH   8  28
BRANCH   6  32
ATOM     32  C   UNL     1       4.783   4.597  16.587  0.00  0.00    +0.000 C 
BRANCH  32  33
ATOM     33  N   UNL     1       6.221   4.708  16.812  0.00  0.00    +0.000 NA
ATOM     34  C   UNL     1       6.697   4.371  18.153  0.00  0.00    +0.000 C 
ATOM     35  C   UNL     1       6.812   5.576  19.095  0.00  0.00    +0.000 C 
ATOM     36  O   UNL     1       7.624   6.610  18.527  0.00  0.00    +0.000 OA
ATOM     37  C   UNL     1       7.104   7.045  17.264  0.00  0.00    +0.000 C 
ATOM     38  C   UNL     1       6.925   5.878  16.278  0.00  0.00    +0.000 C 
ENDBRANCH  32  33
ENDBRANCH   6  32
TORSDOF 7
ENDMDL
MODEL 2
REMARK VINA RESULT:     -10.0      1.777      2.882
REMARK  Name = 
REMARK  8 active torsions:
REMARK  status: ('A' for Active; 'I' for Inactive)
REMARK    1  A    between atoms: C_1  and  N_2
REMARK    2  A    between atoms: C_6  and  C_7
REMARK    3  A    between atoms: C_7  and  C_8
REMARK    4  A    between atoms: C_8  and  C_9
REMARK    5  A    between atoms: C_13  and  N_14
REMARK    6  A    between atoms: C_19  and  C_20
REMARK    7  A    between atoms: C_20  and  N_21
REMARK    8  A    between atoms: C_28  and  C_29
REMARK                            x       y       z     vdW  Elec       q    Type
REMARK                         _______ _______ _______ _____ _____    ______ ____
ROOT
ATOM      1  N   UNL     1       1.468   8.245  20.130  0.00  0.00    +0.000 N 
ATOM      2  C   UNL     1       1.547   6.902  20.659  0.00  0.00    +0.000 C 
ATOM      3  C   UNL     1       2.305   6.143  19.650  0.00  0.00    +0.000 A 
ATOM      4  C   UNL     1       2.741   6.998  18.641  0.00  0.00    +0.000 A 
ATOM      5  C   UNL     1       3.526   6.512  17.602  0.00  0.00    +0.000 A 
ATOM      6  C   UNL     1       3.861   5.133  17.598  0.00  0.00    +0.000 A 
ATOM      7  C   UNL     1       3.365   4.292  18.620  0.00  0.00    +0.000 A 
ATOM      8  C   UNL     1       2.565   4.781  19.655  0.00  0.00    +0.000 A 
ATOM      9  C   UNL     1       2.183   8.352  18.929  0.00  0.00    +0.000 C 
ATOM     10  O   UNL     1       2.340   9.313  18.191  0.00  0.00    +0.000 OA
ENDROOT
BRANCH   1  15
ATOM     11  C   UNL     1      -0.879  11.154  20.498  0.00  0.00    +0.000 A 
ATOM     12  C   UNL     1      -0.964  11.224  21.896  0.00  0.00    +0.000 A 
ATOM     13  C   UNL     1      -0.307  10.290  22.717  0.00  0.00    +0.000 A 
ATOM     14  C   UNL     1       0.483   9.264  22.173  0.00  0.00    +0.000 A 
ATOM     15  C   UNL     1       0.622   9.171  20.798  0.00  0.00    +0.000 A 
ATOM     16  C   UNL     1      -0.092  10.103  20.009  0.00  0.00    +0.000 A 
BRANCH  11  17
ATOM     17  C   UNL     1      -1.615  12.157  19.460  0.00  0.00    +0.000 C 
ATOM     18  C   UNL     1      -3.155  12.263  19.624  0.00  0.00    +0.000 C 
ATOM     19  O   UNL     1      -3.401  11.800  18.282  0.00  0.00    +0.000 OA
ATOM     20  C   UNL     1      -1.991  11.598  18.051  0.00  0.00    +0.000 C 
BRANCH  17  21
ATOM     21  C   UNL     1      -0.903  13.532  19.382  0.00  0.00    +0.000 C 
BRANCH  21  27
ATOM     22  C   UNL     1       1.104  14.381  21.673  0.00  0.00    +0.000 C 
ATOM     23  N   UNL     1       1.438  13.847  20.380  0.00  0.00    +0.000 N 
ATOM     24  C   UNL     1       2.707  13.641  19.928  0.00  0.00    +0.000 A 
ATOM     25  N   UNL     1       2.664  13.181  18.697  0.00  0.00    +0.000 NA
ATOM     26  N   UNL     1       1.343  13.090  18.338  0.00  0.00    +0.000 NA
ATOM     27  C   UNL     1       0.600  13.465  19.360  0.00  0.00    +0.000 A 
ENDBRANCH  21  27
ENDBRANCH  17  21
ENDBRANCH  11  17
ENDBRANCH   1  15
BRANCH   8  28
ATOM     28  C   UNL     1       2.019   3.855  20.711  0.00  0.00    +0.000 C 
ATOM     29  F   UNL     1       2.413   4.153  21.974  0.00  0.00    +0.000 F 
ATOM     30  F   UNL     1       0.658   3.849  20.728  0.00  0.00    +0.000 F 
ATOM     31  F   UNL     1       2.399   2.564  20.504  0.00  0.00    +0.000 F 
ENDBRANCH   8  28
BRANCH   6  32
ATOM     32  C   UNL     1       4.823   4.523  16.595  0.00  0.00    +0.000 C 
BRANCH  32  33
ATOM     33  N   UNL     1       6.260   4.681  16.796  0.00  0.00    +0.000 NA
ATOM     34  C   UNL     1       6.766   4.374  18.132  0.00  0.00    +0.000 C 
ATOM     35  C   UNL     1       6.859   5.593  19.059  0.00  0.00    +0.000 C 
ATOM     36  O   UNL     1       7.630   6.645  18.466  0.00  0.00    +0.000 OA
ATOM     37  C   UNL     1       7.079   7.048  17.207  0.00  0.00    +0.000 C 
ATOM     38  C   UNL     1       6.920   5.865  16.237  0.00  0.00    +0.000 C 
ENDBRANCH  32  33
ENDBRANCH   6  32
TORSDOF 7
ENDMDL
MODEL 3
REMARK VINA RESULT:      -9.9      2.249      3.263
REMARK  Name = 
REMARK  8 active torsions:
REMARK  status: ('A' for Active; 'I' for Inactive)
REMARK    1  A    between atoms: C_1  and  N_2
REMARK    2  A    between atoms: C_6  and  C_7
REMARK    3  A    between atoms: C_7  and  C_8
REMARK    4  A    between atoms: C_8  and  C_9
REMARK    5  A    between atoms: C_13  and  N_14
REMARK    6  A    between atoms: C_19  and  C_20
REMARK    7  A    between atoms: C_20  and  N_21
REMARK    8  A    between atoms: C_28  and  C_29
REMARK                            x       y       z     vdW  Elec       q    Type
REMARK                         _______ _______ _______ _____ _____    ______ ____
ROOT
ATOM      1  N   UNL     1       1.510   7.825  20.325  0.00  0.00    +0.000 N 
ATOM      2  C   UNL     1       1.613   6.492  20.875  0.00  0.00    +0.000 C 
ATOM      3  C   UNL     1       2.229   5.689  19.805  0.00  0.00    +0.000 A 
ATOM      4  C   UNL     1       2.571   6.508  18.732  0.00  0.00    +0.000 A 
ATOM      5  C   UNL     1       3.217   5.976  17.623  0.00  0.00    +0.000 A 
ATOM      6  C   UNL     1       3.512   4.588  17.615  0.00  0.00    +0.000 A 
ATOM      7  C   UNL     1       3.114   3.785  18.708  0.00  0.00    +0.000 A 
ATOM      8  C   UNL     1       2.451   4.320  19.814  0.00  0.00    +0.000 A 
ATOM      9  C   UNL     1       2.086   7.884  19.048  0.00  0.00    +0.000 C 
ATOM     10  O   UNL     1       2.184   8.824  18.273  0.00  0.00    +0.000 OA
ENDROOT
BRANCH   1  15
ATOM     11  C   UNL     1      -0.329  11.038  20.958  0.00  0.00    +0.000 A 
ATOM     12  C   UNL     1      -0.542  10.929  22.339  0.00  0.00    +0.000 A 
ATOM     13  C   UNL     1      -0.141   9.786  23.054  0.00  0.00    +0.000 A 
ATOM     14  C   UNL     1       0.514   8.717  22.421  0.00  0.00    +0.000 A 
ATOM     15  C   UNL     1       0.772   8.790  21.062  0.00  0.00    +0.000 A 
ATOM     16  C   UNL     1       0.312   9.937  20.373  0.00  0.00    +0.000 A 
BRANCH  11  17
ATOM     17  C   UNL     1      -0.773  12.292  20.033  0.00  0.00    +0.000 C 
ATOM     18  C   UNL     1      -2.244  12.259  19.539  0.00  0.00    +0.000 C 
ATOM     19  O   UNL     1      -1.854  12.261  18.153  0.00  0.00    +0.000 OA
ATOM     20  C   UNL     1      -0.456  12.219  18.506  0.00  0.00    +0.000 C 
BRANCH  17  21
ATOM     21  C   UNL     1      -0.360  13.647  20.661  0.00  0.00    +0.000 C 
BRANCH  21  27
ATOM     22  C   UNL     1       1.293  15.531  18.734  0.00  0.00    +0.000 C 
ATOM     23  N   UNL     1       1.803  14.738  19.820  0.00  0.00    +0.000 N 
ATOM     24  C   UNL     1       3.116  14.661  20.177  0.00  0.00    +0.000 A 
ATOM     25  N   UNL     1       3.248  13.822  21.180  0.00  0.00    +0.000 NA
ATOM     26  N   UNL     1       2.000  13.339  21.480  0.00  0.00    +0.000 NA
ATOM     27  C   UNL     1       1.121  13.910  20.680  0.00  0.00    +0.000 A 
ENDBRANCH  21  27
ENDBRANCH  17  21
ENDBRANCH  11  17
ENDBRANCH   1  15
BRANCH   8  28
ATOM     28  C   UNL     1       2.005   3.434  20.948  0.00  0.00    +0.000 C 
ATOM     29  F   UNL     1       0.659   3.284  21.045  0.00  0.00    +0.000 F 
ATOM     30  F   UNL     1       2.521   2.179  20.845  0.00  0.00    +0.000 F 
ATOM     31  F   UNL     1       2.408   3.909  22.158  0.00  0.00    +0.000 F 
ENDBRANCH   8  28
BRANCH   6  32
ATOM     32  C   UNL     1       4.336   3.928  16.524  0.00  0.00    +0.000 C 
BRANCH  32  33
ATOM     33  N   UNL     1       5.791   3.932  16.627  0.00  0.00    +0.000 NA
ATOM     34  C   UNL     1       6.377   4.922  17.529  0.00  0.00    +0.000 C 
ATOM     35  C   UNL     1       6.773   6.235  16.841  0.00  0.00    +0.000 C 
ATOM     36  O   UNL     1       7.646   6.001  15.729  0.00  0.00    +0.000 OA
ATOM     37  C   UNL     1       7.041   5.127  14.768  0.00  0.00    +0.000 C 
ATOM     38  C   UNL     1       6.581   3.801  15.398  0.00  0.00    +0.000 C 
ENDBRANCH  32  33
ENDBRANCH   6  32
TORSDOF 7
ENDMDL
MODEL 4
REMARK VINA RESULT:      -9.8      2.729      8.933
REMARK  Name = 
REMARK  8 active torsions:
REMARK  status: ('A' for Active; 'I' for Inactive)
REMARK    1  A    between atoms: C_1  and  N_2
REMARK    2  A    between atoms: C_6  and  C_7
REMARK    3  A    between atoms: C_7  and  C_8
REMARK    4  A    between atoms: C_8  and  C_9
REMARK    5  A    between atoms: C_13  and  N_14
REMARK    6  A    between atoms: C_19  and  C_20
REMARK    7  A    between atoms: C_20  and  N_21
REMARK    8  A    between atoms: C_28  and  C_29
REMARK                            x       y       z     vdW  Elec       q    Type
REMARK                         _______ _______ _______ _____ _____    ______ ____
ROOT
ATOM      1  N   UNL     1       2.327   7.367  19.305  0.00  0.00    +0.000 N 
ATOM      2  C   UNL     1       1.560   7.727  20.476  0.00  0.00    +0.000 C 
ATOM      3  C   UNL     1       0.994   9.050  20.166  0.00  0.00    +0.000 A 
ATOM      4  C   UNL     1       1.312   9.408  18.858  0.00  0.00    +0.000 A 
ATOM      5  C   UNL     1       0.838  10.600  18.323  0.00  0.00    +0.000 A 
ATOM      6  C   UNL     1       0.033  11.434  19.142  0.00  0.00    +0.000 A 
ATOM      7  C   UNL     1      -0.234  11.052  20.476  0.00  0.00    +0.000 A 
ATOM      8  C   UNL     1       0.257   9.861  21.015  0.00  0.00    +0.000 A 
ATOM      9  C   UNL     1       2.195   8.339  18.303  0.00  0.00    +0.000 C 
ATOM     10  O   UNL     1       2.692   8.392  17.189  0.00  0.00    +0.000 OA
ENDROOT
BRANCH   1  15
ATOM     11  C   UNL     1       5.411   5.276  18.833  0.00  0.00    +0.000 A 
ATOM     12  C   UNL     1       4.929   4.031  19.258  0.00  0.00    +0.000 A 
ATOM     13  C   UNL     1       3.621   3.882  19.754  0.00  0.00    +0.000 A 
ATOM     14  C   UNL     1       2.734   4.969  19.819  0.00  0.00    +0.000 A 
ATOM     15  C   UNL     1       3.154   6.215  19.384  0.00  0.00    +0.000 A 
ATOM     16  C   UNL     1       4.492   6.329  18.935  0.00  0.00    +0.000 A 
BRANCH  11  17
ATOM     17  C   UNL     1       6.903   5.566  18.273  0.00  0.00    +0.000 C 
ATOM     18  C   UNL     1       7.944   5.977  19.349  0.00  0.00    +0.000 C 
ATOM     19  O   UNL     1       8.205   7.244  18.716  0.00  0.00    +0.000 OA
ATOM     20  C   UNL     1       7.205   6.990  17.707  0.00  0.00    +0.000 C 
BRANCH  17  21
ATOM     21  C   UNL     1       7.396   4.437  17.332  0.00  0.00    +0.000 C 
BRANCH  21  27
ATOM     22  C   UNL     1       4.782   3.340  15.934  0.00  0.00    +0.000 C 
ATOM     23  N   UNL     1       5.841   4.097  15.322  0.00  0.00    +0.000 N 
ATOM     24  C   UNL     1       5.887   4.445  14.006  0.00  0.00    +0.000 A 
ATOM     25  N   UNL     1       7.003   5.097  13.765  0.00  0.00    +0.000 NA
ATOM     26  N   UNL     1       7.700   5.170  14.944  0.00  0.00    +0.000 NA
ATOM     27  C   UNL     1       6.989   4.592  15.892  0.00  0.00    +0.000 A 
ENDBRANCH  21  27
ENDBRANCH  17  21
ENDBRANCH  11  17
ENDBRANCH   1  15
BRANCH   8  28
ATOM     28  C   UNL     1      -0.012   9.497  22.453  0.00  0.00    +0.000 C 
ATOM     29  F   UNL     1       1.102   9.225  23.178  0.00  0.00    +0.000 F 
ATOM     30  F   UNL     1      -0.664  10.492  23.115  0.00  0.00    +0.000 F 
ATOM     31  F   UNL     1      -0.800   8.393  22.562  0.00  0.00    +0.000 F 
ENDBRANCH   8  28
BRANCH   6  32
ATOM     32  C   UNL     1      -0.652  12.684  18.620  0.00  0.00    +0.000 C 
BRANCH  32  33
ATOM     33  N   UNL     1      -0.063  13.990  18.897  0.00  0.00    +0.000 NA
ATOM     34  C   UNL     1       1.383  14.103  18.715  0.00  0.00    +0.000 C 
ATOM     35  C   UNL     1       2.194  13.857  19.994  0.00  0.00    +0.000 C 
ATOM     36  O   UNL     1       1.762  14.710  21.060  0.00  0.00    +0.000 OA
ATOM     37  C   UNL     1       0.369  14.527  21.341  0.00  0.00    +0.000 C 
ATOM     38  C   UNL     1      -0.506  14.720  20.090  0.00  0.00    +0.000 C 
ENDBRANCH  32  33
ENDBRANCH   6  32
TORSDOF 7
ENDMDL
MODEL 5
REMARK VINA RESULT:      -9.8      2.092      3.181
REMARK  Name = 
REMARK  8 active torsions:
REMARK  status: ('A' for Active; 'I' for Inactive)
REMARK    1  A    between atoms: C_1  and  N_2
REMARK    2  A    between atoms: C_6  and  C_7
REMARK    3  A    between atoms: C_7  and  C_8
REMARK    4  A    between atoms: C_8  and  C_9
REMARK    5  A    between atoms: C_13  and  N_14
REMARK    6  A    between atoms: C_19  and  C_20
REMARK    7  A    between atoms: C_20  and  N_21
REMARK    8  A    between atoms: C_28  and  C_29
REMARK                            x       y       z     vdW  Elec       q    Type
REMARK                         _______ _______ _______ _____ _____    ______ ____
ROOT
ATOM      1  N   UNL     1       1.464   8.012  20.143  0.00  0.00    +0.000 N 
ATOM      2  C   UNL     1       1.563   6.698  20.737  0.00  0.00    +0.000 C 
ATOM      3  C   UNL     1       2.201   5.865  19.704  0.00  0.00    +0.000 A 
ATOM      4  C   UNL     1       2.557   6.652  18.611  0.00  0.00    +0.000 A 
ATOM      5  C   UNL     1       3.226   6.089  17.531  0.00  0.00    +0.000 A 
ATOM      6  C   UNL     1       3.526   4.702  17.572  0.00  0.00    +0.000 A 
ATOM      7  C   UNL     1       3.113   3.932  18.682  0.00  0.00    +0.000 A 
ATOM      8  C   UNL     1       2.429   4.499  19.760  0.00  0.00    +0.000 A 
ATOM      9  C   UNL     1       2.061   8.035  18.875  0.00  0.00    +0.000 C 
ATOM     10  O   UNL     1       2.168   8.950  18.073  0.00  0.00    +0.000 OA
ENDROOT
BRANCH   1  15
ATOM     11  C   UNL     1      -0.752  11.014  20.572  0.00  0.00    +0.000 A 
ATOM     12  C   UNL     1      -0.711  11.151  21.967  0.00  0.00    +0.000 A 
ATOM     13  C   UNL     1      -0.013  10.233  22.772  0.00  0.00    +0.000 A 
ATOM     14  C   UNL     1       0.695   9.157  22.212  0.00  0.00    +0.000 A 
ATOM     15  C   UNL     1       0.709   8.996  20.837  0.00  0.00    +0.000 A 
ATOM     16  C   UNL     1      -0.044   9.916  20.068  0.00  0.00    +0.000 A 
BRANCH  11  17
ATOM     17  C   UNL     1      -1.546  11.993  19.554  0.00  0.00    +0.000 C 
ATOM     18  C   UNL     1      -2.943  12.461  20.043  0.00  0.00    +0.000 C 
ATOM     19  O   UNL     1      -3.615  11.875  18.913  0.00  0.00    +0.000 OA
ATOM     20  C   UNL     1      -2.377  11.333  18.408  0.00  0.00    +0.000 C 
BRANCH  17  21
ATOM     21  C   UNL     1      -0.648  13.149  19.045  0.00  0.00    +0.000 C 
BRANCH  21  27
ATOM     22  C   UNL     1       2.379  12.418  18.494  0.00  0.00    +0.000 C 
ATOM     23  N   UNL     1       1.847  13.114  19.635  0.00  0.00    +0.000 N 
ATOM     24  C   UNL     1       2.589  13.556  20.690  0.00  0.00    +0.000 A 
ATOM     25  N   UNL     1       1.796  14.113  21.578  0.00  0.00    +0.000 NA
ATOM     26  N   UNL     1       0.514  14.029  21.096  0.00  0.00    +0.000 NA
ATOM     27  C   UNL     1       0.544  13.451  19.912  0.00  0.00    +0.000 A 
ENDBRANCH  21  27
ENDBRANCH  17  21
ENDBRANCH  11  17
ENDBRANCH   1  15
BRANCH   8  28
ATOM     28  C   UNL     1       1.967   3.646  20.913  0.00  0.00    +0.000 C 
ATOM     29  F   UNL     1       2.375   4.084  22.131  0.00  0.00    +0.000 F 
ATOM     30  F   UNL     1       0.610   3.564  20.973  0.00  0.00    +0.000 F 
ATOM     31  F   UNL     1       2.418   2.365  20.815  0.00  0.00    +0.000 F 
ENDBRANCH   8  28
BRANCH   6  32
ATOM     32  C   UNL     1       4.372   4.013  16.516  0.00  0.00    +0.000 C 
BRANCH  32  33
ATOM     33  N   UNL     1       5.825   4.022  16.647  0.00  0.00    +0.000 NA
ATOM     34  C   UNL     1       6.394   5.056  17.509  0.00  0.00    +0.000 C 
ATOM     35  C   UNL     1       6.805   6.333  16.763  0.00  0.00    +0.000 C 
ATOM     36  O   UNL     1       7.699   6.042  15.682  0.00  0.00    +0.000 OA
ATOM     37  C   UNL     1       7.112   5.121  14.755  0.00  0.00    +0.000 C 
ATOM     38  C   UNL     1       6.638   3.829  15.442  0.00  0.00    +0.000 C 
ENDBRANCH  32  33
ENDBRANCH   6  32
TORSDOF 7
ENDMDL
MODEL 6
REMARK VINA RESULT:      -9.8      1.983      3.043
REMARK  Name = 
REMARK  8 active torsions:
REMARK  status: ('A' for Active; 'I' for Inactive)
REMARK    1  A    between atoms: C_1  and  N_2
REMARK    2  A    between atoms: C_6  and  C_7
REMARK    3  A    between atoms: C_7  and  C_8
REMARK    4  A    between atoms: C_8  and  C_9
REMARK    5  A    between atoms: C_13  and  N_14
REMARK    6  A    between atoms: C_19  and  C_20
REMARK    7  A    between atoms: C_20  and  N_21
REMARK    8  A    between atoms: C_28  and  C_29
REMARK                            x       y       z     vdW  Elec       q    Type
REMARK                         _______ _______ _______ _____ _____    ______ ____
ROOT
ATOM      1  N   UNL     1       1.440   8.234  20.269  0.00  0.00    +0.000 N 
ATOM      2  C   UNL     1       1.527   6.875  20.755  0.00  0.00    +0.000 C 
ATOM      3  C   UNL     1       2.274   6.149  19.716  0.00  0.00    +0.000 A 
ATOM      4  C   UNL     1       2.700   7.035  18.728  0.00  0.00    +0.000 A 
ATOM      5  C   UNL     1       3.474   6.582  17.667  0.00  0.00    +0.000 A 
ATOM      6  C   UNL     1       3.810   5.205  17.617  0.00  0.00    +0.000 A 
ATOM      7  C   UNL     1       3.326   4.333  18.618  0.00  0.00    +0.000 A 
ATOM      8  C   UNL     1       2.536   4.788  19.676  0.00  0.00    +0.000 A 
ATOM      9  C   UNL     1       2.143   8.379  19.064  0.00  0.00    +0.000 C 
ATOM     10  O   UNL     1       2.291   9.362  18.354  0.00  0.00    +0.000 OA
ENDROOT
BRANCH   1  15
ATOM     11  C   UNL     1      -0.822  11.190  20.771  0.00  0.00    +0.000 A 
ATOM     12  C   UNL     1      -0.958  11.159  22.166  0.00  0.00    +0.000 A 
ATOM     13  C   UNL     1      -0.364  10.144  22.937  0.00  0.00    +0.000 A 
ATOM     14  C   UNL     1       0.412   9.133  22.347  0.00  0.00    +0.000 A 
ATOM     15  C   UNL     1       0.600   9.137  20.974  0.00  0.00    +0.000 A 
ATOM     16  C   UNL     1      -0.052  10.151  20.232  0.00  0.00    +0.000 A 
BRANCH  11  17
ATOM     17  C   UNL     1      -1.483  12.293  19.786  0.00  0.00    +0.000 C 
ATOM     18  C   UNL     1      -3.034  12.272  19.719  0.00  0.00    +0.000 C 
ATOM     19  O   UNL     1      -3.041  12.010  18.303  0.00  0.00    +0.000 OA
ATOM     20  C   UNL     1      -1.601  11.937  18.269  0.00  0.00    +0.000 C 
BRANCH  17  21
ATOM     21  C   UNL     1      -0.891  13.706  20.019  0.00  0.00    +0.000 C 
BRANCH  21  27
ATOM     22  C   UNL     1       1.717  13.098  18.338  0.00  0.00    +0.000 C 
ATOM     23  N   UNL     1       1.644  13.450  19.731  0.00  0.00    +0.000 N 
ATOM     24  C   UNL     1       2.718  13.555  20.563  0.00  0.00    +0.000 A 
ATOM     25  N   UNL     1       2.305  13.852  21.775  0.00  0.00    +0.000 NA
ATOM     26  N   UNL     1       0.936  13.937  21.734  0.00  0.00    +0.000 NA
ATOM     27  C   UNL     1       0.536  13.722  20.497  0.00  0.00    +0.000 A 
ENDBRANCH  21  27
ENDBRANCH  17  21
ENDBRANCH  11  17
ENDBRANCH   1  15
BRANCH   8  28
ATOM     28  C   UNL     1       2.003   3.829  20.708  0.00  0.00    +0.000 C 
ATOM     29  F   UNL     1       2.384   2.540  20.523  0.00  0.00    +0.000 F 
ATOM     30  F   UNL     1       2.396   4.165  21.966  0.00  0.00    +0.000 F 
ATOM     31  F   UNL     1       0.642   3.808  20.731  0.00  0.00    +0.000 F 
ENDBRANCH   8  28
BRANCH   6  32
ATOM     32  C   UNL     1       4.762   4.628  16.585  0.00  0.00    +0.000 C 
BRANCH  32  33
ATOM     33  N   UNL     1       6.201   4.748  16.795  0.00  0.00    +0.000 NA
ATOM     34  C   UNL     1       6.699   4.374  18.117  0.00  0.00    +0.000 C 
ATOM     35  C   UNL     1       6.813   5.551  19.096  0.00  0.00    +0.000 C 
ATOM     36  O   UNL     1       7.606   6.612  18.550  0.00  0.00    +0.000 OA
ATOM     37  C   UNL     1       7.065   7.080  17.309  0.00  0.00    +0.000 C 
ATOM     38  C   UNL     1       6.885   5.943  16.288  0.00  0.00    +0.000 C 
ENDBRANCH  32  33
ENDBRANCH   6  32
TORSDOF 7
ENDMDL
MODEL 7
REMARK VINA RESULT:      -9.8      2.426      3.724
REMARK  Name = 
REMARK  8 active torsions:
REMARK  status: ('A' for Active; 'I' for Inactive)
REMARK    1  A    between atoms: C_1  and  N_2
REMARK    2  A    between atoms: C_6  and  C_7
REMARK    3  A    between atoms: C_7  and  C_8
REMARK    4  A    between atoms: C_8  and  C_9
REMARK    5  A    between atoms: C_13  and  N_14
REMARK    6  A    between atoms: C_19  and  C_20
REMARK    7  A    between atoms: C_20  and  N_21
REMARK    8  A    between atoms: C_28  and  C_29
REMARK                            x       y       z     vdW  Elec       q    Type
REMARK                         _______ _______ _______ _____ _____    ______ ____
ROOT
ATOM      1  N   UNL     1       1.540   7.971  20.309  0.00  0.00    +0.000 N 
ATOM      2  C   UNL     1       1.644   6.645  20.874  0.00  0.00    +0.000 C 
ATOM      3  C   UNL     1       2.244   5.827  19.807  0.00  0.00    +0.000 A 
ATOM      4  C   UNL     1       2.575   6.631  18.719  0.00  0.00    +0.000 A 
ATOM      5  C   UNL     1       3.206   6.083  17.609  0.00  0.00    +0.000 A 
ATOM      6  C   UNL     1       3.495   4.694  17.614  0.00  0.00    +0.000 A 
ATOM      7  C   UNL     1       3.107   3.906  18.722  0.00  0.00    +0.000 A 
ATOM      8  C   UNL     1       2.461   4.457  19.830  0.00  0.00    +0.000 A 
ATOM      9  C   UNL     1       2.100   8.013  19.024  0.00  0.00    +0.000 C 
ATOM     10  O   UNL     1       2.191   8.942  18.236  0.00  0.00    +0.000 OA
ENDROOT
BRANCH   1  15
ATOM     11  C   UNL     1       0.088  11.345  21.093  0.00  0.00    +0.000 A 
ATOM     12  C   UNL     1      -0.410  11.103  22.381  0.00  0.00    +0.000 A 
ATOM     13  C   UNL     1      -0.327   9.829  22.971  0.00  0.00    +0.000 A 
ATOM     14  C   UNL     1       0.281   8.752  22.306  0.00  0.00    +0.000 A 
ATOM     15  C   UNL     1       0.814   8.948  21.043  0.00  0.00    +0.000 A 
ATOM     16  C   UNL     1       0.669  10.234  20.469  0.00  0.00    +0.000 A 
BRANCH  11  17
ATOM     17  C   UNL     1       0.021  12.762  20.310  0.00  0.00    +0.000 C 
ATOM     18  C   UNL     1      -0.481  13.962  21.157  0.00  0.00    +0.000 C 
ATOM     19  O   UNL     1      -1.596  14.207  20.279  0.00  0.00    +0.000 OA
ATOM     20  C   UNL     1      -1.256  13.066  19.464  0.00  0.00    +0.000 C 
BRANCH  17  21
ATOM     21  C   UNL     1       1.331  13.055  19.534  0.00  0.00    +0.000 C 
BRANCH  21  27
ATOM     22  C   UNL     1       2.837  15.736  18.800  0.00  0.00    +0.000 C 
ATOM     23  N   UNL     1       3.026  14.927  19.975  0.00  0.00    +0.000 N 
ATOM     24  C   UNL     1       3.924  15.193  20.965  0.00  0.00    +0.000 A 
ATOM     25  N   UNL     1       3.871  14.241  21.870  0.00  0.00    +0.000 NA
ATOM     26  N   UNL     1       2.925  13.336  21.460  0.00  0.00    +0.000 NA
ATOM     27  C   UNL     1       2.394  13.760  20.331  0.00  0.00    +0.000 A 
ENDBRANCH  21  27
ENDBRANCH  17  21
ENDBRANCH  11  17
ENDBRANCH   1  15
BRANCH   8  28
ATOM     28  C   UNL     1       2.025   3.586  20.980  0.00  0.00    +0.000 C 
ATOM     29  F   UNL     1       2.439   4.020  22.198  0.00  0.00    +0.000 F 
ATOM     30  F   UNL     1       0.670   3.481  21.053  0.00  0.00    +0.000 F 
ATOM     31  F   UNL     1       2.496   2.314  20.865  0.00  0.00    +0.000 F 
ENDBRANCH   8  28
BRANCH   6  32
ATOM     32  C   UNL     1       4.303   4.017  16.522  0.00  0.00    +0.000 C 
BRANCH  32  33
ATOM     33  N   UNL     1       5.757   3.969  16.634  0.00  0.00    +0.000 NA
ATOM     34  C   UNL     1       6.374   4.960  17.514  0.00  0.00    +0.000 C 
ATOM     35  C   UNL     1       6.824   6.238  16.794  0.00  0.00    +0.000 C 
ATOM     36  O   UNL     1       7.693   5.943  15.694  0.00  0.00    +0.000 OA
ATOM     37  C   UNL     1       7.061   5.067  14.752  0.00  0.00    +0.000 C 
ATOM     38  C   UNL     1       6.548   3.776  15.414  0.00  0.00    +0.000 C 
ENDBRANCH  32  33
ENDBRANCH   6  32
TORSDOF 7
ENDMDL
MODEL 8
REMARK VINA RESULT:      -9.7      1.593      2.277
REMARK  Name = 
REMARK  8 active torsions:
REMARK  status: ('A' for Active; 'I' for Inactive)
REMARK    1  A    between atoms: C_1  and  N_2
REMARK    2  A    between atoms: C_6  and  C_7
REMARK    3  A    between atoms: C_7  and  C_8
REMARK    4  A    between atoms: C_8  and  C_9
REMARK    5  A    between atoms: C_13  and  N_14
REMARK    6  A    between atoms: C_19  and  C_20
REMARK    7  A    between atoms: C_20  and  N_21
REMARK    8  A    between atoms: C_28  and  C_29
REMARK                            x       y       z     vdW  Elec       q    Type
REMARK                         _______ _______ _______ _____ _____    ______ ____
ROOT
ATOM      1  N   UNL     1       1.433   8.136  20.282  0.00  0.00    +0.000 N 
ATOM      2  C   UNL     1       1.535   6.790  20.797  0.00  0.00    +0.000 C 
ATOM      3  C   UNL     1       2.278   6.047  19.765  0.00  0.00    +0.000 A 
ATOM      4  C   UNL     1       2.686   6.915  18.755  0.00  0.00    +0.000 A 
ATOM      5  C   UNL     1       3.452   6.445  17.695  0.00  0.00    +0.000 A 
ATOM      6  C   UNL     1       3.799   5.069  17.671  0.00  0.00    +0.000 A 
ATOM      7  C   UNL     1       3.332   4.215  18.696  0.00  0.00    +0.000 A 
ATOM      8  C   UNL     1       2.550   4.687  19.752  0.00  0.00    +0.000 A 
ATOM      9  C   UNL     1       2.122   8.261  19.067  0.00  0.00    +0.000 C 
ATOM     10  O   UNL     1       2.255   9.230  18.335  0.00  0.00    +0.000 OA
ENDROOT
BRANCH   1  15
ATOM     11  C   UNL     1      -0.898  11.047  20.733  0.00  0.00    +0.000 A 
ATOM     12  C   UNL     1      -0.979  11.080  22.132  0.00  0.00    +0.000 A 
ATOM     13  C   UNL     1      -0.325  10.121  22.927  0.00  0.00    +0.000 A 
ATOM     14  C   UNL     1       0.459   9.106  22.354  0.00  0.00    +0.000 A 
ATOM     15  C   UNL     1       0.593   9.049  20.976  0.00  0.00    +0.000 A 
ATOM     16  C   UNL     1      -0.118  10.006  20.214  0.00  0.00    +0.000 A 
BRANCH  11  17
ATOM     17  C   UNL     1      -1.631  12.081  19.724  0.00  0.00    +0.000 C 
ATOM     18  C   UNL     1      -2.463  11.421  18.592  0.00  0.00    +0.000 C 
ATOM     19  O   UNL     1      -1.678  12.039  17.555  0.00  0.00    +0.000 OA
ATOM     20  C   UNL     1      -0.799  12.643  18.527  0.00  0.00    +0.000 C 
BRANCH  17  21
ATOM     21  C   UNL     1      -2.395  13.191  20.489  0.00  0.00    +0.000 C 
BRANCH  21  27
ATOM     22  C   UNL     1      -3.931  12.776  23.221  0.00  0.00    +0.000 C 
ATOM     23  N   UNL     1      -4.492  12.751  21.897  0.00  0.00    +0.000 N 
ATOM     24  C   UNL     1      -5.804  12.515  21.613  0.00  0.00    +0.000 A 
ATOM     25  N   UNL     1      -5.977  12.522  20.310  0.00  0.00    +0.000 NA
ATOM     26  N   UNL     1      -4.756  12.762  19.733  0.00  0.00    +0.000 NA
ATOM     27  C   UNL     1      -3.862  12.927  20.688  0.00  0.00    +0.000 A 
ENDBRANCH  21  27
ENDBRANCH  17  21
ENDBRANCH  11  17
ENDBRANCH   1  15
BRANCH   8  28
ATOM     28  C   UNL     1       2.035   3.746  20.810  0.00  0.00    +0.000 C 
ATOM     29  F   UNL     1       0.681   3.664  20.874  0.00  0.00    +0.000 F 
ATOM     30  F   UNL     1       2.484   2.476  20.623  0.00  0.00    +0.000 F 
ATOM     31  F   UNL     1       2.439   4.110  22.057  0.00  0.00    +0.000 F 
ENDBRANCH   8  28
BRANCH   6  32
ATOM     32  C   UNL     1       4.744   4.477  16.642  0.00  0.00    +0.000 C 
BRANCH  32  33
ATOM     33  N   UNL     1       6.185   4.626  16.826  0.00  0.00    +0.000 NA
ATOM     34  C   UNL     1       6.701   4.342  18.164  0.00  0.00    +0.000 C 
ATOM     35  C   UNL     1       6.814   5.580  19.064  0.00  0.00    +0.000 C 
ATOM     36  O   UNL     1       7.589   6.611  18.442  0.00  0.00    +0.000 OA
ATOM     37  C   UNL     1       7.029   6.994  17.180  0.00  0.00    +0.000 C 
ATOM     38  C   UNL     1       6.850   5.792  16.236  0.00  0.00    +0.000 C 
ENDBRANCH  32  33
ENDBRANCH   6  32
TORSDOF 7
ENDMDL
MODEL 9
REMARK VINA RESULT:      -9.7      1.935      2.931
REMARK  Name = 
REMARK  8 active torsions:
REMARK  status: ('A' for Active; 'I' for Inactive)
REMARK    1  A    between atoms: C_1  and  N_2
REMARK    2  A    between atoms: C_6  and  C_7
REMARK    3  A    between atoms: C_7  and  C_8
REMARK    4  A    between atoms: C_8  and  C_9
REMARK    5  A    between atoms: C_13  and  N_14
REMARK    6  A    between atoms: C_19  and  C_20
REMARK    7  A    between atoms: C_20  and  N_21
REMARK    8  A    between atoms: C_28  and  C_29
REMARK                            x       y       z     vdW  Elec       q    Type
REMARK                         _______ _______ _______ _____ _____    ______ ____
ROOT
ATOM      1  N   UNL     1       1.472   8.123  20.299  0.00  0.00    +0.000 N 
ATOM      2  C   UNL     1       1.553   6.768  20.792  0.00  0.00    +0.000 C 
ATOM      3  C   UNL     1       2.294   6.032  19.754  0.00  0.00    +0.000 A 
ATOM      4  C   UNL     1       2.719   6.911  18.760  0.00  0.00    +0.000 A 
ATOM      5  C   UNL     1       3.487   6.448  17.698  0.00  0.00    +0.000 A 
ATOM      6  C   UNL     1       3.816   5.069  17.654  0.00  0.00    +0.000 A 
ATOM      7  C   UNL     1       3.332   4.204  18.662  0.00  0.00    +0.000 A 
ATOM      8  C   UNL     1       2.549   4.669  19.720  0.00  0.00    +0.000 A 
ATOM      9  C   UNL     1       2.170   8.259  19.091  0.00  0.00    +0.000 C 
ATOM     10  O   UNL     1       2.320   9.237  18.375  0.00  0.00    +0.000 OA
ENDROOT
BRANCH   1  15
ATOM     11  C   UNL     1      -0.721  11.130  20.808  0.00  0.00    +0.000 A 
ATOM     12  C   UNL     1      -0.894  11.074  22.198  0.00  0.00    +0.000 A 
ATOM     13  C   UNL     1      -0.347  10.027  22.962  0.00  0.00    +0.000 A 
ATOM     14  C   UNL     1       0.416   9.008  22.369  0.00  0.00    +0.000 A 
ATOM     15  C   UNL     1       0.639   9.035  21.002  0.00  0.00    +0.000 A 
ATOM     16  C   UNL     1       0.033  10.081  20.267  0.00  0.00    +0.000 A 
BRANCH  11  17
ATOM     17  C   UNL     1      -1.328  12.271  19.831  0.00  0.00    +0.000 C 
ATOM     18  C   UNL     1      -2.735  11.963  19.251  0.00  0.00    +0.000 C 
ATOM     19  O   UNL     1      -2.266  12.020  17.891  0.00  0.00    +0.000 OA
ATOM     20  C   UNL     1      -0.908  12.239  18.327  0.00  0.00    +0.000 C 
BRANCH  17  21
ATOM     21  C   UNL     1      -1.208  13.686  20.451  0.00  0.00    +0.000 C 
BRANCH  21  27
ATOM     22  C   UNL     1       1.933  13.639  20.807  0.00  0.00    +0.000 C 
ATOM     23  N   UNL     1       1.167  14.528  19.975  0.00  0.00    +0.000 N 
ATOM     24  C   UNL     1       1.694  15.525  19.211  0.00  0.00    +0.000 A 
ATOM     25  N   UNL     1       0.723  16.173  18.606  0.00  0.00    +0.000 NA
ATOM     26  N   UNL     1      -0.459  15.591  18.987  0.00  0.00    +0.000 NA
ATOM     27  C   UNL     1      -0.194  14.581  19.791  0.00  0.00    +0.000 A 
ENDBRANCH  21  27
ENDBRANCH  17  21
ENDBRANCH  11  17
ENDBRANCH   1  15
BRANCH   8  28
ATOM     28  C   UNL     1       2.015   3.718  20.760  0.00  0.00    +0.000 C 
ATOM     29  F   UNL     1       2.391   2.427  20.582  0.00  0.00    +0.000 F 
ATOM     30  F   UNL     1       2.413   4.061  22.015  0.00  0.00    +0.000 F 
ATOM     31  F   UNL     1       0.654   3.702  20.787  0.00  0.00    +0.000 F 
ENDBRANCH   8  28
BRANCH   6  32
ATOM     32  C   UNL     1       4.762   4.481  16.622  0.00  0.00    +0.000 C 
BRANCH  32  33
ATOM     33  N   UNL     1       6.201   4.648  16.795  0.00  0.00    +0.000 NA
ATOM     34  C   UNL     1       6.736   4.338  18.120  0.00  0.00    +0.000 C 
ATOM     35  C   UNL     1       6.840   5.554  19.050  0.00  0.00    +0.000 C 
ATOM     36  O   UNL     1       7.592   6.613  18.446  0.00  0.00    +0.000 OA
ATOM     37  C   UNL     1       7.012   7.019  17.200  0.00  0.00    +0.000 C 
ATOM     38  C   UNL     1       6.842   5.839  16.228  0.00  0.00    +0.000 C 
ENDBRANCH  32  33
ENDBRANCH   6  32
TORSDOF 7
ENDMDL
