MODEL 1
REMARK VINA RESULT:      -8.6      0.000      0.000
REMARK  Name = 
REMARK  8 active torsions:
REMARK  status: ('A' for Active; 'I' for Inactive)
REMARK    1  A    between atoms: C_1  and  C_2
REMARK    2  A    between atoms: C_2  and  C_3
REMARK    3  A    between atoms: C_2  and  C_10
REMARK    4  A    between atoms: C_3  and  C_4
REMARK    5  A    between atoms: N_8  and  C_9
REMARK    6  A    between atoms: C_14  and  N_15
REMARK    7  A    between atoms: C_20  and  C_21
REMARK    8  A    between atoms: C_25  and  C_26
REMARK                            x       y       z     vdW  Elec       q    Type
REMARK                         _______ _______ _______ _____ _____    ______ ____
ROOT
ATOM      1  N   UNL     1       1.099   8.267  20.102  0.00  0.00    +0.000 N 
ATOM      2  C   UNL     1       1.209   6.921  20.649  0.00  0.00    +0.000 C 
ATOM      3  C   UNL     1       2.278   6.325  19.819  0.00  0.00    +0.000 A 
ATOM      4  C   UNL     1       2.611   7.172  18.775  0.00  0.00    +0.000 A 
ATOM      5  C   UNL     1       3.606   6.899  17.873  0.00  0.00    +0.000 A 
ATOM      6  C   UNL     1       4.290   5.713  18.069  0.00  0.00    +0.000 A 
ATOM      7  N   UNL     1       3.965   4.851  19.094  0.00  0.00    +0.000 NA
ATOM      8  C   UNL     1       2.967   5.146  19.973  0.00  0.00    +0.000 A 
ATOM      9  C   UNL     1       1.828   8.400  18.923  0.00  0.00    +0.000 C 
ATOM     10  O   UNL     1       1.926   9.315  18.128  0.00  0.00    +0.000 OA
ENDROOT
BRANCH   1  15
ATOM     11  C   UNL     1      -0.844  11.398  20.774  0.00  0.00    +0.000 A 
ATOM     12  C   UNL     1      -0.895  11.362  22.175  0.00  0.00    +0.000 A 
ATOM     13  C   UNL     1      -0.277  10.332  22.883  0.00  0.00    +0.000 A 
ATOM     14  C   UNL     1       0.393   9.315  22.204  0.00  0.00    +0.000 A 
ATOM     15  C   UNL     1       0.476   9.322  20.812  0.00  0.00    +0.000 A 
ATOM     16  C   UNL     1      -0.140  10.371  20.120  0.00  0.00    +0.000 A 
BRANCH  11  18
ATOM     17  C   UNL     1      -1.497  13.893  20.663  0.00  0.00    +0.000 C 
ATOM     18  C   UNL     1      -1.539  12.509  19.986  0.00  0.00    +0.000 C 
BRANCH  18  19
ATOM     19  C   UNL     1      -2.982  12.143  19.569  0.00  0.00    +0.000 C 
BRANCH  19  20
ATOM     20  C   UNL     1      -3.088  11.640  18.166  0.00  0.00    +0.000 A 
ATOM     21  N   UNL     1      -2.100  11.509  17.302  0.00  0.00    +0.000 NA
ATOM     22  N   UNL     1      -2.626  11.083  16.107  0.00  0.00    +0.000 NA
ATOM     23  C   UNL     1      -3.918  10.931  16.275  0.00  0.00    +0.000 A 
ATOM     24  N   UNL     1      -4.246  11.229  17.561  0.00  0.00    +0.000 N 
ATOM     25  C   UNL     1      -5.545  11.090  18.157  0.00  0.00    +0.000 C 
ENDBRANCH  19  20
ENDBRANCH  18  19
ENDBRANCH  11  18
ENDBRANCH   1  15
BRANCH   6  26
ATOM     26  C   UNL     1       5.420   5.328  17.142  0.00  0.00    +0.000 C 
ATOM     27  C   UNL     1       5.205   4.389  15.973  0.00  0.00    +0.000 C 
ATOM     28  C   UNL     1       5.423   5.849  15.723  0.00  0.00    +0.000 C 
ENDBRANCH   6  26
BRANCH   8  29
ATOM     29  C   UNL     1       2.631   4.207  21.107  0.00  0.00    +0.000 C 
ATOM     30  C   UNL     1       1.405   3.332  21.069  0.00  0.00    +0.000 C 
ATOM     31  C   UNL     1       2.756   2.712  20.892  0.00  0.00    +0.000 C 
ENDBRANCH   8  29
TORSDOF 6
ENDMDL
MODEL 2
REMARK VINA RESULT:      -8.6      2.222      8.775
REMARK  Name = 
REMARK  8 active torsions:
REMARK  status: ('A' for Active; 'I' for Inactive)
REMARK    1  A    between atoms: C_1  and  C_2
REMARK    2  A    between atoms: C_2  and  C_3
REMARK    3  A    between atoms: C_2  and  C_10
REMARK    4  A    between atoms: C_3  and  C_4
REMARK    5  A    between atoms: N_8  and  C_9
REMARK    6  A    between atoms: C_14  and  N_15
REMARK    7  A    between atoms: C_20  and  C_21
REMARK    8  A    between atoms: C_25  and  C_26
REMARK                            x       y       z     vdW  Elec       q    Type
REMARK                         _______ _______ _______ _____ _____    ______ ____
ROOT
ATOM      1  N   UNL     1       2.402   7.390  19.177  0.00  0.00    +0.000 N 
ATOM      2  C   UNL     1       1.744   7.687  20.443  0.00  0.00    +0.000 C 
ATOM      3  C   UNL     1       0.995   8.923  20.132  0.00  0.00    +0.000 A 
ATOM      4  C   UNL     1       1.342   9.399  18.878  0.00  0.00    +0.000 A 
ATOM      5  C   UNL     1       0.769  10.505  18.308  0.00  0.00    +0.000 A 
ATOM      6  C   UNL     1      -0.209  11.132  19.057  0.00  0.00    +0.000 A 
ATOM      7  N   UNL     1      -0.560  10.682  20.312  0.00  0.00    +0.000 NA
ATOM      8  C   UNL     1       0.032   9.583  20.857  0.00  0.00    +0.000 A 
ATOM      9  C   UNL     1       2.277   8.445  18.278  0.00  0.00    +0.000 C 
ATOM     10  O   UNL     1       2.746   8.628  17.170  0.00  0.00    +0.000 OA
ENDROOT
BRANCH   1  15
ATOM     11  C   UNL     1       4.451   4.710  17.551  0.00  0.00    +0.000 A 
ATOM     12  C   UNL     1       4.094   3.608  18.344  0.00  0.00    +0.000 A 
ATOM     13  C   UNL     1       3.172   3.749  19.381  0.00  0.00    +0.000 A 
ATOM     14  C   UNL     1       2.602   4.992  19.652  0.00  0.00    +0.000 A 
ATOM     15  C   UNL     1       2.923   6.108  18.880  0.00  0.00    +0.000 A 
ATOM     16  C   UNL     1       3.840   5.944  17.835  0.00  0.00    +0.000 A 
BRANCH  11  18
ATOM     17  C   UNL     1       5.256   3.359  15.503  0.00  0.00    +0.000 C 
ATOM     18  C   UNL     1       5.479   4.573  16.427  0.00  0.00    +0.000 C 
BRANCH  18  19
ATOM     19  C   UNL     1       6.939   4.619  16.932  0.00  0.00    +0.000 C 
BRANCH  19  20
ATOM     20  C   UNL     1       7.385   5.986  17.340  0.00  0.00    +0.000 A 
ATOM     21  N   UNL     1       7.466   7.050  16.566  0.00  0.00    +0.000 NA
ATOM     22  N   UNL     1       7.984   8.085  17.306  0.00  0.00    +0.000 NA
ATOM     23  C   UNL     1       8.177   7.641  18.525  0.00  0.00    +0.000 A 
ATOM     24  N   UNL     1       7.777   6.343  18.603  0.00  0.00    +0.000 N 
ATOM     25  C   UNL     1       7.739   5.540  19.793  0.00  0.00    +0.000 C 
ENDBRANCH  19  20
ENDBRANCH  18  19
ENDBRANCH  11  18
ENDBRANCH   1  15
BRANCH   6  26
ATOM     26  C   UNL     1      -0.919  12.350  18.510  0.00  0.00    +0.000 C 
ATOM     27  C   UNL     1      -1.262  13.533  19.391  0.00  0.00    +0.000 C 
ATOM     28  C   UNL     1      -0.163  13.652  18.382  0.00  0.00    +0.000 C 
ENDBRANCH   6  26
BRANCH   8  29
ATOM     29  C   UNL     1      -0.373   9.083  22.223  0.00  0.00    +0.000 C 
ATOM     30  C   UNL     1       0.438   9.405  23.452  0.00  0.00    +0.000 C 
ATOM     31  C   UNL     1      -0.888  10.070  23.251  0.00  0.00    +0.000 C 
ENDBRANCH   8  29
TORSDOF 6
ENDMDL
MODEL 3
REMARK VINA RESULT:      -8.6      1.979      8.869
REMARK  Name = 
REMARK  8 active torsions:
REMARK  status: ('A' for Active; 'I' for Inactive)
REMARK    1  A    between atoms: C_1  and  C_2
REMARK    2  A    between atoms: C_2  and  C_3
REMARK    3  A    between atoms: C_2  and  C_10
REMARK    4  A    between atoms: C_3  and  C_4
REMARK    5  A    between atoms: N_8  and  C_9
REMARK    6  A    between atoms: C_14  and  N_15
REMARK    7  A    between atoms: C_20  and  C_21
REMARK    8  A    between atoms: C_25  and  C_26
REMARK                            x       y       z     vdW  Elec       q    Type
REMARK                         _______ _______ _______ _____ _____    ______ ____
ROOT
ATOM      1  N   UNL     1       2.438   7.498  19.054  0.00  0.00    +0.000 N 
ATOM      2  C   UNL     1       1.831   7.763  20.353  0.00  0.00    +0.000 C 
ATOM      3  C   UNL     1       0.930   8.898  20.059  0.00  0.00    +0.000 A 
ATOM      4  C   UNL     1       1.143   9.367  18.773  0.00  0.00    +0.000 A 
ATOM      5  C   UNL     1       0.414  10.383  18.212  0.00  0.00    +0.000 A 
ATOM      6  C   UNL     1      -0.579  10.924  19.007  0.00  0.00    +0.000 A 
ATOM      7  N   UNL     1      -0.798  10.480  20.294  0.00  0.00    +0.000 NA
ATOM      8  C   UNL     1      -0.054   9.472  20.828  0.00  0.00    +0.000 A 
ATOM      9  C   UNL     1       2.139   8.503  18.137  0.00  0.00    +0.000 C 
ATOM     10  O   UNL     1       2.515   8.698  16.997  0.00  0.00    +0.000 OA
ENDROOT
BRANCH   1  15
ATOM     11  C   UNL     1       4.513   4.953  17.254  0.00  0.00    +0.000 A 
ATOM     12  C   UNL     1       4.490   3.907  18.189  0.00  0.00    +0.000 A 
ATOM     13  C   UNL     1       3.779   4.037  19.382  0.00  0.00    +0.000 A 
ATOM     14  C   UNL     1       3.090   5.215  19.667  0.00  0.00    +0.000 A 
ATOM     15  C   UNL     1       3.080   6.272  18.758  0.00  0.00    +0.000 A 
ATOM     16  C   UNL     1       3.788   6.119  17.560  0.00  0.00    +0.000 A 
BRANCH  11  18
ATOM     17  C   UNL     1       5.531   3.384  15.474  0.00  0.00    +0.000 C 
ATOM     18  C   UNL     1       5.308   4.832  15.954  0.00  0.00    +0.000 C 
BRANCH  18  19
ATOM     19  C   UNL     1       6.643   5.613  15.985  0.00  0.00    +0.000 C 
BRANCH  19  20
ATOM     20  C   UNL     1       7.301   5.611  17.327  0.00  0.00    +0.000 A 
ATOM     21  N   UNL     1       7.683   4.553  18.014  0.00  0.00    +0.000 NA
ATOM     22  N   UNL     1       8.178   4.978  19.223  0.00  0.00    +0.000 NA
ATOM     23  C   UNL     1       8.119   6.288  19.236  0.00  0.00    +0.000 A 
ATOM     24  N   UNL     1       7.614   6.731  18.052  0.00  0.00    +0.000 N 
ATOM     25  C   UNL     1       7.487   8.103  17.647  0.00  0.00    +0.000 C 
ENDBRANCH  19  20
ENDBRANCH  18  19
ENDBRANCH  11  18
ENDBRANCH   1  15
BRANCH   6  26
ATOM     26  C   UNL     1      -1.454  12.036  18.475  0.00  0.00    +0.000 C 
ATOM     27  C   UNL     1      -2.928  11.825  18.199  0.00  0.00    +0.000 C 
ATOM     28  C   UNL     1      -2.504  12.646  19.376  0.00  0.00    +0.000 C 
ENDBRANCH   6  26
BRANCH   8  29
ATOM     29  C   UNL     1      -0.313   8.977  22.230  0.00  0.00    +0.000 C 
ATOM     30  C   UNL     1       0.563   9.387  23.386  0.00  0.00    +0.000 C 
ATOM     31  C   UNL     1      -0.820   9.949  23.277  0.00  0.00    +0.000 C 
ENDBRANCH   8  29
TORSDOF 6
ENDMDL
MODEL 4
REMARK VINA RESULT:      -8.5      0.901      1.007
REMARK  Name = 
REMARK  8 active torsions:
REMARK  status: ('A' for Active; 'I' for Inactive)
REMARK    1  A    between atoms: C_1  and  C_2
REMARK    2  A    between atoms: C_2  and  C_3
REMARK    3  A    between atoms: C_2  and  C_10
REMARK    4  A    between atoms: C_3  and  C_4
REMARK    5  A    between atoms: N_8  and  C_9
REMARK    6  A    between atoms: C_14  and  N_15
REMARK    7  A    between atoms: C_20  and  C_21
REMARK    8  A    between atoms: C_25  and  C_26
REMARK                            x       y       z     vdW  Elec       q    Type
REMARK                         _______ _______ _______ _____ _____    ______ ____
ROOT
ATOM      1  N   UNL     1       1.785   7.591  19.655  0.00  0.00    +0.000 N 
ATOM      2  C   UNL     1       1.744   6.217  20.139  0.00  0.00    +0.000 C 
ATOM      3  C   UNL     1       2.825   5.572  19.362  0.00  0.00    +0.000 A 
ATOM      4  C   UNL     1       3.305   6.434  18.390  0.00  0.00    +0.000 A 
ATOM      5  C   UNL     1       4.343   6.121  17.552  0.00  0.00    +0.000 A 
ATOM      6  C   UNL     1       4.913   4.875  17.737  0.00  0.00    +0.000 A 
ATOM      7  N   UNL     1       4.442   3.998  18.690  0.00  0.00    +0.000 NA
ATOM      8  C   UNL     1       3.404   4.334  19.506  0.00  0.00    +0.000 A 
ATOM      9  C   UNL     1       2.613   7.715  18.543  0.00  0.00    +0.000 C 
ATOM     10  O   UNL     1       2.845   8.655  17.805  0.00  0.00    +0.000 OA
ENDROOT
BRANCH   1  15
ATOM     11  C   UNL     1      -0.043  10.787  20.341  0.00  0.00    +0.000 A 
ATOM     12  C   UNL     1      -0.115  10.736  21.741  0.00  0.00    +0.000 A 
ATOM     13  C   UNL     1       0.453   9.674  22.444  0.00  0.00    +0.000 A 
ATOM     14  C   UNL     1       1.092   8.639  21.761  0.00  0.00    +0.000 A 
ATOM     15  C   UNL     1       1.195   8.660  20.371  0.00  0.00    +0.000 A 
ATOM     16  C   UNL     1       0.629   9.741  19.684  0.00  0.00    +0.000 A 
BRANCH  11  18
ATOM     17  C   UNL     1      -0.174  13.336  19.949  0.00  0.00    +0.000 C 
ATOM     18  C   UNL     1      -0.683  11.934  19.558  0.00  0.00    +0.000 C 
BRANCH  18  19
ATOM     19  C   UNL     1      -2.228  11.887  19.570  0.00  0.00    +0.000 C 
BRANCH  19  20
ATOM     20  C   UNL     1      -2.825  11.583  18.234  0.00  0.00    +0.000 A 
ATOM     21  N   UNL     1      -2.172  11.244  17.140  0.00  0.00    +0.000 NA
ATOM     22  N   UNL     1      -3.078  11.122  16.116  0.00  0.00    +0.000 NA
ATOM     23  C   UNL     1      -4.270  11.357  16.612  0.00  0.00    +0.000 A 
ATOM     24  N   UNL     1      -4.164  11.610  17.944  0.00  0.00    +0.000 N 
ATOM     25  C   UNL     1      -5.255  11.817  18.855  0.00  0.00    +0.000 C 
ENDBRANCH  19  20
ENDBRANCH  18  19
ENDBRANCH  11  18
ENDBRANCH   1  15
BRANCH   6  26
ATOM     26  C   UNL     1       6.078   4.440  16.878  0.00  0.00    +0.000 C 
ATOM     27  C   UNL     1       5.871   3.811  15.516  0.00  0.00    +0.000 C 
ATOM     28  C   UNL     1       6.396   5.210  15.617  0.00  0.00    +0.000 C 
ENDBRANCH   6  26
BRANCH   8  29
ATOM     29  C   UNL     1       2.907   3.376  20.562  0.00  0.00    +0.000 C 
ATOM     30  C   UNL     1       1.488   3.427  21.067  0.00  0.00    +0.000 C 
ATOM     31  C   UNL     1       1.911   2.300  20.176  0.00  0.00    +0.000 C 
ENDBRANCH   8  29
TORSDOF 6
ENDMDL
MODEL 5
REMARK VINA RESULT:      -8.5      2.579      8.877
REMARK  Name = 
REMARK  8 active torsions:
REMARK  status: ('A' for Active; 'I' for Inactive)
REMARK    1  A    between atoms: C_1  and  C_2
REMARK    2  A    between atoms: C_2  and  C_3
REMARK    3  A    between atoms: C_2  and  C_10
REMARK    4  A    between atoms: C_3  and  C_4
REMARK    5  A    between atoms: N_8  and  C_9
REMARK    6  A    between atoms: C_14  and  N_15
REMARK    7  A    between atoms: C_20  and  C_21
REMARK    8  A    between atoms: C_25  and  C_26
REMARK                            x       y       z     vdW  Elec       q    Type
REMARK                         _______ _______ _______ _____ _____    ______ ____
ROOT
ATOM      1  N   UNL     1       2.506   7.230  19.259  0.00  0.00    +0.000 N 
ATOM      2  C   UNL     1       1.856   7.606  20.508  0.00  0.00    +0.000 C 
ATOM      3  C   UNL     1       0.997   8.736  20.094  0.00  0.00    +0.000 A 
ATOM      4  C   UNL     1       1.273   9.102  18.786  0.00  0.00    +0.000 A 
ATOM      5  C   UNL     1       0.594  10.090  18.122  0.00  0.00    +0.000 A 
ATOM      6  C   UNL     1      -0.415  10.712  18.833  0.00  0.00    +0.000 A 
ATOM      7  N   UNL     1      -0.697  10.371  20.139  0.00  0.00    +0.000 NA
ATOM      8  C   UNL     1      -0.002   9.389  20.776  0.00  0.00    +0.000 A 
ATOM      9  C   UNL     1       2.271   8.170  18.259  0.00  0.00    +0.000 C 
ATOM     10  O   UNL     1       2.696   8.270  17.123  0.00  0.00    +0.000 OA
ENDROOT
BRANCH   1  15
ATOM     11  C   UNL     1       4.803   4.592  17.921  0.00  0.00    +0.000 A 
ATOM     12  C   UNL     1       4.489   3.530  18.783  0.00  0.00    +0.000 A 
ATOM     13  C   UNL     1       3.518   3.680  19.771  0.00  0.00    +0.000 A 
ATOM     14  C   UNL     1       2.852   4.896  19.925  0.00  0.00    +0.000 A 
ATOM     15  C   UNL     1       3.127   5.970  19.081  0.00  0.00    +0.000 A 
ATOM     16  C   UNL     1       4.096   5.797  18.086  0.00  0.00    +0.000 A 
BRANCH  11  18
ATOM     17  C   UNL     1       7.327   4.576  17.377  0.00  0.00    +0.000 C 
ATOM     18  C   UNL     1       5.884   4.447  16.849  0.00  0.00    +0.000 C 
BRANCH  18  19
ATOM     19  C   UNL     1       5.658   5.374  15.632  0.00  0.00    +0.000 C 
BRANCH  19  20
ATOM     20  C   UNL     1       6.676   5.196  14.552  0.00  0.00    +0.000 A 
ATOM     21  N   UNL     1       7.868   5.756  14.496  0.00  0.00    +0.000 NA
ATOM     22  N   UNL     1       8.461   5.393  13.312  0.00  0.00    +0.000 NA
ATOM     23  C   UNL     1       7.633   4.592  12.685  0.00  0.00    +0.000 A 
ATOM     24  N   UNL     1       6.519   4.408  13.444  0.00  0.00    +0.000 N 
ATOM     25  C   UNL     1       5.428   3.523  13.143  0.00  0.00    +0.000 C 
ENDBRANCH  19  20
ENDBRANCH  18  19
ENDBRANCH  11  18
ENDBRANCH   1  15
BRANCH   6  26
ATOM     26  C   UNL     1      -1.239  11.801  18.184  0.00  0.00    +0.000 C 
ATOM     27  C   UNL     1      -2.445  11.482  17.326  0.00  0.00    +0.000 C 
ATOM     28  C   UNL     1      -2.638  12.069  18.689  0.00  0.00    +0.000 C 
ENDBRANCH   6  26
BRANCH   8  29
ATOM     29  C   UNL     1      -0.330   9.006  22.199  0.00  0.00    +0.000 C 
ATOM     30  C   UNL     1       0.536   9.444  23.353  0.00  0.00    +0.000 C 
ATOM     31  C   UNL     1      -0.808  10.075  23.162  0.00  0.00    +0.000 C 
ENDBRANCH   8  29
TORSDOF 6
ENDMDL
MODEL 6
REMARK VINA RESULT:      -8.4      1.998      3.958
REMARK  Name = 
REMARK  8 active torsions:
REMARK  status: ('A' for Active; 'I' for Inactive)
REMARK    1  A    between atoms: C_1  and  C_2
REMARK    2  A    between atoms: C_2  and  C_3
REMARK    3  A    between atoms: C_2  and  C_10
REMARK    4  A    between atoms: C_3  and  C_4
REMARK    5  A    between atoms: N_8  and  C_9
REMARK    6  A    between atoms: C_14  and  N_15
REMARK    7  A    between atoms: C_20  and  C_21
REMARK    8  A    between atoms: C_25  and  C_26
REMARK                            x       y       z     vdW  Elec       q    Type
REMARK                         _______ _______ _______ _____ _____    ______ ____
ROOT
ATOM      1  N   UNL     1       1.386   9.155  18.992  0.00  0.00    +0.000 N 
ATOM      2  C   UNL     1       2.442   8.705  18.094  0.00  0.00    +0.000 C 
ATOM      3  C   UNL     1       2.773   7.368  18.632  0.00  0.00    +0.000 A 
ATOM      4  C   UNL     1       2.116   7.153  19.833  0.00  0.00    +0.000 A 
ATOM      5  C   UNL     1       2.197   5.979  20.535  0.00  0.00    +0.000 A 
ATOM      6  C   UNL     1       2.975   4.988  19.966  0.00  0.00    +0.000 A 
ATOM      7  N   UNL     1       3.647   5.187  18.778  0.00  0.00    +0.000 NA
ATOM      8  C   UNL     1       3.552   6.367  18.105  0.00  0.00    +0.000 A 
ATOM      9  C   UNL     1       1.260   8.311  20.093  0.00  0.00    +0.000 C 
ATOM     10  O   UNL     1       0.572   8.382  21.094  0.00  0.00    +0.000 OA
ENDROOT
BRANCH   1  15
ATOM     11  C   UNL     1      -1.699  10.928  17.826  0.00  0.00    +0.000 A 
ATOM     12  C   UNL     1      -1.338  12.258  18.094  0.00  0.00    +0.000 A 
ATOM     13  C   UNL     1      -0.086  12.559  18.629  0.00  0.00    +0.000 A 
ATOM     14  C   UNL     1       0.821  11.540  18.916  0.00  0.00    +0.000 A 
ATOM     15  C   UNL     1       0.504  10.209  18.652  0.00  0.00    +0.000 A 
ATOM     16  C   UNL     1      -0.752   9.926  18.103  0.00  0.00    +0.000 A 
BRANCH  11  18
ATOM     17  C   UNL     1      -3.055   9.996  15.836  0.00  0.00    +0.000 C 
ATOM     18  C   UNL     1      -3.078  10.583  17.262  0.00  0.00    +0.000 C 
BRANCH  18  19
ATOM     19  C   UNL     1      -4.082  11.754  17.359  0.00  0.00    +0.000 C 
BRANCH  19  20
ATOM     20  C   UNL     1      -5.177  11.519  18.349  0.00  0.00    +0.000 A 
ATOM     21  N   UNL     1      -6.243  10.763  18.177  0.00  0.00    +0.000 NA
ATOM     22  N   UNL     1      -7.034  10.871  19.295  0.00  0.00    +0.000 NA
ATOM     23  C   UNL     1      -6.419  11.663  20.140  0.00  0.00    +0.000 A 
ATOM     24  N   UNL     1      -5.232  12.060  19.606  0.00  0.00    +0.000 N 
ATOM     25  C   UNL     1      -4.231  12.852  20.265  0.00  0.00    +0.000 C 
ENDBRANCH  19  20
ENDBRANCH  18  19
ENDBRANCH  11  18
ENDBRANCH   1  15
BRANCH   6  26
ATOM     26  C   UNL     1       3.114   3.646  20.649  0.00  0.00    +0.000 C 
ATOM     27  C   UNL     1       1.903   2.832  21.056  0.00  0.00    +0.000 C 
ATOM     28  C   UNL     1       2.740   2.391  19.896  0.00  0.00    +0.000 C 
ENDBRANCH   6  26
BRANCH   8  29
ATOM     29  C   UNL     1       4.273   6.571  16.794  0.00  0.00    +0.000 C 
ATOM     30  C   UNL     1       5.772   6.708  16.732  0.00  0.00    +0.000 C 
ATOM     31  C   UNL     1       5.129   5.451  16.237  0.00  0.00    +0.000 C 
ENDBRANCH   8  29
TORSDOF 6
ENDMDL
MODEL 7
REMARK VINA RESULT:      -8.4      1.415      1.991
REMARK  Name = 
REMARK  8 active torsions:
REMARK  status: ('A' for Active; 'I' for Inactive)
REMARK    1  A    between atoms: C_1  and  C_2
REMARK    2  A    between atoms: C_2  and  C_3
REMARK    3  A    between atoms: C_2  and  C_10
REMARK    4  A    between atoms: C_3  and  C_4
REMARK    5  A    between atoms: N_8  and  C_9
REMARK    6  A    between atoms: C_14  and  N_15
REMARK    7  A    between atoms: C_20  and  C_21
REMARK    8  A    between atoms: C_25  and  C_26
REMARK                            x       y       z     vdW  Elec       q    Type
REMARK                         _______ _______ _______ _____ _____    ______ ____
ROOT
ATOM      1  N   UNL     1       2.259   7.180  18.777  0.00  0.00    +0.000 N 
ATOM      2  C   UNL     1       2.095   5.747  18.988  0.00  0.00    +0.000 C 
ATOM      3  C   UNL     1       3.164   5.175  18.141  0.00  0.00    +0.000 A 
ATOM      4  C   UNL     1       3.754   6.163  17.370  0.00  0.00    +0.000 A 
ATOM      5  C   UNL     1       4.807   5.930  16.526  0.00  0.00    +0.000 A 
ATOM      6  C   UNL     1       5.276   4.630  16.490  0.00  0.00    +0.000 A 
ATOM      7  N   UNL     1       4.696   3.630  17.240  0.00  0.00    +0.000 NA
ATOM      8  C   UNL     1       3.645   3.889  18.067  0.00  0.00    +0.000 A 
ATOM      9  C   UNL     1       3.149   7.444  17.739  0.00  0.00    +0.000 C 
ATOM     10  O   UNL     1       3.485   8.483  17.203  0.00  0.00    +0.000 OA
ENDROOT
BRANCH   1  15
ATOM     11  C   UNL     1       0.544  10.281  19.988  0.00  0.00    +0.000 A 
ATOM     12  C   UNL     1       0.485  10.011  21.364  0.00  0.00    +0.000 A 
ATOM     13  C   UNL     1       1.025   8.834  21.880  0.00  0.00    +0.000 A 
ATOM     14  C   UNL     1       1.623   7.902  21.033  0.00  0.00    +0.000 A 
ATOM     15  C   UNL     1       1.711   8.140  19.662  0.00  0.00    +0.000 A 
ATOM     16  C   UNL     1       1.174   9.332  19.163  0.00  0.00    +0.000 A 
BRANCH  11  18
ATOM     17  C   UNL     1       0.579  12.861  19.912  0.00  0.00    +0.000 C 
ATOM     18  C   UNL     1      -0.067  11.556  19.406  0.00  0.00    +0.000 C 
BRANCH  18  19
ATOM     19  C   UNL     1      -1.606  11.612  19.553  0.00  0.00    +0.000 C 
BRANCH  19  20
ATOM     20  C   UNL     1      -2.335  11.331  18.279  0.00  0.00    +0.000 A 
ATOM     21  N   UNL     1      -1.825  10.811  17.179  0.00  0.00    +0.000 NA
ATOM     22  N   UNL     1      -2.807  10.783  16.220  0.00  0.00    +0.000 NA
ATOM     23  C   UNL     1      -3.904  11.255  16.762  0.00  0.00    +0.000 A 
ATOM     24  N   UNL     1      -3.666  11.572  18.064  0.00  0.00    +0.000 N 
ATOM     25  C   UNL     1      -4.641  12.026  19.016  0.00  0.00    +0.000 C 
ENDBRANCH  19  20
ENDBRANCH  18  19
ENDBRANCH  11  18
ENDBRANCH   1  15
BRANCH   6  26
ATOM     26  C   UNL     1       6.450   4.271  15.606  0.00  0.00    +0.000 C 
ATOM     27  C   UNL     1       6.263   3.888  14.153  0.00  0.00    +0.000 C 
ATOM     28  C   UNL     1       6.859   5.217  14.500  0.00  0.00    +0.000 C 
ENDBRANCH   6  26
BRANCH   8  29
ATOM     29  C   UNL     1       3.027   2.794  18.902  0.00  0.00    +0.000 C 
ATOM     30  C   UNL     1       3.724   1.474  19.110  0.00  0.00    +0.000 C 
ATOM     31  C   UNL     1       3.642   2.448  20.243  0.00  0.00    +0.000 C 
ENDBRANCH   8  29
TORSDOF 6
ENDMDL
MODEL 8
REMARK VINA RESULT:      -8.3      2.118      3.797
REMARK  Name = 
REMARK  8 active torsions:
REMARK  status: ('A' for Active; 'I' for Inactive)
REMARK    1  A    between atoms: C_1  and  C_2
REMARK    2  A    between atoms: C_2  and  C_3
REMARK    3  A    between atoms: C_2  and  C_10
REMARK    4  A    between atoms: C_3  and  C_4
REMARK    5  A    between atoms: N_8  and  C_9
REMARK    6  A    between atoms: C_14  and  N_15
REMARK    7  A    between atoms: C_20  and  C_21
REMARK    8  A    between atoms: C_25  and  C_26
REMARK                            x       y       z     vdW  Elec       q    Type
REMARK                         _______ _______ _______ _____ _____    ______ ____
ROOT
ATOM      1  N   UNL     1       1.581   9.005  19.071  0.00  0.00    +0.000 N 
ATOM      2  C   UNL     1       2.631   8.626  18.135  0.00  0.00    +0.000 C 
ATOM      3  C   UNL     1       2.931   7.235  18.537  0.00  0.00    +0.000 A 
ATOM      4  C   UNL     1       2.264   6.914  19.709  0.00  0.00    +0.000 A 
ATOM      5  C   UNL     1       2.318   5.674  20.290  0.00  0.00    +0.000 A 
ATOM      6  C   UNL     1       3.078   4.729  19.626  0.00  0.00    +0.000 A 
ATOM      7  N   UNL     1       3.759   5.031  18.466  0.00  0.00    +0.000 NA
ATOM      8  C   UNL     1       3.692   6.275  17.914  0.00  0.00    +0.000 A 
ATOM      9  C   UNL     1       1.431   8.059  20.081  0.00  0.00    +0.000 C 
ATOM     10  O   UNL     1       0.741   8.043  21.082  0.00  0.00    +0.000 OA
ENDROOT
BRANCH   1  15
ATOM     11  C   UNL     1      -1.531  10.948  18.317  0.00  0.00    +0.000 A 
ATOM     12  C   UNL     1      -1.057  12.257  18.499  0.00  0.00    +0.000 A 
ATOM     13  C   UNL     1       0.275  12.488  18.842  0.00  0.00    +0.000 A 
ATOM     14  C   UNL     1       1.153  11.419  19.019  0.00  0.00    +0.000 A 
ATOM     15  C   UNL     1       0.722  10.106  18.836  0.00  0.00    +0.000 A 
ATOM     16  C   UNL     1      -0.615   9.894  18.480  0.00  0.00    +0.000 A 
BRANCH  11  18
ATOM     17  C   UNL     1      -3.204   9.928  16.636  0.00  0.00    +0.000 C 
ATOM     18  C   UNL     1      -2.995  10.680  17.966  0.00  0.00    +0.000 C 
BRANCH  18  19
ATOM     19  C   UNL     1      -3.874  11.951  18.023  0.00  0.00    +0.000 C 
BRANCH  19  20
ATOM     20  C   UNL     1      -4.728  12.029  19.247  0.00  0.00    +0.000 A 
ATOM     21  N   UNL     1      -4.392  12.556  20.408  0.00  0.00    +0.000 NA
ATOM     22  N   UNL     1      -5.430  12.363  21.286  0.00  0.00    +0.000 NA
ATOM     23  C   UNL     1      -6.391  11.752  20.635  0.00  0.00    +0.000 A 
ATOM     24  N   UNL     1      -6.011  11.559  19.343  0.00  0.00    +0.000 N 
ATOM     25  C   UNL     1      -6.826  11.012  18.295  0.00  0.00    +0.000 C 
ENDBRANCH  19  20
ENDBRANCH  18  19
ENDBRANCH  11  18
ENDBRANCH   1  15
BRANCH   6  26
ATOM     26  C   UNL     1       3.185   3.323  20.172  0.00  0.00    +0.000 C 
ATOM     27  C   UNL     1       2.288   2.207  19.677  0.00  0.00    +0.000 C 
ATOM     28  C   UNL     1       3.733   2.227  19.288  0.00  0.00    +0.000 C 
ENDBRANCH   6  26
BRANCH   8  29
ATOM     29  C   UNL     1       4.423   6.594  16.632  0.00  0.00    +0.000 C 
ATOM     30  C   UNL     1       5.927   6.691  16.586  0.00  0.00    +0.000 C 
ATOM     31  C   UNL     1       5.247   5.513  15.961  0.00  0.00    +0.000 C 
ENDBRANCH   8  29
TORSDOF 6
ENDMDL
MODEL 9
REMARK VINA RESULT:      -8.3      2.029      2.955
REMARK  Name = 
REMARK  8 active torsions:
REMARK  status: ('A' for Active; 'I' for Inactive)
REMARK    1  A    between atoms: C_1  and  C_2
REMARK    2  A    between atoms: C_2  and  C_3
REMARK    3  A    between atoms: C_2  and  C_10
REMARK    4  A    between atoms: C_3  and  C_4
REMARK    5  A    between atoms: N_8  and  C_9
REMARK    6  A    between atoms: C_14  and  N_15
REMARK    7  A    between atoms: C_20  and  C_21
REMARK    8  A    between atoms: C_25  and  C_26
REMARK                            x       y       z     vdW  Elec       q    Type
REMARK                         _______ _______ _______ _____ _____    ______ ____
ROOT
ATOM      1  N   UNL     1       1.297   8.182  19.954  0.00  0.00    +0.000 N 
ATOM      2  C   UNL     1       1.368   6.807  20.431  0.00  0.00    +0.000 C 
ATOM      3  C   UNL     1       2.430   6.228  19.581  0.00  0.00    +0.000 A 
ATOM      4  C   UNL     1       2.794   7.118  18.584  0.00  0.00    +0.000 A 
ATOM      5  C   UNL     1       3.790   6.868  17.678  0.00  0.00    +0.000 A 
ATOM      6  C   UNL     1       4.442   5.656  17.818  0.00  0.00    +0.000 A 
ATOM      7  N   UNL     1       4.087   4.751  18.795  0.00  0.00    +0.000 NA
ATOM      8  C   UNL     1       3.088   5.025  19.679  0.00  0.00    +0.000 A 
ATOM      9  C   UNL     1       2.041   8.357  18.790  0.00  0.00    +0.000 C 
ATOM     10  O   UNL     1       2.169   9.309  18.044  0.00  0.00    +0.000 OA
ENDROOT
BRANCH   1  15
ATOM     11  C   UNL     1      -0.568  11.325  20.771  0.00  0.00    +0.000 A 
ATOM     12  C   UNL     1      -0.639  11.216  22.168  0.00  0.00    +0.000 A 
ATOM     13  C   UNL     1      -0.057  10.133  22.826  0.00  0.00    +0.000 A 
ATOM     14  C   UNL     1       0.594   9.135  22.101  0.00  0.00    +0.000 A 
ATOM     15  C   UNL     1       0.695   9.215  20.713  0.00  0.00    +0.000 A 
ATOM     16  C   UNL     1       0.116  10.316  20.071  0.00  0.00    +0.000 A 
BRANCH  11  18
ATOM     17  C   UNL     1      -2.754  12.380  19.889  0.00  0.00    +0.000 C 
ATOM     18  C   UNL     1      -1.223  12.496  20.036  0.00  0.00    +0.000 C 
BRANCH  18  19
ATOM     19  C   UNL     1      -0.561  12.802  18.673  0.00  0.00    +0.000 C 
BRANCH  19  20
ATOM     20  C   UNL     1       0.368  13.972  18.712  0.00  0.00    +0.000 A 
ATOM     21  N   UNL     1       0.045  15.223  18.974  0.00  0.00    +0.000 NA
ATOM     22  N   UNL     1       1.171  15.997  18.840  0.00  0.00    +0.000 NA
ATOM     23  C   UNL     1       2.165  15.199  18.532  0.00  0.00    +0.000 A 
ATOM     24  N   UNL     1       1.717  13.915  18.481  0.00  0.00    +0.000 N 
ATOM     25  C   UNL     1       2.523  12.745  18.271  0.00  0.00    +0.000 C 
ENDBRANCH  19  20
ENDBRANCH  18  19
ENDBRANCH  11  18
ENDBRANCH   1  15
BRANCH   6  26
ATOM     26  C   UNL     1       5.572   5.291  16.881  0.00  0.00    +0.000 C 
ATOM     27  C   UNL     1       5.414   4.215  15.827  0.00  0.00    +0.000 C 
ATOM     28  C   UNL     1       5.466   5.654  15.418  0.00  0.00    +0.000 C 
ENDBRANCH   6  26
BRANCH   8  29
ATOM     29  C   UNL     1       2.718   4.038  20.760  0.00  0.00    +0.000 C 
ATOM     30  C   UNL     1       1.323   3.480  20.874  0.00  0.00    +0.000 C 
ATOM     31  C   UNL     1       2.429   2.599  20.382  0.00  0.00    +0.000 C 
ENDBRANCH   8  29
TORSDOF 6
ENDMDL
