MODEL 1
REMARK VINA RESULT:      -8.4      0.000      0.000
REMARK  Name = 
REMARK  7 active torsions:
REMARK  status: ('A' for Active; 'I' for Inactive)
REMARK    1  A    between atoms: C_1  and  C_2
REMARK    2  A    between atoms: C_2  and  C_3
REMARK    3  A    between atoms: C_2  and  C_10
REMARK    4  A    between atoms: C_3  and  C_4
REMARK    5  A    between atoms: N_8  and  C_9
REMARK    6  A    between atoms: C_14  and  C_15
REMARK    7  A    between atoms: C_17  and  C_18
REMARK                            x       y       z     vdW  Elec       q    Type
REMARK                         _______ _______ _______ _____ _____    ______ ____
ROOT
ATOM      1  C   UNL     1       2.372   7.393  19.123  0.00  0.00    +0.000 A 
ATOM      2  C   UNL     1       2.318   8.013  17.866  0.00  0.00    +0.000 A 
ATOM      3  C   UNL     1       1.667   9.232  17.686  0.00  0.00    +0.000 A 
ATOM      4  C   UNL     1       1.047   9.859  18.763  0.00  0.00    +0.000 A 
ATOM      5  C   UNL     1       1.069   9.264  20.026  0.00  0.00    +0.000 A 
ATOM      6  C   UNL     1       1.726   8.033  20.192  0.00  0.00    +0.000 A 
ENDROOT
BRANCH   5   7
ATOM      7  C   UNL     1       0.446   9.897  21.177  0.00  0.00    +0.000 A 
ATOM      8  C   UNL     1      -0.392  10.990  21.261  0.00  0.00    +0.000 A 
ATOM      9  C   UNL     1      -0.766  11.106  22.629  0.00  0.00    +0.000 A 
ATOM     10  N   UNL     1      -0.167  10.141  23.354  0.00  0.00    +0.000 NA
ATOM     11  N   UNL     1       0.544   9.439  22.462  0.00  0.00    +0.000 N 
ATOM     12  H   UNL     1       1.057   8.630  22.795  0.00  0.00    +0.000 HD
BRANCH   9  13
ATOM     13  C   UNL     1      -1.687  12.106  23.182  0.00  0.00    +0.000 A 
ATOM     14  N   UNL     1      -2.931  11.680  23.505  0.00  0.00    +0.000 NA
ATOM     15  C   UNL     1      -3.749  12.602  24.044  0.00  0.00    +0.000 A 
ATOM     16  C   UNL     1      -3.374  13.902  24.274  0.00  0.00    +0.000 A 
ATOM     17  C   UNL     1      -2.089  14.230  23.912  0.00  0.00    +0.000 A 
ATOM     18  N   UNL     1      -1.228  13.356  23.367  0.00  0.00    +0.000 NA
ENDBRANCH   9  13
ENDBRANCH   5   7
BRANCH   1  20
ATOM     19  C   UNL     1       4.454   6.013  18.614  0.00  0.00    +0.000 C 
ATOM     20  C   UNL     1       3.121   6.082  19.375  0.00  0.00    +0.000 C 
BRANCH  20  21
ATOM     21  C   UNL     1       2.201   4.881  19.069  0.00  0.00    +0.000 C 
BRANCH  21  22
ATOM     22  C   UNL     1       2.137   3.852  20.146  0.00  0.00    +0.000 A 
ATOM     23  N   UNL     1       1.210   3.767  21.080  0.00  0.00    +0.000 NA
ATOM     24  N   UNL     1       1.580   2.785  21.967  0.00  0.00    +0.000 NA
ATOM     25  C   UNL     1       2.721   2.286  21.554  0.00  0.00    +0.000 A 
ATOM     26  N   UNL     1       3.082   2.887  20.388  0.00  0.00    +0.000 N 
ATOM     27  C   UNL     1       4.230   2.557  19.588  0.00  0.00    +0.000 C 
ENDBRANCH  21  22
ENDBRANCH  20  21
ENDBRANCH   1  20
TORSDOF 5
ENDMDL
MODEL 2
REMARK VINA RESULT:      -8.4      1.068      1.416
REMARK  Name = 
REMARK  7 active torsions:
REMARK  status: ('A' for Active; 'I' for Inactive)
REMARK    1  A    between atoms: C_1  and  C_2
REMARK    2  A    between atoms: C_2  and  C_3
REMARK    3  A    between atoms: C_2  and  C_10
REMARK    4  A    between atoms: C_3  and  C_4
REMARK    5  A    between atoms: N_8  and  C_9
REMARK    6  A    between atoms: C_14  and  C_15
REMARK    7  A    between atoms: C_17  and  C_18
REMARK                            x       y       z     vdW  Elec       q    Type
REMARK                         _______ _______ _______ _____ _____    ______ ____
ROOT
ATOM      1  C   UNL     1       2.293   7.432  19.266  0.00  0.00    +0.000 A 
ATOM      2  C   UNL     1       2.262   8.044  18.005  0.00  0.00    +0.000 A 
ATOM      3  C   UNL     1       1.621   9.266  17.809  0.00  0.00    +0.000 A 
ATOM      4  C   UNL     1       0.988   9.903  18.872  0.00  0.00    +0.000 A 
ATOM      5  C   UNL     1       0.989   9.316  20.139  0.00  0.00    +0.000 A 
ATOM      6  C   UNL     1       1.635   8.083  20.322  0.00  0.00    +0.000 A 
ENDROOT
BRANCH   5   7
ATOM      7  C   UNL     1       0.352   9.960  21.276  0.00  0.00    +0.000 A 
ATOM      8  C   UNL     1      -0.486  11.054  21.341  0.00  0.00    +0.000 A 
ATOM      9  C   UNL     1      -0.876  11.183  22.704  0.00  0.00    +0.000 A 
ATOM     10  N   UNL     1      -0.286  10.224  23.444  0.00  0.00    +0.000 NA
ATOM     11  N   UNL     1       0.435   9.513  22.567  0.00  0.00    +0.000 N 
ATOM     12  H   UNL     1       0.944   8.708  22.913  0.00  0.00    +0.000 HD
BRANCH   9  13
ATOM     13  C   UNL     1      -1.803  12.188  23.237  0.00  0.00    +0.000 A 
ATOM     14  N   UNL     1      -3.051  11.766  23.548  0.00  0.00    +0.000 NA
ATOM     15  C   UNL     1      -3.875  12.693  24.069  0.00  0.00    +0.000 A 
ATOM     16  C   UNL     1      -3.501  13.995  24.292  0.00  0.00    +0.000 A 
ATOM     17  C   UNL     1      -2.212  14.319  23.944  0.00  0.00    +0.000 A 
ATOM     18  N   UNL     1      -1.345  13.440  23.416  0.00  0.00    +0.000 NA
ENDBRANCH   9  13
ENDBRANCH   5   7
BRANCH   1  20
ATOM     19  C   UNL     1       4.119   5.831  18.492  0.00  0.00    +0.000 C 
ATOM     20  C   UNL     1       3.031   6.119  19.538  0.00  0.00    +0.000 C 
BRANCH  20  21
ATOM     21  C   UNL     1       2.018   4.962  19.671  0.00  0.00    +0.000 C 
BRANCH  21  22
ATOM     22  C   UNL     1       2.305   3.776  18.813  0.00  0.00    +0.000 A 
ATOM     23  N   UNL     1       1.784   3.536  17.626  0.00  0.00    +0.000 NA
ATOM     24  N   UNL     1       2.179   2.282  17.226  0.00  0.00    +0.000 NA
ATOM     25  C   UNL     1       2.937   1.785  18.174  0.00  0.00    +0.000 A 
ATOM     26  N   UNL     1       3.087   2.706  19.164  0.00  0.00    +0.000 N 
ATOM     27  C   UNL     1       3.910   2.561  20.335  0.00  0.00    +0.000 C 
ENDBRANCH  21  22
ENDBRANCH  20  21
ENDBRANCH   1  20
TORSDOF 5
ENDMDL
MODEL 3
REMARK VINA RESULT:      -8.3      0.964      1.433
REMARK  Name = 
REMARK  7 active torsions:
REMARK  status: ('A' for Active; 'I' for Inactive)
REMARK    1  A    between atoms: C_1  and  C_2
REMARK    2  A    between atoms: C_2  and  C_3
REMARK    3  A    between atoms: C_2  and  C_10
REMARK    4  A    between atoms: C_3  and  C_4
REMARK    5  A    between atoms: N_8  and  C_9
REMARK    6  A    between atoms: C_14  and  C_15
REMARK    7  A    between atoms: C_17  and  C_18
REMARK                            x       y       z     vdW  Elec       q    Type
REMARK                         _______ _______ _______ _____ _____    ______ ____
ROOT
ATOM      1  C   UNL     1       2.368   7.464  19.188  0.00  0.00    +0.000 A 
ATOM      2  C   UNL     1       2.235   8.038  17.916  0.00  0.00    +0.000 A 
ATOM      3  C   UNL     1       1.503   9.209  17.723  0.00  0.00    +0.000 A 
ATOM      4  C   UNL     1       0.881   9.831  18.802  0.00  0.00    +0.000 A 
ATOM      5  C   UNL     1       0.982   9.279  20.080  0.00  0.00    +0.000 A 
ATOM      6  C   UNL     1       1.719   8.097  20.260  0.00  0.00    +0.000 A 
ENDROOT
BRANCH   5   7
ATOM      7  C   UNL     1       0.359   9.910  21.233  0.00  0.00    +0.000 A 
ATOM      8  C   UNL     1      -0.456  11.020  21.324  0.00  0.00    +0.000 A 
ATOM      9  C   UNL     1      -0.843  11.125  22.688  0.00  0.00    +0.000 A 
ATOM     10  N   UNL     1      -0.275  10.136  23.406  0.00  0.00    +0.000 NA
ATOM     11  N   UNL     1       0.431   9.431  22.512  0.00  0.00    +0.000 N 
ATOM     12  H   UNL     1       0.922   8.607  22.839  0.00  0.00    +0.000 HD
BRANCH   9  13
ATOM     13  C   UNL     1      -1.749  12.136  23.245  0.00  0.00    +0.000 A 
ATOM     14  N   UNL     1      -1.272  13.400  23.340  0.00  0.00    +0.000 NA
ATOM     15  C   UNL     1      -2.130  14.320  23.819  0.00  0.00    +0.000 A 
ATOM     16  C   UNL     1      -3.419  14.030  24.190  0.00  0.00    +0.000 A 
ATOM     17  C   UNL     1      -3.803  12.717  24.052  0.00  0.00    +0.000 A 
ATOM     18  N   UNL     1      -2.993  11.754  23.585  0.00  0.00    +0.000 NA
ENDBRANCH   9  13
ENDBRANCH   5   7
BRANCH   1  20
ATOM     19  C   UNL     1       3.807   5.624  18.168  0.00  0.00    +0.000 C 
ATOM     20  C   UNL     1       3.206   6.210  19.454  0.00  0.00    +0.000 C 
BRANCH  20  21
ATOM     21  C   UNL     1       2.373   5.177  20.243  0.00  0.00    +0.000 C 
BRANCH  21  22
ATOM     22  C   UNL     1       2.059   3.925  19.495  0.00  0.00    +0.000 A 
ATOM     23  N   UNL     1       0.997   3.720  18.741  0.00  0.00    +0.000 NA
ATOM     24  N   UNL     1       0.994   2.403  18.349  0.00  0.00    +0.000 NA
ATOM     25  C   UNL     1       2.056   1.833  18.867  0.00  0.00    +0.000 A 
ATOM     26  N   UNL     1       2.781   2.759  19.549  0.00  0.00    +0.000 N 
ATOM     27  C   UNL     1       4.050   2.536  20.188  0.00  0.00    +0.000 C 
ENDBRANCH  21  22
ENDBRANCH  20  21
ENDBRANCH   1  20
TORSDOF 5
ENDMDL
MODEL 4
REMARK VINA RESULT:      -8.2      3.441      5.539
REMARK  Name = 
REMARK  7 active torsions:
REMARK  status: ('A' for Active; 'I' for Inactive)
REMARK    1  A    between atoms: C_1  and  C_2
REMARK    2  A    between atoms: C_2  and  C_3
REMARK    3  A    between atoms: C_2  and  C_10
REMARK    4  A    between atoms: C_3  and  C_4
REMARK    5  A    between atoms: N_8  and  C_9
REMARK    6  A    between atoms: C_14  and  C_15
REMARK    7  A    between atoms: C_17  and  C_18
REMARK                            x       y       z     vdW  Elec       q    Type
REMARK                         _______ _______ _______ _____ _____    ______ ____
ROOT
ATOM      1  C   UNL     1       4.402   4.712  16.799  0.00  0.00    +0.000 A 
ATOM      2  C   UNL     1       3.621   3.547  16.789  0.00  0.00    +0.000 A 
ATOM      3  C   UNL     1       2.425   3.470  17.501  0.00  0.00    +0.000 A 
ATOM      4  C   UNL     1       1.985   4.559  18.247  0.00  0.00    +0.000 A 
ATOM      5  C   UNL     1       2.744   5.730  18.290  0.00  0.00    +0.000 A 
ATOM      6  C   UNL     1       3.948   5.793  17.572  0.00  0.00    +0.000 A 
ENDROOT
BRANCH   5   7
ATOM      7  C   UNL     1       2.307   6.892  19.047  0.00  0.00    +0.000 A 
ATOM      8  C   UNL     1       1.981   8.168  18.634  0.00  0.00    +0.000 A 
ATOM      9  C   UNL     1       1.537   8.866  19.791  0.00  0.00    +0.000 A 
ATOM     10  N   UNL     1       1.606   8.060  20.869  0.00  0.00    +0.000 NA
ATOM     11  N   UNL     1       2.065   6.895  20.394  0.00  0.00    +0.000 N 
ATOM     12  H   UNL     1       2.164   6.124  21.043  0.00  0.00    +0.000 HD
BRANCH   9  13
ATOM     13  C   UNL     1       1.045  10.248  19.821  0.00  0.00    +0.000 A 
ATOM     14  N   UNL     1       1.169  10.967  18.680  0.00  0.00    +0.000 NA
ATOM     15  C   UNL     1       0.680  12.220  18.716  0.00  0.00    +0.000 A 
ATOM     16  C   UNL     1       0.079  12.764  19.823  0.00  0.00    +0.000 A 
ATOM     17  C   UNL     1       0.002  11.949  20.927  0.00  0.00    +0.000 A 
ATOM     18  N   UNL     1       0.475  10.693  20.954  0.00  0.00    +0.000 NA
ENDBRANCH   9  13
ENDBRANCH   5   7
BRANCH   1  20
ATOM     19  C   UNL     1       5.810   3.804  14.878  0.00  0.00    +0.000 C 
ATOM     20  C   UNL     1       5.693   4.858  15.989  0.00  0.00    +0.000 C 
BRANCH  20  21
ATOM     21  C   UNL     1       6.913   4.857  16.936  0.00  0.00    +0.000 C 
BRANCH  21  22
ATOM     22  C   UNL     1       7.330   6.206  17.419  0.00  0.00    +0.000 A 
ATOM     23  N   UNL     1       7.325   7.317  16.710  0.00  0.00    +0.000 NA
ATOM     24  N   UNL     1       7.915   8.308  17.456  0.00  0.00    +0.000 NA
ATOM     25  C   UNL     1       8.263   7.784  18.607  0.00  0.00    +0.000 A 
ATOM     26  N   UNL     1       7.869   6.483  18.650  0.00  0.00    +0.000 N 
ATOM     27  C   UNL     1       8.001   5.596  19.774  0.00  0.00    +0.000 C 
ENDBRANCH  21  22
ENDBRANCH  20  21
ENDBRANCH   1  20
TORSDOF 5
ENDMDL
MODEL 5
REMARK VINA RESULT:      -8.2      3.308      5.497
REMARK  Name = 
REMARK  7 active torsions:
REMARK  status: ('A' for Active; 'I' for Inactive)
REMARK    1  A    between atoms: C_1  and  C_2
REMARK    2  A    between atoms: C_2  and  C_3
REMARK    3  A    between atoms: C_2  and  C_10
REMARK    4  A    between atoms: C_3  and  C_4
REMARK    5  A    between atoms: N_8  and  C_9
REMARK    6  A    between atoms: C_14  and  C_15
REMARK    7  A    between atoms: C_17  and  C_18
REMARK                            x       y       z     vdW  Elec       q    Type
REMARK                         _______ _______ _______ _____ _____    ______ ____
ROOT
ATOM      1  C   UNL     1       4.816   4.870  16.580  0.00  0.00    +0.000 A 
ATOM      2  C   UNL     1       4.468   3.578  17.001  0.00  0.00    +0.000 A 
ATOM      3  C   UNL     1       3.516   3.374  17.999  0.00  0.00    +0.000 A 
ATOM      4  C   UNL     1       2.893   4.461  18.605  0.00  0.00    +0.000 A 
ATOM      5  C   UNL     1       3.224   5.761  18.219  0.00  0.00    +0.000 A 
ATOM      6  C   UNL     1       4.188   5.953  17.215  0.00  0.00    +0.000 A 
ENDROOT
BRANCH   5   7
ATOM      7  C   UNL     1       2.582   6.919  18.819  0.00  0.00    +0.000 A 
ATOM      8  C   UNL     1       2.116   8.087  18.252  0.00  0.00    +0.000 A 
ATOM      9  C   UNL     1       1.502   8.828  19.300  0.00  0.00    +0.000 A 
ATOM     10  N   UNL     1       1.605   8.153  20.462  0.00  0.00    +0.000 NA
ATOM     11  N   UNL     1       2.251   7.024  20.142  0.00  0.00    +0.000 N 
ATOM     12  H   UNL     1       2.409   6.343  20.877  0.00  0.00    +0.000 HD
BRANCH   9  13
ATOM     13  C   UNL     1       0.826  10.122  19.151  0.00  0.00    +0.000 A 
ATOM     14  N   UNL     1      -0.486  10.169  19.479  0.00  0.00    +0.000 NA
ATOM     15  C   UNL     1      -1.078  11.373  19.370  0.00  0.00    +0.000 A 
ATOM     16  C   UNL     1      -0.419  12.505  18.963  0.00  0.00    +0.000 A 
ATOM     17  C   UNL     1       0.912  12.348  18.656  0.00  0.00    +0.000 A 
ATOM     18  N   UNL     1       1.557  11.174  18.740  0.00  0.00    +0.000 NA
ENDBRANCH   9  13
ENDBRANCH   5   7
BRANCH   1  20
ATOM     19  C   UNL     1       5.506   4.322  14.188  0.00  0.00    +0.000 C 
ATOM     20  C   UNL     1       5.815   5.139  15.452  0.00  0.00    +0.000 C 
BRANCH  20  21
ATOM     21  C   UNL     1       7.256   4.920  15.960  0.00  0.00    +0.000 C 
BRANCH  21  22
ATOM     22  C   UNL     1       7.468   5.251  17.399  0.00  0.00    +0.000 A 
ATOM     23  N   UNL     1       7.495   4.388  18.395  0.00  0.00    +0.000 NA
ATOM     24  N   UNL     1       7.564   5.091  19.574  0.00  0.00    +0.000 NA
ATOM     25  C   UNL     1       7.583   6.367  19.273  0.00  0.00    +0.000 A 
ATOM     26  N   UNL     1       7.578   6.515  17.921  0.00  0.00    +0.000 N 
ATOM     27  C   UNL     1       7.673   7.759  17.206  0.00  0.00    +0.000 C 
ENDBRANCH  21  22
ENDBRANCH  20  21
ENDBRANCH   1  20
TORSDOF 5
ENDMDL
MODEL 6
REMARK VINA RESULT:      -8.1      1.925      2.734
REMARK  Name = 
REMARK  7 active torsions:
REMARK  status: ('A' for Active; 'I' for Inactive)
REMARK    1  A    between atoms: C_1  and  C_2
REMARK    2  A    between atoms: C_2  and  C_3
REMARK    3  A    between atoms: C_2  and  C_10
REMARK    4  A    between atoms: C_3  and  C_4
REMARK    5  A    between atoms: N_8  and  C_9
REMARK    6  A    between atoms: C_14  and  C_15
REMARK    7  A    between atoms: C_17  and  C_18
REMARK                            x       y       z     vdW  Elec       q    Type
REMARK                         _______ _______ _______ _____ _____    ______ ____
ROOT
ATOM      1  C   UNL     1       2.399   6.960  19.209  0.00  0.00    +0.000 A 
ATOM      2  C   UNL     1       2.541   7.625  17.983  0.00  0.00    +0.000 A 
ATOM      3  C   UNL     1       2.060   8.921  17.802  0.00  0.00    +0.000 A 
ATOM      4  C   UNL     1       1.418   9.581  18.845  0.00  0.00    +0.000 A 
ATOM      5  C   UNL     1       1.248   8.944  20.076  0.00  0.00    +0.000 A 
ATOM      6  C   UNL     1       1.734   7.637  20.244  0.00  0.00    +0.000 A 
ENDROOT
BRANCH   5   7
ATOM      7  C   UNL     1       0.596   9.609  21.193  0.00  0.00    +0.000 A 
ATOM      8  C   UNL     1      -0.096  10.800  21.254  0.00  0.00    +0.000 A 
ATOM      9  C   UNL     1      -0.591  10.911  22.584  0.00  0.00    +0.000 A 
ATOM     10  N   UNL     1      -0.202   9.845  23.310  0.00  0.00    +0.000 NA
ATOM     11  N   UNL     1       0.500   9.089  22.455  0.00  0.00    +0.000 N 
ATOM     12  H   UNL     1       0.865   8.206  22.791  0.00  0.00    +0.000 HD
BRANCH   9  13
ATOM     13  C   UNL     1      -1.427  12.002  23.097  0.00  0.00    +0.000 A 
ATOM     14  N   UNL     1      -2.715  11.703  23.388  0.00  0.00    +0.000 NA
ATOM     15  C   UNL     1      -3.454  12.708  23.892  0.00  0.00    +0.000 A 
ATOM     16  C   UNL     1      -2.961  13.969  24.118  0.00  0.00    +0.000 A 
ATOM     17  C   UNL     1      -1.641  14.166  23.790  0.00  0.00    +0.000 A 
ATOM     18  N   UNL     1      -0.854  13.205  23.280  0.00  0.00    +0.000 NA
ENDBRANCH   9  13
ENDBRANCH   5   7
BRANCH   1  20
ATOM     19  C   UNL     1       2.399   4.932  20.754  0.00  0.00    +0.000 C 
ATOM     20  C   UNL     1       2.959   5.559  19.468  0.00  0.00    +0.000 C 
BRANCH  20  21
ATOM     21  C   UNL     1       4.503   5.597  19.452  0.00  0.00    +0.000 C 
BRANCH  21  22
ATOM     22  C   UNL     1       5.128   5.065  18.206  0.00  0.00    +0.000 A 
ATOM     23  N   UNL     1       4.513   4.374  17.267  0.00  0.00    +0.000 NA
ATOM     24  N   UNL     1       5.454   3.941  16.364  0.00  0.00    +0.000 NA
ATOM     25  C   UNL     1       6.622   4.381  16.767  0.00  0.00    +0.000 A 
ATOM     26  N   UNL     1       6.460   5.134  17.888  0.00  0.00    +0.000 N 
ATOM     27  C   UNL     1       7.496   5.852  18.580  0.00  0.00    +0.000 C 
ENDBRANCH  21  22
ENDBRANCH  20  21
ENDBRANCH   1  20
TORSDOF 5
ENDMDL
MODEL 7
REMARK VINA RESULT:      -8.1      3.408      5.267
REMARK  Name = 
REMARK  7 active torsions:
REMARK  status: ('A' for Active; 'I' for Inactive)
REMARK    1  A    between atoms: C_1  and  C_2
REMARK    2  A    between atoms: C_2  and  C_3
REMARK    3  A    between atoms: C_2  and  C_10
REMARK    4  A    between atoms: C_3  and  C_4
REMARK    5  A    between atoms: N_8  and  C_9
REMARK    6  A    between atoms: C_14  and  C_15
REMARK    7  A    between atoms: C_17  and  C_18
REMARK                            x       y       z     vdW  Elec       q    Type
REMARK                         _______ _______ _______ _____ _____    ______ ____
ROOT
ATOM      1  C   UNL     1       4.611   5.316  17.055  0.00  0.00    +0.000 A 
ATOM      2  C   UNL     1       4.289   4.074  17.619  0.00  0.00    +0.000 A 
ATOM      3  C   UNL     1       3.300   3.956  18.594  0.00  0.00    +0.000 A 
ATOM      4  C   UNL     1       2.613   5.083  19.034  0.00  0.00    +0.000 A 
ATOM      5  C   UNL     1       2.917   6.338  18.503  0.00  0.00    +0.000 A 
ATOM      6  C   UNL     1       3.918   6.444  17.524  0.00  0.00    +0.000 A 
ENDROOT
BRANCH   5   7
ATOM      7  C   UNL     1       2.209   7.535  18.927  0.00  0.00    +0.000 A 
ATOM      8  C   UNL     1       1.563   7.831  20.110  0.00  0.00    +0.000 A 
ATOM      9  C   UNL     1       1.126   9.181  20.005  0.00  0.00    +0.000 A 
ATOM     10  N   UNL     1       1.472   9.684  18.804  0.00  0.00    +0.000 NA
ATOM     11  N   UNL     1       2.115   8.683  18.188  0.00  0.00    +0.000 N 
ATOM     12  H   UNL     1       2.497   8.860  17.266  0.00  0.00    +0.000 HD
BRANCH   9  13
ATOM     13  C   UNL     1       0.427   9.937  21.050  0.00  0.00    +0.000 A 
ATOM     14  N   UNL     1       0.128  11.229  20.775  0.00  0.00    +0.000 NA
ATOM     15  C   UNL     1      -0.544  11.895  21.731  0.00  0.00    +0.000 A 
ATOM     16  C   UNL     1      -0.926  11.327  22.920  0.00  0.00    +0.000 A 
ATOM     17  C   UNL     1      -0.575  10.010  23.099  0.00  0.00    +0.000 A 
ATOM     18  N   UNL     1       0.099   9.295  22.184  0.00  0.00    +0.000 NA
ENDBRANCH   9  13
ENDBRANCH   5   7
BRANCH   1  20
ATOM     19  C   UNL     1       5.451   4.480  14.798  0.00  0.00    +0.000 C 
ATOM     20  C   UNL     1       5.651   5.484  15.944  0.00  0.00    +0.000 C 
BRANCH  20  21
ATOM     21  C   UNL     1       7.074   5.426  16.540  0.00  0.00    +0.000 C 
BRANCH  21  22
ATOM     22  C   UNL     1       7.473   6.630  17.324  0.00  0.00    +0.000 A 
ATOM     23  N   UNL     1       7.517   7.868  16.872  0.00  0.00    +0.000 NA
ATOM     24  N   UNL     1       8.071   8.664  17.845  0.00  0.00    +0.000 NA
ATOM     25  C   UNL     1       8.348   7.898  18.873  0.00  0.00    +0.000 A 
ATOM     26  N   UNL     1       7.943   6.626  18.612  0.00  0.00    +0.000 N 
ATOM     27  C   UNL     1       8.004   5.516  19.525  0.00  0.00    +0.000 C 
ENDBRANCH  21  22
ENDBRANCH  20  21
ENDBRANCH   1  20
TORSDOF 5
ENDMDL
MODEL 8
REMARK VINA RESULT:      -8.0      4.048     10.281
REMARK  Name = 
REMARK  7 active torsions:
REMARK  status: ('A' for Active; 'I' for Inactive)
REMARK    1  A    between atoms: C_1  and  C_2
REMARK    2  A    between atoms: C_2  and  C_3
REMARK    3  A    between atoms: C_2  and  C_10
REMARK    4  A    between atoms: C_3  and  C_4
REMARK    5  A    between atoms: N_8  and  C_9
REMARK    6  A    between atoms: C_14  and  C_15
REMARK    7  A    between atoms: C_17  and  C_18
REMARK                            x       y       z     vdW  Elec       q    Type
REMARK                         _______ _______ _______ _____ _____    ______ ____
ROOT
ATOM      1  C   UNL     1       2.294   6.607  19.865  0.00  0.00    +0.000 A 
ATOM      2  C   UNL     1       1.737   5.536  20.579  0.00  0.00    +0.000 A 
ATOM      3  C   UNL     1       2.179   4.228  20.383  0.00  0.00    +0.000 A 
ATOM      4  C   UNL     1       3.186   3.960  19.461  0.00  0.00    +0.000 A 
ATOM      5  C   UNL     1       3.754   5.001  18.725  0.00  0.00    +0.000 A 
ATOM      6  C   UNL     1       3.298   6.313  18.928  0.00  0.00    +0.000 A 
ENDROOT
BRANCH   5   7
ATOM      7  C   UNL     1       4.820   4.761  17.765  0.00  0.00    +0.000 A 
ATOM      8  C   UNL     1       4.808   4.755  16.385  0.00  0.00    +0.000 A 
ATOM      9  C   UNL     1       6.153   4.549  15.971  0.00  0.00    +0.000 A 
ATOM     10  N   UNL     1       6.951   4.413  17.048  0.00  0.00    +0.000 NA
ATOM     11  N   UNL     1       6.129   4.546  18.098  0.00  0.00    +0.000 N 
ATOM     12  H   UNL     1       6.535   4.509  19.026  0.00  0.00    +0.000 HD
BRANCH   9  13
ATOM     13  C   UNL     1       6.624   4.514  14.582  0.00  0.00    +0.000 A 
ATOM     14  N   UNL     1       6.005   3.648  13.746  0.00  0.00    +0.000 NA
ATOM     15  C   UNL     1       6.427   3.657  12.468  0.00  0.00    +0.000 A 
ATOM     16  C   UNL     1       7.417   4.487  12.006  0.00  0.00    +0.000 A 
ATOM     17  C   UNL     1       7.978   5.330  12.935  0.00  0.00    +0.000 A 
ATOM     18  N   UNL     1       7.603   5.364  14.224  0.00  0.00    +0.000 NA
ENDBRANCH   9  13
ENDBRANCH   5   7
BRANCH   1  20
ATOM     19  C   UNL     1       0.768   8.202  21.140  0.00  0.00    +0.000 C 
ATOM     20  C   UNL     1       1.878   8.063  20.087  0.00  0.00    +0.000 C 
BRANCH  20  21
ATOM     21  C   UNL     1       1.500   8.715  18.740  0.00  0.00    +0.000 C 
BRANCH  21  22
ATOM     22  C   UNL     1       0.965  10.103  18.845  0.00  0.00    +0.000 A 
ATOM     23  N   UNL     1       1.546  11.111  19.466  0.00  0.00    +0.000 NA
ATOM     24  N   UNL     1       0.677  12.176  19.468  0.00  0.00    +0.000 NA
ATOM     25  C   UNL     1      -0.413  11.799  18.844  0.00  0.00    +0.000 A 
ATOM     26  N   UNL     1      -0.259  10.526  18.391  0.00  0.00    +0.000 N 
ATOM     27  C   UNL     1      -1.205   9.792  17.594  0.00  0.00    +0.000 C 
ENDBRANCH  21  22
ENDBRANCH  20  21
ENDBRANCH   1  20
TORSDOF 5
ENDMDL
MODEL 9
REMARK VINA RESULT:      -8.0      1.267      1.426
REMARK  Name = 
REMARK  7 active torsions:
REMARK  status: ('A' for Active; 'I' for Inactive)
REMARK    1  A    between atoms: C_1  and  C_2
REMARK    2  A    between atoms: C_2  and  C_3
REMARK    3  A    between atoms: C_2  and  C_10
REMARK    4  A    between atoms: C_3  and  C_4
REMARK    5  A    between atoms: N_8  and  C_9
REMARK    6  A    between atoms: C_14  and  C_15
REMARK    7  A    between atoms: C_17  and  C_18
REMARK                            x       y       z     vdW  Elec       q    Type
REMARK                         _______ _______ _______ _____ _____    ______ ____
ROOT
ATOM      1  C   UNL     1       2.184   7.485  19.022  0.00  0.00    +0.000 A 
ATOM      2  C   UNL     1       2.366   8.236  17.852  0.00  0.00    +0.000 A 
ATOM      3  C   UNL     1       1.928   9.556  17.763  0.00  0.00    +0.000 A 
ATOM      4  C   UNL     1       1.291  10.157  18.844  0.00  0.00    +0.000 A 
ATOM      5  C   UNL     1       1.083   9.435  20.021  0.00  0.00    +0.000 A 
ATOM      6  C   UNL     1       1.525   8.104  20.096  0.00  0.00    +0.000 A 
ENDROOT
BRANCH   5   7
ATOM      7  C   UNL     1       0.435  10.034  21.177  0.00  0.00    +0.000 A 
ATOM      8  C   UNL     1      -0.415  11.117  21.275  0.00  0.00    +0.000 A 
ATOM      9  C   UNL     1      -0.811  11.197  22.639  0.00  0.00    +0.000 A 
ATOM     10  N   UNL     1      -0.215  10.219  23.349  0.00  0.00    +0.000 NA
ATOM     11  N   UNL     1       0.517   9.545  22.452  0.00  0.00    +0.000 N 
ATOM     12  H   UNL     1       1.032   8.734  22.773  0.00  0.00    +0.000 HD
BRANCH   9  13
ATOM     13  C   UNL     1      -1.750  12.174  23.201  0.00  0.00    +0.000 A 
ATOM     14  N   UNL     1      -2.983  11.720  23.530  0.00  0.00    +0.000 NA
ATOM     15  C   UNL     1      -3.817  12.623  24.077  0.00  0.00    +0.000 A 
ATOM     16  C   UNL     1      -3.468  13.930  24.309  0.00  0.00    +0.000 A 
ATOM     17  C   UNL     1      -2.193  14.287  23.941  0.00  0.00    +0.000 A 
ATOM     18  N   UNL     1      -1.317  13.433  23.388  0.00  0.00    +0.000 NA
ENDBRANCH   9  13
ENDBRANCH   5   7
BRANCH   1  20
ATOM     19  C   UNL     1       4.219   5.991  19.375  0.00  0.00    +0.000 C 
ATOM     20  C   UNL     1       2.696   6.052  19.182  0.00  0.00    +0.000 C 
BRANCH  20  21
ATOM     21  C   UNL     1       2.215   5.185  17.999  0.00  0.00    +0.000 C 
BRANCH  21  22
ATOM     22  C   UNL     1       2.452   3.721  18.159  0.00  0.00    +0.000 A 
ATOM     23  N   UNL     1       1.723   2.894  18.883  0.00  0.00    +0.000 NA
ATOM     24  N   UNL     1       2.346   1.669  18.896  0.00  0.00    +0.000 NA
ATOM     25  C   UNL     1       3.437   1.771  18.176  0.00  0.00    +0.000 A 
ATOM     26  N   UNL     1       3.518   3.023  17.651  0.00  0.00    +0.000 N 
ATOM     27  C   UNL     1       4.529   3.495  16.744  0.00  0.00    +0.000 C 
ENDBRANCH  21  22
ENDBRANCH  20  21
ENDBRANCH   1  20
TORSDOF 5
ENDMDL
