MODEL 1
REMARK VINA RESULT:      -9.2      0.000      0.000
REMARK  Name = 
REMARK  6 active torsions:
REMARK  status: ('A' for Active; 'I' for Inactive)
REMARK    1  A    between atoms: C_1  and  N_2
REMARK    2  A    between atoms: C_6  and  C_7
REMARK    3  A    between atoms: C_7  and  C_8
REMARK    4  A    between atoms: C_8  and  C_9
REMARK    5  A    between atoms: C_13  and  N_14
REMARK    6  A    between atoms: C_21  and  C_22
REMARK                            x       y       z     vdW  Elec       q    Type
REMARK                         _______ _______ _______ _____ _____    ______ ____
ROOT
ATOM      1  C   UNL     1       5.391   5.291  18.825  0.00  0.00    +0.000 A 
ATOM      2  C   UNL     1       4.896   4.026  19.175  0.00  0.00    +0.000 A 
ATOM      3  C   UNL     1       3.601   3.856  19.682  0.00  0.00    +0.000 A 
ATOM      4  C   UNL     1       2.736   4.947  19.808  0.00  0.00    +0.000 A 
ATOM      5  C   UNL     1       3.161   6.214  19.424  0.00  0.00    +0.000 A 
ATOM      6  C   UNL     1       4.490   6.357  18.991  0.00  0.00    +0.000 A 
ENDROOT
BRANCH   5   7
ATOM      7  N   UNL     1       2.305   7.341  19.385  0.00  0.00    +0.000 N 
ATOM      8  C   UNL     1       1.560   7.715  20.579  0.00  0.00    +0.000 C 
ATOM      9  C   UNL     1       0.987   9.031  20.231  0.00  0.00    +0.000 A 
ATOM     10  C   UNL     1       1.323   9.369  18.929  0.00  0.00    +0.000 A 
ATOM     11  C   UNL     1       0.908  10.549  18.358  0.00  0.00    +0.000 A 
ATOM     12  C   UNL     1       0.140  11.360  19.168  0.00  0.00    +0.000 A 
ATOM     13  N   UNL     1      -0.199  11.069  20.462  0.00  0.00    +0.000 NA
ATOM     14  C   UNL     1       0.235   9.891  21.004  0.00  0.00    +0.000 A 
ATOM     15  C   UNL     1       2.185   8.304  18.375  0.00  0.00    +0.000 C 
ATOM     16  O   UNL     1       2.664   8.356  17.260  0.00  0.00    +0.000 OA
BRANCH  14  17
ATOM     17  C   UNL     1      -0.090   9.561  22.459  0.00  0.00    +0.000 C 
ATOM     18  F   UNL     1       1.016   9.302  23.215  0.00  0.00    +0.000 F 
ATOM     19  F   UNL     1      -0.738  10.574  23.101  0.00  0.00    +0.000 F 
ATOM     20  F   UNL     1      -0.875   8.455  22.594  0.00  0.00    +0.000 F 
ENDBRANCH  14  17
ENDBRANCH   5   7
BRANCH   1  21
ATOM     21  C   UNL     1       6.879   5.559  18.257  0.00  0.00    +0.000 C 
ATOM     22  C   UNL     1       7.941   5.921  19.330  0.00  0.00    +0.000 C 
ATOM     23  O   UNL     1       8.205   7.205  18.737  0.00  0.00    +0.000 OA
ATOM     24  C   UNL     1       7.204   6.984  17.721  0.00  0.00    +0.000 C 
BRANCH  21  25
ATOM     25  C   UNL     1       7.344   4.422  17.318  0.00  0.00    +0.000 C 
BRANCH  25  31
ATOM     26  C   UNL     1       4.701   3.440  15.884  0.00  0.00    +0.000 C 
ATOM     27  N   UNL     1       5.799   4.154  15.284  0.00  0.00    +0.000 N 
ATOM     28  C   UNL     1       5.880   4.499  13.970  0.00  0.00    +0.000 A 
ATOM     29  N   UNL     1       7.013   5.116  13.752  0.00  0.00    +0.000 NA
ATOM     30  N   UNL     1       7.703   5.158  14.939  0.00  0.00    +0.000 NA
ATOM     31  C   UNL     1       6.962   4.599  15.874  0.00  0.00    +0.000 A 
ENDBRANCH  25  31
ENDBRANCH  21  25
ENDBRANCH   1  21
TORSDOF 5
ENDMDL
MODEL 2
REMARK VINA RESULT:      -8.8      1.635      2.731
REMARK  Name = 
REMARK  6 active torsions:
REMARK  status: ('A' for Active; 'I' for Inactive)
REMARK    1  A    between atoms: C_1  and  N_2
REMARK    2  A    between atoms: C_6  and  C_7
REMARK    3  A    between atoms: C_7  and  C_8
REMARK    4  A    between atoms: C_8  and  C_9
REMARK    5  A    between atoms: C_13  and  N_14
REMARK    6  A    between atoms: C_21  and  C_22
REMARK                            x       y       z     vdW  Elec       q    Type
REMARK                         _______ _______ _______ _____ _____    ______ ____
ROOT
ATOM      1  C   UNL     1       4.588   4.723  17.883  0.00  0.00    +0.000 A 
ATOM      2  C   UNL     1       4.305   3.672  18.768  0.00  0.00    +0.000 A 
ATOM      3  C   UNL     1       3.430   3.837  19.850  0.00  0.00    +0.000 A 
ATOM      4  C   UNL     1       2.767   5.051  20.053  0.00  0.00    +0.000 A 
ATOM      5  C   UNL     1       2.973   6.106  19.173  0.00  0.00    +0.000 A 
ATOM      6  C   UNL     1       3.914   5.928  18.144  0.00  0.00    +0.000 A 
ENDROOT
BRANCH   5   7
ATOM      7  N   UNL     1       2.236   7.314  19.223  0.00  0.00    +0.000 N 
ATOM      8  C   UNL     1       1.540   7.676  20.450  0.00  0.00    +0.000 C 
ATOM      9  C   UNL     1       1.101   9.065  20.203  0.00  0.00    +0.000 A 
ATOM     10  C   UNL     1       1.463   9.458  18.923  0.00  0.00    +0.000 A 
ATOM     11  C   UNL     1       1.168  10.712  18.442  0.00  0.00    +0.000 A 
ATOM     12  C   UNL     1       0.490  11.536  19.316  0.00  0.00    +0.000 A 
ATOM     13  N   UNL     1       0.130  11.190  20.590  0.00  0.00    +0.000 NA
ATOM     14  C   UNL     1       0.445   9.939  21.043  0.00  0.00    +0.000 A 
ATOM     15  C   UNL     1       2.210   8.354  18.285  0.00  0.00    +0.000 C 
ATOM     16  O   UNL     1       2.686   8.436  17.171  0.00  0.00    +0.000 OA
BRANCH  14  17
ATOM     17  C   UNL     1       0.095   9.540  22.475  0.00  0.00    +0.000 C 
ATOM     18  F   UNL     1      -0.773   8.490  22.547  0.00  0.00    +0.000 F 
ATOM     19  F   UNL     1       1.185   9.159  23.201  0.00  0.00    +0.000 F 
ATOM     20  F   UNL     1      -0.504  10.542  23.178  0.00  0.00    +0.000 F 
ENDBRANCH  14  17
ENDBRANCH   5   7
BRANCH   1  21
ATOM     21  C   UNL     1       5.602   4.608  16.631  0.00  0.00    +0.000 C 
ATOM     22  C   UNL     1       5.282   5.543  15.433  0.00  0.00    +0.000 C 
ATOM     23  O   UNL     1       5.100   4.439  14.529  0.00  0.00    +0.000 OA
ATOM     24  C   UNL     1       5.338   3.485  15.586  0.00  0.00    +0.000 C 
BRANCH  21  25
ATOM     25  C   UNL     1       7.077   4.701  17.082  0.00  0.00    +0.000 C 
BRANCH  25  31
ATOM     26  C   UNL     1       8.036   5.686  19.931  0.00  0.00    +0.000 C 
ATOM     27  N   UNL     1       7.943   6.473  18.728  0.00  0.00    +0.000 N 
ATOM     28  C   UNL     1       8.235   7.799  18.638  0.00  0.00    +0.000 A 
ATOM     29  N   UNL     1       8.023   8.209  17.414  0.00  0.00    +0.000 NA
ATOM     30  N   UNL     1       7.560   7.139  16.687  0.00  0.00    +0.000 NA
ATOM     31  C   UNL     1       7.534   6.081  17.472  0.00  0.00    +0.000 A 
ENDBRANCH  25  31
ENDBRANCH  21  25
ENDBRANCH   1  21
TORSDOF 5
ENDMDL
MODEL 3
REMARK VINA RESULT:      -8.7      1.097      1.507
REMARK  Name = 
REMARK  6 active torsions:
REMARK  status: ('A' for Active; 'I' for Inactive)
REMARK    1  A    between atoms: C_1  and  N_2
REMARK    2  A    between atoms: C_6  and  C_7
REMARK    3  A    between atoms: C_7  and  C_8
REMARK    4  A    between atoms: C_8  and  C_9
REMARK    5  A    between atoms: C_13  and  N_14
REMARK    6  A    between atoms: C_21  and  C_22
REMARK                            x       y       z     vdW  Elec       q    Type
REMARK                         _______ _______ _______ _____ _____    ______ ____
ROOT
ATOM      1  C   UNL     1       4.569   4.946  17.603  0.00  0.00    +0.000 A 
ATOM      2  C   UNL     1       3.836   3.766  17.803  0.00  0.00    +0.000 A 
ATOM      3  C   UNL     1       2.582   3.776  18.429  0.00  0.00    +0.000 A 
ATOM      4  C   UNL     1       1.995   4.979  18.831  0.00  0.00    +0.000 A 
ATOM      5  C   UNL     1       2.658   6.180  18.606  0.00  0.00    +0.000 A 
ATOM      6  C   UNL     1       3.945   6.124  18.044  0.00  0.00    +0.000 A 
ENDROOT
BRANCH   5   7
ATOM      7  N   UNL     1       2.074   7.446  18.851  0.00  0.00    +0.000 N 
ATOM      8  C   UNL     1       1.449   7.709  20.139  0.00  0.00    +0.000 C 
ATOM      9  C   UNL     1       1.177   9.160  20.104  0.00  0.00    +0.000 A 
ATOM     10  C   UNL     1       1.561   9.687  18.880  0.00  0.00    +0.000 A 
ATOM     11  C   UNL     1       1.410  11.022  18.590  0.00  0.00    +0.000 A 
ATOM     12  C   UNL     1       0.854  11.788  19.593  0.00  0.00    +0.000 A 
ATOM     13  N   UNL     1       0.478  11.308  20.819  0.00  0.00    +0.000 NA
ATOM     14  C   UNL     1       0.647   9.976  21.081  0.00  0.00    +0.000 A 
ATOM     15  C   UNL     1       2.156   8.605  18.069  0.00  0.00    +0.000 C 
ATOM     16  O   UNL     1       2.619   8.789  16.960  0.00  0.00    +0.000 OA
BRANCH  14  17
ATOM     17  C   UNL     1       0.278   9.421  22.454  0.00  0.00    +0.000 C 
ATOM     18  F   UNL     1      -0.289  10.350  23.279  0.00  0.00    +0.000 F 
ATOM     19  F   UNL     1      -0.621   8.398  22.390  0.00  0.00    +0.000 F 
ATOM     20  F   UNL     1       1.352   8.946  23.145  0.00  0.00    +0.000 F 
ENDBRANCH  14  17
ENDBRANCH   5   7
BRANCH   1  21
ATOM     21  C   UNL     1       6.026   5.002  16.910  0.00  0.00    +0.000 C 
ATOM     22  C   UNL     1       7.227   4.843  17.882  0.00  0.00    +0.000 C 
ATOM     23  O   UNL     1       7.757   6.139  17.551  0.00  0.00    +0.000 OA
ATOM     24  C   UNL     1       6.654   6.404  16.657  0.00  0.00    +0.000 C 
BRANCH  21  25
ATOM     25  C   UNL     1       6.116   4.054  15.692  0.00  0.00    +0.000 C 
BRANCH  25  31
ATOM     26  C   UNL     1       5.670   3.349  12.641  0.00  0.00    +0.000 C 
ATOM     27  N   UNL     1       6.621   4.285  13.184  0.00  0.00    +0.000 N 
ATOM     28  C   UNL     1       7.513   5.006  12.452  0.00  0.00    +0.000 A 
ATOM     29  N   UNL     1       8.242   5.739  13.253  0.00  0.00    +0.000 NA
ATOM     30  N   UNL     1       7.840   5.481  14.541  0.00  0.00    +0.000 NA
ATOM     31  C   UNL     1       6.843   4.619  14.503  0.00  0.00    +0.000 A 
ENDBRANCH  25  31
ENDBRANCH  21  25
ENDBRANCH   1  21
TORSDOF 5
ENDMDL
MODEL 4
REMARK VINA RESULT:      -8.4      3.518      8.361
REMARK  Name = 
REMARK  6 active torsions:
REMARK  status: ('A' for Active; 'I' for Inactive)
REMARK    1  A    between atoms: C_1  and  N_2
REMARK    2  A    between atoms: C_6  and  C_7
REMARK    3  A    between atoms: C_7  and  C_8
REMARK    4  A    between atoms: C_8  and  C_9
REMARK    5  A    between atoms: C_13  and  N_14
REMARK    6  A    between atoms: C_21  and  C_22
REMARK                            x       y       z     vdW  Elec       q    Type
REMARK                         _______ _______ _______ _____ _____    ______ ____
ROOT
ATOM      1  C   UNL     1      -0.705  11.038  20.468  0.00  0.00    +0.000 A 
ATOM      2  C   UNL     1      -0.761  11.164  21.864  0.00  0.00    +0.000 A 
ATOM      3  C   UNL     1      -0.166  10.221  22.713  0.00  0.00    +0.000 A 
ATOM      4  C   UNL     1       0.553   9.143  22.188  0.00  0.00    +0.000 A 
ATOM      5  C   UNL     1       0.683   9.004  20.812  0.00  0.00    +0.000 A 
ATOM      6  C   UNL     1       0.010   9.927  19.992  0.00  0.00    +0.000 A 
ENDROOT
BRANCH   5   7
ATOM      7  N   UNL     1       1.510   8.028  20.204  0.00  0.00    +0.000 N 
ATOM      8  C   UNL     1       1.547   6.680  20.755  0.00  0.00    +0.000 C 
ATOM      9  C   UNL     1       2.308   5.915  19.746  0.00  0.00    +0.000 A 
ATOM     10  C   UNL     1       2.724   6.756  18.724  0.00  0.00    +0.000 A 
ATOM     11  C   UNL     1       3.457   6.289  17.658  0.00  0.00    +0.000 A 
ATOM     12  C   UNL     1       3.744   4.941  17.683  0.00  0.00    +0.000 A 
ATOM     13  N   UNL     1       3.338   4.077  18.664  0.00  0.00    +0.000 NA
ATOM     14  C   UNL     1       2.604   4.569  19.708  0.00  0.00    +0.000 A 
ATOM     15  C   UNL     1       2.206   8.113  18.992  0.00  0.00    +0.000 C 
ATOM     16  O   UNL     1       2.383   9.048  18.237  0.00  0.00    +0.000 OA
BRANCH  14  17
ATOM     17  C   UNL     1       2.099   3.622  20.793  0.00  0.00    +0.000 C 
ATOM     18  F   UNL     1       0.738   3.550  20.859  0.00  0.00    +0.000 F 
ATOM     19  F   UNL     1       2.521   2.337  20.615  0.00  0.00    +0.000 F 
ATOM     20  F   UNL     1       2.494   3.985  22.046  0.00  0.00    +0.000 F 
ENDBRANCH  14  17
ENDBRANCH   5   7
BRANCH   1  21
ATOM     21  C   UNL     1      -1.388  12.075  19.435  0.00  0.00    +0.000 C 
ATOM     22  C   UNL     1      -2.940  12.119  19.471  0.00  0.00    +0.000 C 
ATOM     23  O   UNL     1      -3.052  11.710  18.096  0.00  0.00    +0.000 OA
ATOM     24  C   UNL     1      -1.619  11.594  17.972  0.00  0.00    +0.000 C 
BRANCH  21  25
ATOM     25  C   UNL     1      -0.750  13.480  19.532  0.00  0.00    +0.000 C 
BRANCH  25  31
ATOM     26  C   UNL     1       1.373  14.533  21.627  0.00  0.00    +0.000 C 
ATOM     27  N   UNL     1       1.642  13.976  20.326  0.00  0.00    +0.000 N 
ATOM     28  C   UNL     1       2.879  13.839  19.776  0.00  0.00    +0.000 A 
ATOM     29  N   UNL     1       2.768  13.321  18.580  0.00  0.00    +0.000 NA
ATOM     30  N   UNL     1       1.431  13.133  18.326  0.00  0.00    +0.000 NA
ATOM     31  C   UNL     1       0.747  13.506  19.390  0.00  0.00    +0.000 A 
ENDBRANCH  25  31
ENDBRANCH  21  25
ENDBRANCH   1  21
TORSDOF 5
ENDMDL
MODEL 5
REMARK VINA RESULT:      -8.4      3.512      8.694
REMARK  Name = 
REMARK  6 active torsions:
REMARK  status: ('A' for Active; 'I' for Inactive)
REMARK    1  A    between atoms: C_1  and  N_2
REMARK    2  A    between atoms: C_6  and  C_7
REMARK    3  A    between atoms: C_7  and  C_8
REMARK    4  A    between atoms: C_8  and  C_9
REMARK    5  A    between atoms: C_13  and  N_14
REMARK    6  A    between atoms: C_21  and  C_22
REMARK                            x       y       z     vdW  Elec       q    Type
REMARK                         _______ _______ _______ _____ _____    ______ ____
ROOT
ATOM      1  C   UNL     1       0.909   9.549  19.939  0.00  0.00    +0.000 A 
ATOM      2  C   UNL     1       1.062  10.348  18.797  0.00  0.00    +0.000 A 
ATOM      3  C   UNL     1       1.863   9.946  17.719  0.00  0.00    +0.000 A 
ATOM      4  C   UNL     1       2.497   8.700  17.728  0.00  0.00    +0.000 A 
ATOM      5  C   UNL     1       2.332   7.849  18.814  0.00  0.00    +0.000 A 
ATOM      6  C   UNL     1       1.584   8.317  19.908  0.00  0.00    +0.000 A 
ENDROOT
BRANCH   5   7
ATOM      7  N   UNL     1       2.820   6.520  18.840  0.00  0.00    +0.000 N 
ATOM      8  C   UNL     1       2.388   5.620  19.901  0.00  0.00    +0.000 C 
ATOM      9  C   UNL     1       2.900   4.304  19.469  0.00  0.00    +0.000 A 
ATOM     10  C   UNL     1       3.614   4.434  18.287  0.00  0.00    +0.000 A 
ATOM     11  C   UNL     1       4.199   3.352  17.674  0.00  0.00    +0.000 A 
ATOM     12  C   UNL     1       4.027   2.144  18.315  0.00  0.00    +0.000 A 
ATOM     13  N   UNL     1       3.317   1.972  19.473  0.00  0.00    +0.000 NA
ATOM     14  C   UNL     1       2.740   3.066  20.056  0.00  0.00    +0.000 A 
ATOM     15  C   UNL     1       3.557   5.847  17.858  0.00  0.00    +0.000 C 
ATOM     16  O   UNL     1       4.065   6.245  16.828  0.00  0.00    +0.000 OA
BRANCH  14  17
ATOM     17  C   UNL     1       1.905   2.899  21.322  0.00  0.00    +0.000 C 
ATOM     18  F   UNL     1       2.309   3.704  22.348  0.00  0.00    +0.000 F 
ATOM     19  F   UNL     1       0.586   3.191  21.132  0.00  0.00    +0.000 F 
ATOM     20  F   UNL     1       1.949   1.634  21.828  0.00  0.00    +0.000 F 
ENDBRANCH  14  17
ENDBRANCH   5   7
BRANCH   1  21
ATOM     21  C   UNL     1       0.021   9.962  21.224  0.00  0.00    +0.000 C 
ATOM     22  C   UNL     1       0.813  10.127  22.549  0.00  0.00    +0.000 C 
ATOM     23  O   UNL     1       0.067   9.086  23.205  0.00  0.00    +0.000 OA
ATOM     24  C   UNL     1      -0.694   8.823  22.007  0.00  0.00    +0.000 C 
BRANCH  21  25
ATOM     25  C   UNL     1      -0.891  11.173  20.921  0.00  0.00    +0.000 C 
BRANCH  25  31
ATOM     26  C   UNL     1      -2.739  12.137  23.299  0.00  0.00    +0.000 C 
ATOM     27  N   UNL     1      -1.516  12.751  22.849  0.00  0.00    +0.000 N 
ATOM     28  C   UNL     1      -0.971  13.882  23.372  0.00  0.00    +0.000 A 
ATOM     29  N   UNL     1       0.123  14.180  22.720  0.00  0.00    +0.000 NA
ATOM     30  N   UNL     1       0.291  13.241  21.732  0.00  0.00    +0.000 NA
ATOM     31  C   UNL     1      -0.685  12.360  21.821  0.00  0.00    +0.000 A 
ENDBRANCH  25  31
ENDBRANCH  21  25
ENDBRANCH   1  21
TORSDOF 5
ENDMDL
MODEL 6
REMARK VINA RESULT:      -8.3      2.297      2.947
REMARK  Name = 
REMARK  6 active torsions:
REMARK  status: ('A' for Active; 'I' for Inactive)
REMARK    1  A    between atoms: C_1  and  N_2
REMARK    2  A    between atoms: C_6  and  C_7
REMARK    3  A    between atoms: C_7  and  C_8
REMARK    4  A    between atoms: C_8  and  C_9
REMARK    5  A    between atoms: C_13  and  N_14
REMARK    6  A    between atoms: C_21  and  C_22
REMARK                            x       y       z     vdW  Elec       q    Type
REMARK                         _______ _______ _______ _____ _____    ______ ____
ROOT
ATOM      1  C   UNL     1       4.682   4.586  17.139  0.00  0.00    +0.000 A 
ATOM      2  C   UNL     1       3.807   3.576  16.712  0.00  0.00    +0.000 A 
ATOM      3  C   UNL     1       2.499   3.480  17.205  0.00  0.00    +0.000 A 
ATOM      4  C   UNL     1       2.004   4.427  18.106  0.00  0.00    +0.000 A 
ATOM      5  C   UNL     1       2.816   5.477  18.518  0.00  0.00    +0.000 A 
ATOM      6  C   UNL     1       4.145   5.499  18.061  0.00  0.00    +0.000 A 
ENDROOT
BRANCH   5   7
ATOM      7  N   UNL     1       2.350   6.553  19.312  0.00  0.00    +0.000 N 
ATOM      8  C   UNL     1       2.145   7.858  18.699  0.00  0.00    +0.000 C 
ATOM      9  C   UNL     1       1.450   8.630  19.749  0.00  0.00    +0.000 A 
ATOM     10  C   UNL     1       1.312   7.859  20.894  0.00  0.00    +0.000 A 
ATOM     11  C   UNL     1       0.700   8.348  22.024  0.00  0.00    +0.000 A 
ATOM     12  C   UNL     1       0.242   9.646  21.935  0.00  0.00    +0.000 A 
ATOM     13  N   UNL     1       0.346  10.432  20.819  0.00  0.00    +0.000 NA
ATOM     14  C   UNL     1       0.953   9.916  19.708  0.00  0.00    +0.000 A 
ATOM     15  C   UNL     1       1.866   6.516  20.626  0.00  0.00    +0.000 C 
ATOM     16  O   UNL     1       1.842   5.617  21.442  0.00  0.00    +0.000 OA
BRANCH  14  17
ATOM     17  C   UNL     1       1.044  10.753  18.435  0.00  0.00    +0.000 C 
ATOM     18  F   UNL     1       2.311  10.844  17.936  0.00  0.00    +0.000 F 
ATOM     19  F   UNL     1       0.289  10.252  17.415  0.00  0.00    +0.000 F 
ATOM     20  F   UNL     1       0.642  12.043  18.613  0.00  0.00    +0.000 F 
ENDBRANCH  14  17
ENDBRANCH   5   7
BRANCH   1  21
ATOM     21  C   UNL     1       6.207   4.740  16.629  0.00  0.00    +0.000 C 
ATOM     22  C   UNL     1       7.288   4.643  17.740  0.00  0.00    +0.000 C 
ATOM     23  O   UNL     1       7.772   5.973  17.483  0.00  0.00    +0.000 OA
ATOM     24  C   UNL     1       6.773   6.181  16.462  0.00  0.00    +0.000 C 
BRANCH  21  25
ATOM     25  C   UNL     1       6.503   3.815  15.427  0.00  0.00    +0.000 C 
BRANCH  25  31
ATOM     26  C   UNL     1       5.779   3.288  12.394  0.00  0.00    +0.000 C 
ATOM     27  N   UNL     1       6.719   4.252  12.905  0.00  0.00    +0.000 N 
ATOM     28  C   UNL     1       7.477   5.085  12.141  0.00  0.00    +0.000 A 
ATOM     29  N   UNL     1       8.238   5.814  12.916  0.00  0.00    +0.000 NA
ATOM     30  N   UNL     1       7.995   5.440  14.215  0.00  0.00    +0.000 NA
ATOM     31  C   UNL     1       7.058   4.512  14.215  0.00  0.00    +0.000 A 
ENDBRANCH  25  31
ENDBRANCH  21  25
ENDBRANCH   1  21
TORSDOF 5
ENDMDL
MODEL 7
REMARK VINA RESULT:      -8.3      3.459      8.522
REMARK  Name = 
REMARK  6 active torsions:
REMARK  status: ('A' for Active; 'I' for Inactive)
REMARK    1  A    between atoms: C_1  and  N_2
REMARK    2  A    between atoms: C_6  and  C_7
REMARK    3  A    between atoms: C_7  and  C_8
REMARK    4  A    between atoms: C_8  and  C_9
REMARK    5  A    between atoms: C_13  and  N_14
REMARK    6  A    between atoms: C_21  and  C_22
REMARK                            x       y       z     vdW  Elec       q    Type
REMARK                         _______ _______ _______ _____ _____    ______ ____
ROOT
ATOM      1  C   UNL     1      -0.820  10.920  20.058  0.00  0.00    +0.000 A 
ATOM      2  C   UNL     1      -0.712  11.287  21.407  0.00  0.00    +0.000 A 
ATOM      3  C   UNL     1       0.062  10.547  22.311  0.00  0.00    +0.000 A 
ATOM      4  C   UNL     1       0.798   9.439  21.880  0.00  0.00    +0.000 A 
ATOM      5  C   UNL     1       0.765   9.067  20.541  0.00  0.00    +0.000 A 
ATOM      6  C   UNL     1      -0.080   9.788  19.680  0.00  0.00    +0.000 A 
ENDROOT
BRANCH   5   7
ATOM      7  N   UNL     1       1.589   8.051  19.998  0.00  0.00    +0.000 N 
ATOM      8  C   UNL     1       1.585   6.727  20.604  0.00  0.00    +0.000 C 
ATOM      9  C   UNL     1       2.357   5.906  19.649  0.00  0.00    +0.000 A 
ATOM     10  C   UNL     1       2.816   6.696  18.604  0.00  0.00    +0.000 A 
ATOM     11  C   UNL     1       3.567   6.171  17.579  0.00  0.00    +0.000 A 
ATOM     12  C   UNL     1       3.827   4.820  17.668  0.00  0.00    +0.000 A 
ATOM     13  N   UNL     1       3.379   4.006  18.673  0.00  0.00    +0.000 NA
ATOM     14  C   UNL     1       2.628   4.555  19.675  0.00  0.00    +0.000 A 
ATOM     15  C   UNL     1       2.317   8.072  18.802  0.00  0.00    +0.000 C 
ATOM     16  O   UNL     1       2.532   8.971  18.013  0.00  0.00    +0.000 OA
BRANCH  14  17
ATOM     17  C   UNL     1       2.077   3.663  20.785  0.00  0.00    +0.000 C 
ATOM     18  F   UNL     1       0.714   3.598  20.800  0.00  0.00    +0.000 F 
ATOM     19  F   UNL     1       2.499   2.371  20.687  0.00  0.00    +0.000 F 
ATOM     20  F   UNL     1       2.423   4.087  22.033  0.00  0.00    +0.000 F 
ENDBRANCH  14  17
ENDBRANCH   5   7
BRANCH   1  21
ATOM     21  C   UNL     1      -1.711  11.715  18.970  0.00  0.00    +0.000 C 
ATOM     22  C   UNL     1      -3.005  12.369  19.526  0.00  0.00    +0.000 C 
ATOM     23  O   UNL     1      -3.853  11.590  18.663  0.00  0.00    +0.000 OA
ATOM     24  C   UNL     1      -2.716  10.889  18.114  0.00  0.00    +0.000 C 
BRANCH  21  25
ATOM     25  C   UNL     1      -0.854  12.699  18.141  0.00  0.00    +0.000 C 
BRANCH  25  31
ATOM     26  C   UNL     1       2.290  12.461  18.384  0.00  0.00    +0.000 C 
ATOM     27  N   UNL     1       1.442  13.428  19.032  0.00  0.00    +0.000 N 
ATOM     28  C   UNL     1       1.871  14.394  19.888  0.00  0.00    +0.000 A 
ATOM     29  N   UNL     1       0.846  15.087  20.313  0.00  0.00    +0.000 NA
ATOM     30  N   UNL     1      -0.285  14.553  19.744  0.00  0.00    +0.000 NA
ATOM     31  C   UNL     1       0.073  13.565  18.949  0.00  0.00    +0.000 A 
ENDBRANCH  25  31
ENDBRANCH  21  25
ENDBRANCH   1  21
TORSDOF 5
ENDMDL
MODEL 8
REMARK VINA RESULT:      -8.2      2.852      4.398
REMARK  Name = 
REMARK  6 active torsions:
REMARK  status: ('A' for Active; 'I' for Inactive)
REMARK    1  A    between atoms: C_1  and  N_2
REMARK    2  A    between atoms: C_6  and  C_7
REMARK    3  A    between atoms: C_7  and  C_8
REMARK    4  A    between atoms: C_8  and  C_9
REMARK    5  A    between atoms: C_13  and  N_14
REMARK    6  A    between atoms: C_21  and  C_22
REMARK                            x       y       z     vdW  Elec       q    Type
REMARK                         _______ _______ _______ _____ _____    ______ ____
ROOT
ATOM      1  C   UNL     1       2.706   6.037  18.764  0.00  0.00    +0.000 A 
ATOM      2  C   UNL     1       3.423   6.543  17.670  0.00  0.00    +0.000 A 
ATOM      3  C   UNL     1       3.309   7.881  17.270  0.00  0.00    +0.000 A 
ATOM      4  C   UNL     1       2.507   8.774  17.989  0.00  0.00    +0.000 A 
ATOM      5  C   UNL     1       1.818   8.333  19.112  0.00  0.00    +0.000 A 
ATOM      6  C   UNL     1       1.899   6.968  19.438  0.00  0.00    +0.000 A 
ENDROOT
BRANCH   5   7
ATOM      7  N   UNL     1       1.104   9.200  19.974  0.00  0.00    +0.000 N 
ATOM      8  C   UNL     1       0.170  10.163  19.406  0.00  0.00    +0.000 C 
ATOM      9  C   UNL     1      -0.534  10.701  20.587  0.00  0.00    +0.000 A 
ATOM     10  C   UNL     1      -0.018  10.140  21.747  0.00  0.00    +0.000 A 
ATOM     11  C   UNL     1      -0.501  10.478  22.989  0.00  0.00    +0.000 A 
ATOM     12  C   UNL     1      -1.522  11.405  22.995  0.00  0.00    +0.000 A 
ATOM     13  N   UNL     1      -2.067  11.969  21.873  0.00  0.00    +0.000 NA
ATOM     14  C   UNL     1      -1.571  11.607  20.651  0.00  0.00    +0.000 A 
ATOM     15  C   UNL     1       1.022   9.160  21.372  0.00  0.00    +0.000 C 
ATOM     16  O   UNL     1       1.617   8.485  22.187  0.00  0.00    +0.000 OA
BRANCH  14  17
ATOM     17  C   UNL     1      -2.190  12.185  19.381  0.00  0.00    +0.000 C 
ATOM     18  F   UNL     1      -2.620  11.230  18.506  0.00  0.00    +0.000 F 
ATOM     19  F   UNL     1      -3.281  12.965  19.629  0.00  0.00    +0.000 F 
ATOM     20  F   UNL     1      -1.322  12.954  18.665  0.00  0.00    +0.000 F 
ENDBRANCH  14  17
ENDBRANCH   5   7
BRANCH   1  21
ATOM     21  C   UNL     1       2.775   4.502  19.263  0.00  0.00    +0.000 C 
ATOM     22  C   UNL     1       1.437   3.719  19.178  0.00  0.00    +0.000 C 
ATOM     23  O   UNL     1       1.407   3.478  20.597  0.00  0.00    +0.000 OA
ATOM     24  C   UNL     1       2.625   4.229  20.789  0.00  0.00    +0.000 C 
BRANCH  21  25
ATOM     25  C   UNL     1       3.952   3.743  18.611  0.00  0.00    +0.000 C 
BRANCH  25  31
ATOM     26  C   UNL     1       6.139   4.259  16.385  0.00  0.00    +0.000 C 
ATOM     27  N   UNL     1       6.226   4.603  17.781  0.00  0.00    +0.000 N 
ATOM     28  C   UNL     1       7.299   5.192  18.374  0.00  0.00    +0.000 A 
ATOM     29  N   UNL     1       7.060   5.345  19.651  0.00  0.00    +0.000 NA
ATOM     30  N   UNL     1       5.815   4.825  19.911  0.00  0.00    +0.000 NA
ATOM     31  C   UNL     1       5.297   4.397  18.777  0.00  0.00    +0.000 A 
ENDBRANCH  25  31
ENDBRANCH  21  25
ENDBRANCH   1  21
TORSDOF 5
ENDMDL
MODEL 9
REMARK VINA RESULT:      -8.2      3.558      8.678
REMARK  Name = 
REMARK  6 active torsions:
REMARK  status: ('A' for Active; 'I' for Inactive)
REMARK    1  A    between atoms: C_1  and  N_2
REMARK    2  A    between atoms: C_6  and  C_7
REMARK    3  A    between atoms: C_7  and  C_8
REMARK    4  A    between atoms: C_8  and  C_9
REMARK    5  A    between atoms: C_13  and  N_14
REMARK    6  A    between atoms: C_21  and  C_22
REMARK                            x       y       z     vdW  Elec       q    Type
REMARK                         _______ _______ _______ _____ _____    ______ ____
ROOT
ATOM      1  C   UNL     1      -0.694  11.077  20.694  0.00  0.00    +0.000 A 
ATOM      2  C   UNL     1      -0.815  11.100  22.091  0.00  0.00    +0.000 A 
ATOM      3  C   UNL     1      -0.289  10.077  22.892  0.00  0.00    +0.000 A 
ATOM      4  C   UNL     1       0.424   9.019  22.321  0.00  0.00    +0.000 A 
ATOM      5  C   UNL     1       0.618   8.980  20.946  0.00  0.00    +0.000 A 
ATOM      6  C   UNL     1       0.012   9.982  20.168  0.00  0.00    +0.000 A 
ENDROOT
BRANCH   5   7
ATOM      7  N   UNL     1       1.446   8.026  20.305  0.00  0.00    +0.000 N 
ATOM      8  C   UNL     1       1.502   6.666  20.823  0.00  0.00    +0.000 C 
ATOM      9  C   UNL     1       2.257   5.932  19.787  0.00  0.00    +0.000 A 
ATOM     10  C   UNL     1       2.653   6.801  18.780  0.00  0.00    +0.000 A 
ATOM     11  C   UNL     1       3.376   6.366  17.695  0.00  0.00    +0.000 A 
ATOM     12  C   UNL     1       3.676   5.020  17.684  0.00  0.00    +0.000 A 
ATOM     13  N   UNL     1       3.290   4.129  18.649  0.00  0.00    +0.000 NA
ATOM     14  C   UNL     1       2.565   4.590  19.713  0.00  0.00    +0.000 A 
ATOM     15  C   UNL     1       2.126   8.146  19.087  0.00  0.00    +0.000 C 
ATOM     16  O   UNL     1       2.285   9.101  18.352  0.00  0.00    +0.000 OA
BRANCH  14  17
ATOM     17  C   UNL     1       2.082   3.613  20.782  0.00  0.00    +0.000 C 
ATOM     18  F   UNL     1       2.505   2.332  20.574  0.00  0.00    +0.000 F 
ATOM     19  F   UNL     1       2.514   3.938  22.033  0.00  0.00    +0.000 F 
ATOM     20  F   UNL     1       0.724   3.528  20.854  0.00  0.00    +0.000 F 
ENDBRANCH  14  17
ENDBRANCH   5   7
BRANCH   1  21
ATOM     21  C   UNL     1      -1.295  12.210  19.712  0.00  0.00    +0.000 C 
ATOM     22  C   UNL     1      -2.703  11.903  19.133  0.00  0.00    +0.000 C 
ATOM     23  O   UNL     1      -2.227  11.927  17.775  0.00  0.00    +0.000 OA
ATOM     24  C   UNL     1      -0.873  12.168  18.214  0.00  0.00    +0.000 C 
BRANCH  21  25
ATOM     25  C   UNL     1      -1.204  13.618  20.342  0.00  0.00    +0.000 C 
BRANCH  25  31
ATOM     26  C   UNL     1       1.928  13.507  20.771  0.00  0.00    +0.000 C 
ATOM     27  N   UNL     1       1.199  14.438  19.949  0.00  0.00    +0.000 N 
ATOM     28  C   UNL     1       1.756  15.453  19.235  0.00  0.00    +0.000 A 
ATOM     29  N   UNL     1       0.815  16.120  18.619  0.00  0.00    +0.000 NA
ATOM     30  N   UNL     1      -0.390  15.550  18.950  0.00  0.00    +0.000 NA
ATOM     31  C   UNL     1      -0.161  14.516  19.736  0.00  0.00    +0.000 A 
ENDBRANCH  25  31
ENDBRANCH  21  25
ENDBRANCH   1  21
TORSDOF 5
ENDMDL
