MODEL 1
REMARK VINA RESULT:      -9.5      0.000      0.000
REMARK  Name = 
REMARK  9 active torsions:
REMARK  status: ('A' for Active; 'I' for Inactive)
REMARK    1  A    between atoms: C_1  and  N_2
REMARK    2  A    between atoms: C_6  and  C_7
REMARK    3  A    between atoms: C_7  and  C_8
REMARK    4  A    between atoms: C_8  and  C_9
REMARK    5  A    between atoms: C_13  and  N_14
REMARK    6  A    between atoms: C_15  and  C_17
REMARK    7  A    between atoms: C_19  and  C_20
REMARK    8  A    between atoms: C_20  and  N_21
REMARK    9  A    between atoms: C_28  and  C_29
REMARK                            x       y       z     vdW  Elec       q    Type
REMARK                         _______ _______ _______ _____ _____    ______ ____
ROOT
ATOM      1  N   UNL     1       1.441   7.942  21.331  0.00  0.00    +0.000 N 
ATOM      2  C   UNL     1       1.917   7.628  20.076  0.00  0.00    +0.000 C 
ATOM      3  O   UNL     1       1.827   8.321  19.066  0.00  0.00    +0.000 OA
ATOM      4  H   UNL     1       1.685   7.288  22.072  0.00  0.00    +0.000 HD
ENDROOT
BRANCH   1   9
ATOM      5  C   UNL     1      -0.080  11.319  21.014  0.00  0.00    +0.000 A 
ATOM      6  C   UNL     1      -0.805  11.374  22.221  0.00  0.00    +0.000 A 
ATOM      7  C   UNL     1      -0.812  10.313  23.120  0.00  0.00    +0.000 A 
ATOM      8  C   UNL     1      -0.082   9.161  22.841  0.00  0.00    +0.000 A 
ATOM      9  C   UNL     1       0.657   9.059  21.663  0.00  0.00    +0.000 A 
ATOM     10  C   UNL     1       0.647  10.131  20.768  0.00  0.00    +0.000 A 
BRANCH   5  11
ATOM     11  C   UNL     1      -0.054  12.544  19.979  0.00  0.00    +0.000 C 
ATOM     12  C   UNL     1       1.296  13.307  19.853  0.00  0.00    +0.000 C 
ATOM     13  O   UNL     1       0.711  14.551  20.279  0.00  0.00    +0.000 OA
ATOM     14  C   UNL     1      -0.573  13.923  20.477  0.00  0.00    +0.000 C 
BRANCH  11  15
ATOM     15  C   UNL     1      -0.607  12.090  18.610  0.00  0.00    +0.000 C 
BRANCH  15  21
ATOM     16  C   UNL     1      -2.314  10.248  16.652  0.00  0.00    +0.000 C 
ATOM     17  N   UNL     1      -2.796  11.067  17.732  0.00  0.00    +0.000 N 
ATOM     18  C   UNL     1      -4.107  11.209  18.072  0.00  0.00    +0.000 A 
ATOM     19  N   UNL     1      -4.208  11.997  19.114  0.00  0.00    +0.000 NA
ATOM     20  N   UNL     1      -2.941  12.402  19.450  0.00  0.00    +0.000 NA
ATOM     21  C   UNL     1      -2.085  11.850  18.610  0.00  0.00    +0.000 A 
ENDBRANCH  15  21
ENDBRANCH  11  15
ENDBRANCH   5  11
ENDBRANCH   1   9
BRANCH   2  22
ATOM     22  C   UNL     1       2.596   6.303  19.964  0.00  0.00    +0.000 A 
ATOM     23  C   UNL     1       3.803   6.256  19.304  0.00  0.00    +0.000 A 
ATOM     24  C   UNL     1       4.355   5.011  19.135  0.00  0.00    +0.000 A 
ATOM     25  N   UNL     1       3.766   3.897  19.629  0.00  0.00    +0.000 NA
ATOM     26  C   UNL     1       2.592   4.033  20.306  0.00  0.00    +0.000 A 
ATOM     27  N   UNL     1       1.960   5.222  20.474  0.00  0.00    +0.000 NA
BRANCH  26  28
ATOM     28  C   UNL     1       1.960   2.780  20.936  0.00  0.00    +0.000 C 
ATOM     29  F   UNL     1       1.743   1.762  20.048  0.00  0.00    +0.000 F 
ATOM     30  F   UNL     1       2.734   2.238  21.922  0.00  0.00    +0.000 F 
ATOM     31  F   UNL     1       0.744   3.022  21.511  0.00  0.00    +0.000 F 
ENDBRANCH  26  28
BRANCH  24  32
ATOM     32  C   UNL     1       5.636   4.870  18.334  0.00  0.00    +0.000 C 
BRANCH  32  33
ATOM     33  N   UNL     1       5.464   5.084  16.890  0.00  0.00    +0.000 NA
ATOM     34  C   UNL     1       6.613   5.733  16.246  0.00  0.00    +0.000 C 
ATOM     35  C   UNL     1       7.139   4.794  15.173  0.00  0.00    +0.000 C 
ATOM     36  C   UNL     1       5.996   3.851  14.890  0.00  0.00    +0.000 C 
ATOM     37  F   UNL     1       5.235   4.356  13.883  0.00  0.00    +0.000 F 
ATOM     38  C   UNL     1       5.192   3.822  16.179  0.00  0.00    +0.000 C 
ENDBRANCH  32  33
ENDBRANCH  24  32
ENDBRANCH   2  22
TORSDOF 8
ENDMDL
MODEL 2
REMARK VINA RESULT:      -9.5      1.965      2.936
REMARK  Name = 
REMARK  9 active torsions:
REMARK  status: ('A' for Active; 'I' for Inactive)
REMARK    1  A    between atoms: C_1  and  N_2
REMARK    2  A    between atoms: C_6  and  C_7
REMARK    3  A    between atoms: C_7  and  C_8
REMARK    4  A    between atoms: C_8  and  C_9
REMARK    5  A    between atoms: C_13  and  N_14
REMARK    6  A    between atoms: C_15  and  C_17
REMARK    7  A    between atoms: C_19  and  C_20
REMARK    8  A    between atoms: C_20  and  N_21
REMARK    9  A    between atoms: C_28  and  C_29
REMARK                            x       y       z     vdW  Elec       q    Type
REMARK                         _______ _______ _______ _____ _____    ______ ____
ROOT
ATOM      1  N   UNL     1       1.360   7.560  21.135  0.00  0.00    +0.000 N 
ATOM      2  C   UNL     1       2.033   7.396  19.944  0.00  0.00    +0.000 C 
ATOM      3  O   UNL     1       2.182   8.242  19.065  0.00  0.00    +0.000 OA
ATOM      4  H   UNL     1       1.413   6.779  21.785  0.00  0.00    +0.000 HD
ENDROOT
BRANCH   1   9
ATOM      5  C   UNL     1      -0.448  10.790  20.789  0.00  0.00    +0.000 A 
ATOM      6  C   UNL     1      -0.811  11.012  22.133  0.00  0.00    +0.000 A 
ATOM      7  C   UNL     1      -0.485  10.108  23.137  0.00  0.00    +0.000 A 
ATOM      8  C   UNL     1       0.226   8.952  22.829  0.00  0.00    +0.000 A 
ATOM      9  C   UNL     1       0.614   8.689  21.515  0.00  0.00    +0.000 A 
ATOM     10  C   UNL     1       0.272   9.604  20.517  0.00  0.00    +0.000 A 
BRANCH   5  11
ATOM     11  C   UNL     1      -0.807  11.836  19.626  0.00  0.00    +0.000 C 
ATOM     12  C   UNL     1      -2.023  12.767  19.893  0.00  0.00    +0.000 C 
ATOM     13  O   UNL     1      -2.742  12.270  18.750  0.00  0.00    +0.000 OA
ATOM     14  C   UNL     1      -1.688  11.332  18.448  0.00  0.00    +0.000 C 
BRANCH  11  15
ATOM     15  C   UNL     1       0.459  12.618  19.211  0.00  0.00    +0.000 C 
BRANCH  15  21
ATOM     16  C   UNL     1       0.019  15.772  19.225  0.00  0.00    +0.000 C 
ATOM     17  N   UNL     1       0.724  14.978  20.196  0.00  0.00    +0.000 N 
ATOM     18  C   UNL     1       1.361  15.478  21.291  0.00  0.00    +0.000 A 
ATOM     19  N   UNL     1       1.877  14.494  21.986  0.00  0.00    +0.000 NA
ATOM     20  N   UNL     1       1.597  13.327  21.321  0.00  0.00    +0.000 NA
ATOM     21  C   UNL     1       0.908  13.616  20.233  0.00  0.00    +0.000 A 
ENDBRANCH  15  21
ENDBRANCH  11  15
ENDBRANCH   5  11
ENDBRANCH   1   9
BRANCH   2  22
ATOM     22  C   UNL     1       2.620   6.041  19.724  0.00  0.00    +0.000 A 
ATOM     23  C   UNL     1       3.932   5.970  19.315  0.00  0.00    +0.000 A 
ATOM     24  C   UNL     1       4.413   4.716  19.031  0.00  0.00    +0.000 A 
ATOM     25  N   UNL     1       3.651   3.608  19.187  0.00  0.00    +0.000 NA
ATOM     26  C   UNL     1       2.374   3.760  19.636  0.00  0.00    +0.000 A 
ATOM     27  N   UNL     1       1.812   4.968  19.893  0.00  0.00    +0.000 NA
BRANCH  26  28
ATOM     28  C   UNL     1       1.531   2.498  19.888  0.00  0.00    +0.000 C 
ATOM     29  F   UNL     1       1.241   2.279  21.207  0.00  0.00    +0.000 F 
ATOM     30  F   UNL     1       0.321   2.538  19.256  0.00  0.00    +0.000 F 
ATOM     31  F   UNL     1       2.137   1.352  19.457  0.00  0.00    +0.000 F 
ENDBRANCH  26  28
BRANCH  24  32
ATOM     32  C   UNL     1       5.820   4.568  18.483  0.00  0.00    +0.000 C 
BRANCH  32  33
ATOM     33  N   UNL     1       5.871   4.135  17.079  0.00  0.00    +0.000 NA
ATOM     34  C   UNL     1       4.815   4.716  16.241  0.00  0.00    +0.000 C 
ATOM     35  C   UNL     1       5.482   5.504  15.126  0.00  0.00    +0.000 C 
ATOM     36  C   UNL     1       6.888   4.962  15.057  0.00  0.00    +0.000 C 
ATOM     37  F   UNL     1       6.930   3.933  14.170  0.00  0.00    +0.000 F 
ATOM     38  C   UNL     1       7.171   4.446  16.458  0.00  0.00    +0.000 C 
ENDBRANCH  32  33
ENDBRANCH  24  32
ENDBRANCH   2  22
TORSDOF 8
ENDMDL
MODEL 3
REMARK VINA RESULT:      -9.5      0.962      1.570
REMARK  Name = 
REMARK  9 active torsions:
REMARK  status: ('A' for Active; 'I' for Inactive)
REMARK    1  A    between atoms: C_1  and  N_2
REMARK    2  A    between atoms: C_6  and  C_7
REMARK    3  A    between atoms: C_7  and  C_8
REMARK    4  A    between atoms: C_8  and  C_9
REMARK    5  A    between atoms: C_13  and  N_14
REMARK    6  A    between atoms: C_15  and  C_17
REMARK    7  A    between atoms: C_19  and  C_20
REMARK    8  A    between atoms: C_20  and  N_21
REMARK    9  A    between atoms: C_28  and  C_29
REMARK                            x       y       z     vdW  Elec       q    Type
REMARK                         _______ _______ _______ _____ _____    ______ ____
ROOT
ATOM      1  N   UNL     1       1.550   8.169  21.377  0.00  0.00    +0.000 N 
ATOM      2  C   UNL     1       1.843   7.750  20.097  0.00  0.00    +0.000 C 
ATOM      3  O   UNL     1       1.566   8.337  19.054  0.00  0.00    +0.000 OA
ATOM      4  H   UNL     1       1.935   7.599  22.127  0.00  0.00    +0.000 HD
ENDROOT
BRANCH   1   9
ATOM      5  C   UNL     1       0.323  11.677  21.336  0.00  0.00    +0.000 A 
ATOM      6  C   UNL     1      -0.651  11.608  22.353  0.00  0.00    +0.000 A 
ATOM      7  C   UNL     1      -0.916  10.423  23.032  0.00  0.00    +0.000 A 
ATOM      8  C   UNL     1      -0.205   9.268  22.719  0.00  0.00    +0.000 A 
ATOM      9  C   UNL     1       0.772   9.287  21.724  0.00  0.00    +0.000 A 
ATOM     10  C   UNL     1       1.021  10.482  21.047  0.00  0.00    +0.000 A 
BRANCH   5  11
ATOM     11  C   UNL     1       0.645  13.043  20.558  0.00  0.00    +0.000 C 
ATOM     12  C   UNL     1       1.738  12.961  19.454  0.00  0.00    +0.000 C 
ATOM     13  O   UNL     1       2.577  13.923  20.117  0.00  0.00    +0.000 OA
ATOM     14  C   UNL     1       1.649  14.031  21.217  0.00  0.00    +0.000 C 
BRANCH  11  15
ATOM     15  C   UNL     1      -0.666  13.682  20.048  0.00  0.00    +0.000 C 
BRANCH  15  21
ATOM     16  C   UNL     1      -3.647  12.675  20.534  0.00  0.00    +0.000 C 
ATOM     17  N   UNL     1      -2.767  12.328  19.450  0.00  0.00    +0.000 N 
ATOM     18  C   UNL     1      -3.076  11.458  18.449  0.00  0.00    +0.000 A 
ATOM     19  N   UNL     1      -2.075  11.383  17.607  0.00  0.00    +0.000 NA
ATOM     20  N   UNL     1      -1.078  12.199  18.078  0.00  0.00    +0.000 NA
ATOM     21  C   UNL     1      -1.488  12.764  19.197  0.00  0.00    +0.000 A 
ENDBRANCH  15  21
ENDBRANCH  11  15
ENDBRANCH   5  11
ENDBRANCH   1   9
BRANCH   2  22
ATOM     22  C   UNL     1       2.560   6.444  20.001  0.00  0.00    +0.000 A 
ATOM     23  C   UNL     1       3.821   6.445  19.450  0.00  0.00    +0.000 A 
ATOM     24  C   UNL     1       4.415   5.218  19.289  0.00  0.00    +0.000 A 
ATOM     25  N   UNL     1       3.810   4.076  19.692  0.00  0.00    +0.000 NA
ATOM     26  C   UNL     1       2.579   4.164  20.266  0.00  0.00    +0.000 A 
ATOM     27  N   UNL     1       1.907   5.333  20.417  0.00  0.00    +0.000 NA
BRANCH  26  28
ATOM     28  C   UNL     1       1.923   2.876  20.795  0.00  0.00    +0.000 C 
ATOM     29  F   UNL     1       2.580   2.314  21.855  0.00  0.00    +0.000 F 
ATOM     30  F   UNL     1       0.644   3.078  21.231  0.00  0.00    +0.000 F 
ATOM     31  F   UNL     1       1.843   1.888  19.855  0.00  0.00    +0.000 F 
ENDBRANCH  26  28
BRANCH  24  32
ATOM     32  C   UNL     1       5.764   5.131  18.600  0.00  0.00    +0.000 C 
BRANCH  32  33
ATOM     33  N   UNL     1       5.724   4.467  17.289  0.00  0.00    +0.000 NA
ATOM     34  C   UNL     1       4.751   5.052  16.359  0.00  0.00    +0.000 C 
ATOM     35  C   UNL     1       5.509   5.533  15.132  0.00  0.00    +0.000 C 
ATOM     36  C   UNL     1       6.816   4.781  15.165  0.00  0.00    +0.000 C 
ATOM     37  F   UNL     1       6.686   3.624  14.464  0.00  0.00    +0.000 F 
ATOM     38  C   UNL     1       7.044   4.470  16.635  0.00  0.00    +0.000 C 
ENDBRANCH  32  33
ENDBRANCH  24  32
ENDBRANCH   2  22
TORSDOF 8
ENDMDL
MODEL 4
REMARK VINA RESULT:      -9.4      1.919      2.745
REMARK  Name = 
REMARK  9 active torsions:
REMARK  status: ('A' for Active; 'I' for Inactive)
REMARK    1  A    between atoms: C_1  and  N_2
REMARK    2  A    between atoms: C_6  and  C_7
REMARK    3  A    between atoms: C_7  and  C_8
REMARK    4  A    between atoms: C_8  and  C_9
REMARK    5  A    between atoms: C_13  and  N_14
REMARK    6  A    between atoms: C_15  and  C_17
REMARK    7  A    between atoms: C_19  and  C_20
REMARK    8  A    between atoms: C_20  and  N_21
REMARK    9  A    between atoms: C_28  and  C_29
REMARK                            x       y       z     vdW  Elec       q    Type
REMARK                         _______ _______ _______ _____ _____    ______ ____
ROOT
ATOM      1  N   UNL     1       0.976   7.945  21.262  0.00  0.00    +0.000 N 
ATOM      2  C   UNL     1       1.732   7.808  20.118  0.00  0.00    +0.000 C 
ATOM      3  O   UNL     1       1.957   8.678  19.281  0.00  0.00    +0.000 OA
ATOM      4  H   UNL     1       0.971   7.143  21.888  0.00  0.00    +0.000 HD
ENDROOT
BRANCH   1   9
ATOM      5  C   UNL     1      -0.886  11.137  20.860  0.00  0.00    +0.000 A 
ATOM      6  C   UNL     1      -1.225  11.394  22.203  0.00  0.00    +0.000 A 
ATOM      7  C   UNL     1      -0.865  10.524  23.227  0.00  0.00    +0.000 A 
ATOM      8  C   UNL     1      -0.143   9.370  22.938  0.00  0.00    +0.000 A 
ATOM      9  C   UNL     1       0.221   9.074  21.625  0.00  0.00    +0.000 A 
ATOM     10  C   UNL     1      -0.154   9.954  20.608  0.00  0.00    +0.000 A 
BRANCH   5  11
ATOM     11  C   UNL     1      -1.284  12.143  19.674  0.00  0.00    +0.000 C 
ATOM     12  C   UNL     1      -2.775  12.122  19.229  0.00  0.00    +0.000 C 
ATOM     13  O   UNL     1      -2.439  11.732  17.885  0.00  0.00    +0.000 OA
ATOM     14  C   UNL     1      -1.035  11.673  18.213  0.00  0.00    +0.000 C 
BRANCH  11  15
ATOM     15  C   UNL     1      -0.784  13.567  20.000  0.00  0.00    +0.000 C 
BRANCH  15  21
ATOM     16  C   UNL     1       1.778  13.531  18.109  0.00  0.00    +0.000 C 
ATOM     17  N   UNL     1       1.746  13.577  19.546  0.00  0.00    +0.000 N 
ATOM     18  C   UNL     1       2.849  13.578  20.347  0.00  0.00    +0.000 A 
ATOM     19  N   UNL     1       2.481  13.655  21.602  0.00  0.00    +0.000 NA
ATOM     20  N   UNL     1       1.109  13.678  21.629  0.00  0.00    +0.000 NA
ATOM     21  C   UNL     1       0.661  13.620  20.389  0.00  0.00    +0.000 A 
ENDBRANCH  15  21
ENDBRANCH  11  15
ENDBRANCH   5  11
ENDBRANCH   1   9
BRANCH   2  22
ATOM     22  C   UNL     1       2.313   6.450  19.896  0.00  0.00    +0.000 A 
ATOM     23  C   UNL     1       3.563   6.374  19.328  0.00  0.00    +0.000 A 
ATOM     24  C   UNL     1       4.030   5.113  19.050  0.00  0.00    +0.000 A 
ATOM     25  N   UNL     1       3.315   4.006  19.360  0.00  0.00    +0.000 NA
ATOM     26  C   UNL     1       2.103   4.165  19.960  0.00  0.00    +0.000 A 
ATOM     27  N   UNL     1       1.554   5.377  20.223  0.00  0.00    +0.000 NA
BRANCH  26  28
ATOM     28  C   UNL     1       1.324   2.908  20.384  0.00  0.00    +0.000 C 
ATOM     29  F   UNL     1       1.969   1.734  20.105  0.00  0.00    +0.000 F 
ATOM     30  F   UNL     1       1.076   2.871  21.727  0.00  0.00    +0.000 F 
ATOM     31  F   UNL     1       0.104   2.802  19.779  0.00  0.00    +0.000 F 
ENDBRANCH  26  28
BRANCH  24  32
ATOM     32  C   UNL     1       5.358   4.954  18.335  0.00  0.00    +0.000 C 
BRANCH  32  33
ATOM     33  N   UNL     1       5.276   5.122  16.877  0.00  0.00    +0.000 NA
ATOM     34  C   UNL     1       6.418   5.840  16.299  0.00  0.00    +0.000 C 
ATOM     35  C   UNL     1       7.087   4.920  15.291  0.00  0.00    +0.000 C 
ATOM     36  C   UNL     1       6.040   3.888  14.954  0.00  0.00    +0.000 C 
ATOM     37  F   UNL     1       5.319   4.313  13.883  0.00  0.00    +0.000 F 
ATOM     38  C   UNL     1       5.148   3.828  16.183  0.00  0.00    +0.000 C 
ENDBRANCH  32  33
ENDBRANCH  24  32
ENDBRANCH   2  22
TORSDOF 8
ENDMDL
MODEL 5
REMARK VINA RESULT:      -9.4      2.134      3.207
REMARK  Name = 
REMARK  9 active torsions:
REMARK  status: ('A' for Active; 'I' for Inactive)
REMARK    1  A    between atoms: C_1  and  N_2
REMARK    2  A    between atoms: C_6  and  C_7
REMARK    3  A    between atoms: C_7  and  C_8
REMARK    4  A    between atoms: C_8  and  C_9
REMARK    5  A    between atoms: C_13  and  N_14
REMARK    6  A    between atoms: C_15  and  C_17
REMARK    7  A    between atoms: C_19  and  C_20
REMARK    8  A    between atoms: C_20  and  N_21
REMARK    9  A    between atoms: C_28  and  C_29
REMARK                            x       y       z     vdW  Elec       q    Type
REMARK                         _______ _______ _______ _____ _____    ______ ____
ROOT
ATOM      1  N   UNL     1       1.417   8.816  19.192  0.00  0.00    +0.000 N 
ATOM      2  C   UNL     1       2.271   8.221  18.288  0.00  0.00    +0.000 C 
ATOM      3  O   UNL     1       2.548   8.632  17.164  0.00  0.00    +0.000 OA
ATOM      4  H   UNL     1       1.376   8.382  20.112  0.00  0.00    +0.000 HD
ENDROOT
BRANCH   1   9
ATOM      5  C   UNL     1      -1.429  10.816  17.883  0.00  0.00    +0.000 A 
ATOM      6  C   UNL     1      -1.059  12.097  18.340  0.00  0.00    +0.000 A 
ATOM      7  C   UNL     1       0.099  12.301  19.083  0.00  0.00    +0.000 A 
ATOM      8  C   UNL     1       0.930  11.227  19.385  0.00  0.00    +0.000 A 
ATOM      9  C   UNL     1       0.610   9.941  18.951  0.00  0.00    +0.000 A 
ATOM     10  C   UNL     1      -0.559   9.752  18.212  0.00  0.00    +0.000 A 
BRANCH   5  11
ATOM     11  C   UNL     1      -2.755  10.573  17.012  0.00  0.00    +0.000 C 
ATOM     12  C   UNL     1      -2.647   9.510  15.882  0.00  0.00    +0.000 C 
ATOM     13  O   UNL     1      -2.955  10.470  14.856  0.00  0.00    +0.000 OA
ATOM     14  C   UNL     1      -3.027  11.538  15.823  0.00  0.00    +0.000 C 
BRANCH  11  15
ATOM     15  C   UNL     1      -3.961  10.326  17.945  0.00  0.00    +0.000 C 
BRANCH  15  21
ATOM     16  C   UNL     1      -4.207  12.564  20.197  0.00  0.00    +0.000 C 
ATOM     17  N   UNL     1      -5.012  12.414  19.014  0.00  0.00    +0.000 N 
ATOM     18  C   UNL     1      -6.060  13.218  18.682  0.00  0.00    +0.000 A 
ATOM     19  N   UNL     1      -6.561  12.835  17.534  0.00  0.00    +0.000 NA
ATOM     20  N   UNL     1      -5.846  11.742  17.115  0.00  0.00    +0.000 NA
ATOM     21  C   UNL     1      -4.915  11.478  18.011  0.00  0.00    +0.000 A 
ENDBRANCH  15  21
ENDBRANCH  11  15
ENDBRANCH   5  11
ENDBRANCH   1   9
BRANCH   2  22
ATOM     22  C   UNL     1       2.898   6.945  18.746  0.00  0.00    +0.000 A 
ATOM     23  C   UNL     1       4.194   6.694  18.359  0.00  0.00    +0.000 A 
ATOM     24  C   UNL     1       4.709   5.473  18.715  0.00  0.00    +0.000 A 
ATOM     25  N   UNL     1       3.995   4.584  19.446  0.00  0.00    +0.000 NA
ATOM     26  C   UNL     1       2.732   4.926  19.825  0.00  0.00    +0.000 A 
ATOM     27  N   UNL     1       2.137   6.093  19.472  0.00  0.00    +0.000 NA
BRANCH  26  28
ATOM     28  C   UNL     1       1.947   3.952  20.720  0.00  0.00    +0.000 C 
ATOM     29  F   UNL     1       0.591   4.133  20.682  0.00  0.00    +0.000 F 
ATOM     30  F   UNL     1       2.145   2.645  20.375  0.00  0.00    +0.000 F 
ATOM     31  F   UNL     1       2.287   4.042  22.040  0.00  0.00    +0.000 F 
ENDBRANCH  26  28
BRANCH  24  32
ATOM     32  C   UNL     1       6.097   5.086  18.242  0.00  0.00    +0.000 C 
BRANCH  32  33
ATOM     33  N   UNL     1       6.109   4.328  16.982  0.00  0.00    +0.000 NA
ATOM     34  C   UNL     1       4.860   4.433  16.216  0.00  0.00    +0.000 C 
ATOM     35  C   UNL     1       5.193   5.032  14.859  0.00  0.00    +0.000 C 
ATOM     36  C   UNL     1       6.674   4.806  14.689  0.00  0.00    +0.000 C 
ATOM     37  F   UNL     1       6.878   3.617  14.062  0.00  0.00    +0.000 F 
ATOM     38  C   UNL     1       7.220   4.741  16.106  0.00  0.00    +0.000 C 
ENDBRANCH  32  33
ENDBRANCH  24  32
ENDBRANCH   2  22
TORSDOF 8
ENDMDL
MODEL 6
REMARK VINA RESULT:      -9.4      2.336      5.011
REMARK  Name = 
REMARK  9 active torsions:
REMARK  status: ('A' for Active; 'I' for Inactive)
REMARK    1  A    between atoms: C_1  and  N_2
REMARK    2  A    between atoms: C_6  and  C_7
REMARK    3  A    between atoms: C_7  and  C_8
REMARK    4  A    between atoms: C_8  and  C_9
REMARK    5  A    between atoms: C_13  and  N_14
REMARK    6  A    between atoms: C_15  and  C_17
REMARK    7  A    between atoms: C_19  and  C_20
REMARK    8  A    between atoms: C_20  and  N_21
REMARK    9  A    between atoms: C_28  and  C_29
REMARK                            x       y       z     vdW  Elec       q    Type
REMARK                         _______ _______ _______ _____ _____    ______ ____
ROOT
ATOM      1  N   UNL     1       2.083   7.277  19.685  0.00  0.00    +0.000 N 
ATOM      2  C   UNL     1       2.682   7.408  18.451  0.00  0.00    +0.000 C 
ATOM      3  O   UNL     1       2.836   8.452  17.820  0.00  0.00    +0.000 OA
ATOM      4  H   UNL     1       2.123   6.348  20.099  0.00  0.00    +0.000 HD
ENDROOT
BRANCH   1   9
ATOM      5  C   UNL     1       0.319  10.492  20.295  0.00  0.00    +0.000 A 
ATOM      6  C   UNL     1       0.166  10.425  21.695  0.00  0.00    +0.000 A 
ATOM      7  C   UNL     1       0.617   9.333  22.428  0.00  0.00    +0.000 A 
ATOM      8  C   UNL     1       1.248   8.274  21.782  0.00  0.00    +0.000 A 
ATOM      9  C   UNL     1       1.428   8.295  20.400  0.00  0.00    +0.000 A 
ATOM     10  C   UNL     1       0.963   9.395  19.677  0.00  0.00    +0.000 A 
BRANCH   5  11
ATOM     11  C   UNL     1      -0.186  11.754  19.443  0.00  0.00    +0.000 C 
ATOM     12  C   UNL     1      -1.379  12.553  20.041  0.00  0.00    +0.000 C 
ATOM     13  O   UNL     1      -2.214  12.293  18.898  0.00  0.00    +0.000 OA
ATOM     14  C   UNL     1      -1.186  11.490  18.282  0.00  0.00    +0.000 C 
BRANCH  11  15
ATOM     15  C   UNL     1       1.012  12.661  19.083  0.00  0.00    +0.000 C 
BRANCH  15  21
ATOM     16  C   UNL     1       0.440  15.792  19.158  0.00  0.00    +0.000 C 
ATOM     17  N   UNL     1       1.123  14.999  20.145  0.00  0.00    +0.000 N 
ATOM     18  C   UNL     1       1.677  15.491  21.287  0.00  0.00    +0.000 A 
ATOM     19  N   UNL     1       2.196  14.509  21.983  0.00  0.00    +0.000 NA
ATOM     20  N   UNL     1       2.002  13.352  21.272  0.00  0.00    +0.000 NA
ATOM     21  C   UNL     1       1.363  13.645  20.156  0.00  0.00    +0.000 A 
ENDBRANCH  15  21
ENDBRANCH  11  15
ENDBRANCH   5  11
ENDBRANCH   1   9
BRANCH   2  22
ATOM     22  C   UNL     1       3.172   6.137  17.840  0.00  0.00    +0.000 A 
ATOM     23  C   UNL     1       2.421   5.001  18.038  0.00  0.00    +0.000 A 
ATOM     24  C   UNL     1       2.946   3.832  17.546  0.00  0.00    +0.000 A 
ATOM     25  N   UNL     1       4.116   3.808  16.865  0.00  0.00    +0.000 NA
ATOM     26  C   UNL     1       4.779   4.982  16.676  0.00  0.00    +0.000 A 
ATOM     27  N   UNL     1       4.349   6.170  17.172  0.00  0.00    +0.000 NA
BRANCH  26  28
ATOM     28  C   UNL     1       6.068   4.970  15.836  0.00  0.00    +0.000 C 
ATOM     29  F   UNL     1       6.425   3.729  15.385  0.00  0.00    +0.000 F 
ATOM     30  F   UNL     1       5.974   5.746  14.716  0.00  0.00    +0.000 F 
ATOM     31  F   UNL     1       7.158   5.434  16.518  0.00  0.00    +0.000 F 
ENDBRANCH  26  28
BRANCH  24  32
ATOM     32  C   UNL     1       2.223   2.525  17.809  0.00  0.00    +0.000 C 
BRANCH  32  33
ATOM     33  N   UNL     1       2.128   2.171  19.233  0.00  0.00    +0.000 NA
ATOM     34  C   UNL     1       3.284   2.603  20.029  0.00  0.00    +0.000 C 
ATOM     35  C   UNL     1       2.782   3.542  21.113  0.00  0.00    +0.000 C 
ATOM     36  C   UNL     1       1.307   3.249  21.225  0.00  0.00    +0.000 C 
ATOM     37  F   UNL     1       1.110   2.283  22.161  0.00  0.00    +0.000 F 
ATOM     38  C   UNL     1       0.912   2.725  19.854  0.00  0.00    +0.000 C 
ENDBRANCH  32  33
ENDBRANCH  24  32
ENDBRANCH   2  22
TORSDOF 8
ENDMDL
MODEL 7
REMARK VINA RESULT:      -9.4      1.804      4.287
REMARK  Name = 
REMARK  9 active torsions:
REMARK  status: ('A' for Active; 'I' for Inactive)
REMARK    1  A    between atoms: C_1  and  N_2
REMARK    2  A    between atoms: C_6  and  C_7
REMARK    3  A    between atoms: C_7  and  C_8
REMARK    4  A    between atoms: C_8  and  C_9
REMARK    5  A    between atoms: C_13  and  N_14
REMARK    6  A    between atoms: C_15  and  C_17
REMARK    7  A    between atoms: C_19  and  C_20
REMARK    8  A    between atoms: C_20  and  N_21
REMARK    9  A    between atoms: C_28  and  C_29
REMARK                            x       y       z     vdW  Elec       q    Type
REMARK                         _______ _______ _______ _____ _____    ______ ____
ROOT
ATOM      1  N   UNL     1       1.708   8.152  19.931  0.00  0.00    +0.000 N 
ATOM      2  C   UNL     1       2.067   8.201  18.601  0.00  0.00    +0.000 C 
ATOM      3  O   UNL     1       1.808   9.102  17.806  0.00  0.00    +0.000 OA
ATOM      4  H   UNL     1       2.085   7.370  20.462  0.00  0.00    +0.000 HD
ENDROOT
BRANCH   1   9
ATOM      5  C   UNL     1      -0.610  11.021  20.391  0.00  0.00    +0.000 A 
ATOM      6  C   UNL     1      -0.760  10.992  21.792  0.00  0.00    +0.000 A 
ATOM      7  C   UNL     1      -0.125  10.034  22.576  0.00  0.00    +0.000 A 
ATOM      8  C   UNL     1       0.690   9.077  21.979  0.00  0.00    +0.000 A 
ATOM      9  C   UNL     1       0.875   9.067  20.597  0.00  0.00    +0.000 A 
ATOM     10  C   UNL     1       0.225  10.031  19.825  0.00  0.00    +0.000 A 
BRANCH   5  11
ATOM     11  C   UNL     1      -1.327  12.132  19.481  0.00  0.00    +0.000 C 
ATOM     12  C   UNL     1      -0.523  12.628  18.245  0.00  0.00    +0.000 C 
ATOM     13  O   UNL     1      -0.506  13.987  18.717  0.00  0.00    +0.000 OA
ATOM     14  C   UNL     1      -1.205  13.618  19.923  0.00  0.00    +0.000 C 
BRANCH  11  15
ATOM     15  C   UNL     1      -2.754  11.671  19.113  0.00  0.00    +0.000 C 
BRANCH  15  21
ATOM     16  C   UNL     1      -5.167  12.081  17.076  0.00  0.00    +0.000 C 
ATOM     17  N   UNL     1      -3.949  11.347  16.860  0.00  0.00    +0.000 N 
ATOM     18  C   UNL     1      -3.647  10.663  15.721  0.00  0.00    +0.000 A 
ATOM     19  N   UNL     1      -2.456  10.129  15.832  0.00  0.00    +0.000 NA
ATOM     20  N   UNL     1      -1.976  10.445  17.078  0.00  0.00    +0.000 NA
ATOM     21  C   UNL     1      -2.880  11.173  17.706  0.00  0.00    +0.000 A 
ENDBRANCH  15  21
ENDBRANCH  11  15
ENDBRANCH   5  11
ENDBRANCH   1   9
BRANCH   2  22
ATOM     22  C   UNL     1       2.836   7.022  18.103  0.00  0.00    +0.000 A 
ATOM     23  C   UNL     1       2.206   5.799  18.107  0.00  0.00    +0.000 A 
ATOM     24  C   UNL     1       2.969   4.720  17.733  0.00  0.00    +0.000 A 
ATOM     25  N   UNL     1       4.257   4.861  17.341  0.00  0.00    +0.000 NA
ATOM     26  C   UNL     1       4.795   6.112  17.327  0.00  0.00    +0.000 A 
ATOM     27  N   UNL     1       4.121   7.220  17.726  0.00  0.00    +0.000 NA
BRANCH  26  28
ATOM     28  C   UNL     1       6.233   6.285  16.808  0.00  0.00    +0.000 C 
ATOM     29  F   UNL     1       7.158   5.526  17.472  0.00  0.00    +0.000 F 
ATOM     30  F   UNL     1       6.363   5.941  15.492  0.00  0.00    +0.000 F 
ATOM     31  F   UNL     1       6.687   7.570  16.901  0.00  0.00    +0.000 F 
ENDBRANCH  26  28
BRANCH  24  32
ATOM     32  C   UNL     1       2.371   3.328  17.804  0.00  0.00    +0.000 C 
BRANCH  32  33
ATOM     33  N   UNL     1       2.409   2.730  19.147  0.00  0.00    +0.000 NA
ATOM     34  C   UNL     1       3.325   3.408  20.072  0.00  0.00    +0.000 C 
ATOM     35  C   UNL     1       2.511   3.907  21.255  0.00  0.00    +0.000 C 
ATOM     36  C   UNL     1       1.245   3.088  21.226  0.00  0.00    +0.000 C 
ATOM     37  F   UNL     1       1.413   1.974  21.986  0.00  0.00    +0.000 F 
ATOM     38  C   UNL     1       1.072   2.696  19.768  0.00  0.00    +0.000 C 
ENDBRANCH  32  33
ENDBRANCH  24  32
ENDBRANCH   2  22
TORSDOF 8
ENDMDL
MODEL 8
REMARK VINA RESULT:      -9.3      2.081      2.981
REMARK  Name = 
REMARK  9 active torsions:
REMARK  status: ('A' for Active; 'I' for Inactive)
REMARK    1  A    between atoms: C_1  and  N_2
REMARK    2  A    between atoms: C_6  and  C_7
REMARK    3  A    between atoms: C_7  and  C_8
REMARK    4  A    between atoms: C_8  and  C_9
REMARK    5  A    between atoms: C_13  and  N_14
REMARK    6  A    between atoms: C_15  and  C_17
REMARK    7  A    between atoms: C_19  and  C_20
REMARK    8  A    between atoms: C_20  and  N_21
REMARK    9  A    between atoms: C_28  and  C_29
REMARK                            x       y       z     vdW  Elec       q    Type
REMARK                         _______ _______ _______ _____ _____    ______ ____
ROOT
ATOM      1  N   UNL     1       0.871   7.710  21.094  0.00  0.00    +0.000 N 
ATOM      2  C   UNL     1       1.764   7.617  20.049  0.00  0.00    +0.000 C 
ATOM      3  O   UNL     1       2.216   8.550  19.388  0.00  0.00    +0.000 OA
ATOM      4  H   UNL     1       0.675   6.841  21.586  0.00  0.00    +0.000 HD
ENDROOT
BRANCH   1   9
ATOM      5  C   UNL     1      -0.824  11.010  20.864  0.00  0.00    +0.000 A 
ATOM      6  C   UNL     1      -1.035  11.273  22.232  0.00  0.00    +0.000 A 
ATOM      7  C   UNL     1      -0.644  10.373  23.218  0.00  0.00    +0.000 A 
ATOM      8  C   UNL     1      -0.018   9.182  22.864  0.00  0.00    +0.000 A 
ATOM      9  C   UNL     1       0.218   8.878  21.524  0.00  0.00    +0.000 A 
ATOM     10  C   UNL     1      -0.187   9.788  20.546  0.00  0.00    +0.000 A 
BRANCH   5  11
ATOM     11  C   UNL     1      -1.259  12.048  19.720  0.00  0.00    +0.000 C 
ATOM     12  C   UNL     1      -2.788  12.214  19.489  0.00  0.00    +0.000 C 
ATOM     13  O   UNL     1      -2.698  11.774  18.122  0.00  0.00    +0.000 OA
ATOM     14  C   UNL     1      -1.280  11.539  18.251  0.00  0.00    +0.000 C 
BRANCH  11  15
ATOM     15  C   UNL     1      -0.543  13.400  19.936  0.00  0.00    +0.000 C 
BRANCH  15  21
ATOM     16  C   UNL     1       0.938  15.965  18.766  0.00  0.00    +0.000 C 
ATOM     17  N   UNL     1       1.400  14.602  18.758  0.00  0.00    +0.000 N 
ATOM     18  C   UNL     1       2.569  14.183  18.199  0.00  0.00    +0.000 A 
ATOM     19  N   UNL     1       2.709  12.894  18.387  0.00  0.00    +0.000 NA
ATOM     20  N   UNL     1       1.598  12.452  19.060  0.00  0.00    +0.000 NA
ATOM     21  C   UNL     1       0.799  13.480  19.277  0.00  0.00    +0.000 A 
ENDBRANCH  15  21
ENDBRANCH  11  15
ENDBRANCH   5  11
ENDBRANCH   1   9
BRANCH   2  22
ATOM     22  C   UNL     1       2.198   6.232  19.701  0.00  0.00    +0.000 A 
ATOM     23  C   UNL     1       2.884   6.053  18.522  0.00  0.00    +0.000 A 
ATOM     24  C   UNL     1       3.187   4.757  18.184  0.00  0.00    +0.000 A 
ATOM     25  N   UNL     1       2.865   3.718  18.990  0.00  0.00    +0.000 NA
ATOM     26  C   UNL     1       2.221   3.983  20.160  0.00  0.00    +0.000 A 
ATOM     27  N   UNL     1       1.847   5.230  20.541  0.00  0.00    +0.000 NA
BRANCH  26  28
ATOM     28  C   UNL     1       1.923   2.812  21.114  0.00  0.00    +0.000 C 
ATOM     29  F   UNL     1       1.603   1.645  20.477  0.00  0.00    +0.000 F 
ATOM     30  F   UNL     1       2.985   2.505  21.917  0.00  0.00    +0.000 F 
ATOM     31  F   UNL     1       0.879   3.060  21.960  0.00  0.00    +0.000 F 
ENDBRANCH  26  28
BRANCH  24  32
ATOM     32  C   UNL     1       3.857   4.474  16.853  0.00  0.00    +0.000 C 
BRANCH  32  33
ATOM     33  N   UNL     1       5.242   3.996  16.971  0.00  0.00    +0.000 NA
ATOM     34  C   UNL     1       5.934   3.862  15.683  0.00  0.00    +0.000 C 
ATOM     35  C   UNL     1       7.153   4.769  15.710  0.00  0.00    +0.000 C 
ATOM     36  C   UNL     1       7.409   5.029  17.174  0.00  0.00    +0.000 C 
ATOM     37  F   UNL     1       8.266   4.090  17.654  0.00  0.00    +0.000 F 
ATOM     38  C   UNL     1       6.051   4.873  17.837  0.00  0.00    +0.000 C 
ENDBRANCH  32  33
ENDBRANCH  24  32
ENDBRANCH   2  22
TORSDOF 8
ENDMDL
MODEL 9
REMARK VINA RESULT:      -9.3      2.182      4.838
REMARK  Name = 
REMARK  9 active torsions:
REMARK  status: ('A' for Active; 'I' for Inactive)
REMARK    1  A    between atoms: C_1  and  N_2
REMARK    2  A    between atoms: C_6  and  C_7
REMARK    3  A    between atoms: C_7  and  C_8
REMARK    4  A    between atoms: C_8  and  C_9
REMARK    5  A    between atoms: C_13  and  N_14
REMARK    6  A    between atoms: C_15  and  C_17
REMARK    7  A    between atoms: C_19  and  C_20
REMARK    8  A    between atoms: C_20  and  N_21
REMARK    9  A    between atoms: C_28  and  C_29
REMARK                            x       y       z     vdW  Elec       q    Type
REMARK                         _______ _______ _______ _____ _____    ______ ____
ROOT
ATOM      1  N   UNL     1       1.992   7.537  19.724  0.00  0.00    +0.000 N 
ATOM      2  C   UNL     1       2.551   7.669  18.471  0.00  0.00    +0.000 C 
ATOM      3  O   UNL     1       2.608   8.697  17.800  0.00  0.00    +0.000 OA
ATOM      4  H   UNL     1       2.114   6.630  20.169  0.00  0.00    +0.000 HD
ENDROOT
BRANCH   1   9
ATOM      5  C   UNL     1      -0.132  10.542  20.253  0.00  0.00    +0.000 A 
ATOM      6  C   UNL     1      -0.140  10.591  21.662  0.00  0.00    +0.000 A 
ATOM      7  C   UNL     1       0.526   9.642  22.430  0.00  0.00    +0.000 A 
ATOM      8  C   UNL     1       1.232   8.615  21.809  0.00  0.00    +0.000 A 
ATOM      9  C   UNL     1       1.275   8.527  20.418  0.00  0.00    +0.000 A 
ATOM     10  C   UNL     1       0.595   9.483  19.662  0.00  0.00    +0.000 A 
BRANCH   5  11
ATOM     11  C   UNL     1      -0.885  11.641  19.359  0.00  0.00    +0.000 C 
ATOM     12  C   UNL     1      -1.879  12.572  20.110  0.00  0.00    +0.000 C 
ATOM     13  O   UNL     1      -2.995  12.133  19.316  0.00  0.00    +0.000 OA
ATOM     14  C   UNL     1      -2.165  11.199  18.595  0.00  0.00    +0.000 C 
BRANCH  11  15
ATOM     15  C   UNL     1       0.143  12.429  18.516  0.00  0.00    +0.000 C 
BRANCH  15  21
ATOM     16  C   UNL     1       2.309  13.333  20.668  0.00  0.00    +0.000 C 
ATOM     17  N   UNL     1       1.346  14.158  19.989  0.00  0.00    +0.000 N 
ATOM     18  C   UNL     1       1.187  15.495  20.196  0.00  0.00    +0.000 A 
ATOM     19  N   UNL     1       0.250  15.955  19.403  0.00  0.00    +0.000 NA
ATOM     20  N   UNL     1      -0.235  14.895  18.679  0.00  0.00    +0.000 NA
ATOM     21  C   UNL     1       0.418  13.805  19.038  0.00  0.00    +0.000 A 
ENDBRANCH  15  21
ENDBRANCH  11  15
ENDBRANCH   5  11
ENDBRANCH   1   9
BRANCH   2  22
ATOM     22  C   UNL     1       3.127   6.419  17.894  0.00  0.00    +0.000 A 
ATOM     23  C   UNL     1       2.384   5.265  17.997  0.00  0.00    +0.000 A 
ATOM     24  C   UNL     1       2.981   4.115  17.543  0.00  0.00    +0.000 A 
ATOM     25  N   UNL     1       4.213   4.126  16.983  0.00  0.00    +0.000 NA
ATOM     26  C   UNL     1       4.866   5.316  16.880  0.00  0.00    +0.000 A 
ATOM     27  N   UNL     1       4.364   6.486  17.348  0.00  0.00    +0.000 NA
BRANCH  26  28
ATOM     28  C   UNL     1       6.233   5.343  16.174  0.00  0.00    +0.000 C 
ATOM     29  F   UNL     1       7.069   6.329  16.621  0.00  0.00    +0.000 F 
ATOM     30  F   UNL     1       6.931   4.180  16.335  0.00  0.00    +0.000 F 
ATOM     31  F   UNL     1       6.138   5.534  14.824  0.00  0.00    +0.000 F 
ENDBRANCH  26  28
BRANCH  24  32
ATOM     32  C   UNL     1       2.262   2.790  17.712  0.00  0.00    +0.000 C 
BRANCH  32  33
ATOM     33  N   UNL     1       2.131   2.355  19.111  0.00  0.00    +0.000 NA
ATOM     34  C   UNL     1       3.285   2.705  19.949  0.00  0.00    +0.000 C 
ATOM     35  C   UNL     1       2.790   3.593  21.079  0.00  0.00    +0.000 C 
ATOM     36  C   UNL     1       1.305   3.338  21.149  0.00  0.00    +0.000 C 
ATOM     37  F   UNL     1       1.064   2.325  22.023  0.00  0.00    +0.000 F 
ATOM     38  C   UNL     1       0.920   2.908  19.743  0.00  0.00    +0.000 C 
ENDBRANCH  32  33
ENDBRANCH  24  32
ENDBRANCH   2  22
TORSDOF 8
ENDMDL
