MODEL 1
REMARK VINA RESULT:      -7.5      0.000      0.000
REMARK  Name = 
REMARK  9 active torsions:
REMARK  status: ('A' for Active; 'I' for Inactive)
REMARK    1  A    between atoms: C_1  and  O_2
REMARK    2  A    between atoms: O_2  and  C_3
REMARK    3  A    between atoms: C_3  and  C_4
REMARK    4  A    between atoms: N_6  and  C_7
REMARK    5  A    between atoms: C_9  and  C_10
REMARK    6  A    between atoms: N_12  and  C_13
REMARK    7  A    between atoms: C_13  and  C_14
REMARK    8  A    between atoms: C_14  and  C_15
REMARK    9  A    between atoms: N_22  and  C_23
REMARK                            x       y       z     vdW  Elec       q    Type
REMARK                         _______ _______ _______ _____ _____    ______ ____
ROOT
ATOM      1  C   UNL     1       5.270   4.088  18.231  0.00  0.00    +0.000 C 
ATOM      2  C   UNL     1       4.927   5.229  19.204  0.00  0.00    +0.000 C 
ATOM      3  C   UNL     1       3.402   5.172  19.398  0.00  0.00    +0.000 C 
ATOM      4  N   UNL     1       2.937   4.233  18.348  0.00  0.00    +0.000 NA
ATOM      5  C   UNL     1       1.639   3.645  18.662  0.00  0.00    +0.000 C 
ATOM      6  C   UNL     1       4.002   3.226  18.265  0.00  0.00    +0.000 C 
ENDROOT
BRANCH   1   9
ATOM      7  C   UNL     1       6.796   4.502  16.273  0.00  0.00    +0.000 C 
ATOM      8  O   UNL     1       7.828   4.237  16.881  0.00  0.00    +0.000 OA
ATOM      9  N   UNL     1       5.552   4.528  16.857  0.00  0.00    +0.000 N 
ATOM     10  H   UNL     1       4.782   4.497  16.195  0.00  0.00    +0.000 HD
BRANCH   7  11
ATOM     11  C   UNL     1       6.779   4.813  14.763  0.00  0.00    +0.000 C 
BRANCH  11  13
ATOM     12  C   UNL     1       8.083   5.360  12.873  0.00  0.00    +0.000 C 
ATOM     13  O   UNL     1       7.908   5.530  14.275  0.00  0.00    +0.000 OA
ENDBRANCH  11  13
ENDBRANCH   7  11
ENDBRANCH   1   9
BRANCH   3  14
ATOM     14  C   UNL     1       2.736   6.547  19.235  0.00  0.00    +0.000 C 
ATOM     15  O   UNL     1       2.683   7.125  18.151  0.00  0.00    +0.000 OA
ATOM     16  N   UNL     1       2.206   7.058  20.400  0.00  0.00    +0.000 N 
ATOM     17  H   UNL     1       2.374   6.523  21.245  0.00  0.00    +0.000 HD
BRANCH  16  18
ATOM     18  C   UNL     1       1.548   8.344  20.440  0.00  0.00    +0.000 C 
BRANCH  18  19
ATOM     19  C   UNL     1       1.187   8.759  21.862  0.00  0.00    +0.000 C 
BRANCH  19  20
ATOM     20  C   UNL     1       0.182   9.876  21.896  0.00  0.00    +0.000 A 
ATOM     21  C   UNL     1      -0.534  10.147  23.069  0.00  0.00    +0.000 A 
ATOM     22  C   UNL     1      -1.483  11.171  23.101  0.00  0.00    +0.000 A 
ATOM     23  C   UNL     1      -1.728  11.931  21.959  0.00  0.00    +0.000 A 
ATOM     24  C   UNL     1      -1.024  11.660  20.784  0.00  0.00    +0.000 A 
ATOM     25 CL   UNL     1      -1.327  12.598  19.374  0.00  0.00    +0.000 Cl
ATOM     26  C   UNL     1      -0.076  10.641  20.749  0.00  0.00    +0.000 A 
ENDBRANCH  19  20
ENDBRANCH  18  19
ENDBRANCH  16  18
ENDBRANCH   3  14
TORSDOF 7
ENDMDL
MODEL 2
REMARK VINA RESULT:      -7.3      5.548      7.806
REMARK  Name = 
REMARK  9 active torsions:
REMARK  status: ('A' for Active; 'I' for Inactive)
REMARK    1  A    between atoms: C_1  and  O_2
REMARK    2  A    between atoms: O_2  and  C_3
REMARK    3  A    between atoms: C_3  and  C_4
REMARK    4  A    between atoms: N_6  and  C_7
REMARK    5  A    between atoms: C_9  and  C_10
REMARK    6  A    between atoms: N_12  and  C_13
REMARK    7  A    between atoms: C_13  and  C_14
REMARK    8  A    between atoms: C_14  and  C_15
REMARK    9  A    between atoms: N_22  and  C_23
REMARK                            x       y       z     vdW  Elec       q    Type
REMARK                         _______ _______ _______ _____ _____    ______ ____
ROOT
ATOM      1  C   UNL     1       4.095   4.267  18.365  0.00  0.00    +0.000 C 
ATOM      2  C   UNL     1       4.711   5.668  18.521  0.00  0.00    +0.000 C 
ATOM      3  C   UNL     1       5.420   5.967  17.189  0.00  0.00    +0.000 C 
ATOM      4  N   UNL     1       5.423   4.665  16.480  0.00  0.00    +0.000 NA
ATOM      5  C   UNL     1       5.571   4.818  15.036  0.00  0.00    +0.000 C 
ATOM      6  C   UNL     1       4.143   4.048  16.847  0.00  0.00    +0.000 C 
ENDROOT
BRANCH   1   9
ATOM      7  C   UNL     1       4.330   2.468  20.108  0.00  0.00    +0.000 C 
ATOM      8  O   UNL     1       3.267   2.718  20.667  0.00  0.00    +0.000 OA
ATOM      9  N   UNL     1       4.831   3.200  19.058  0.00  0.00    +0.000 N 
ATOM     10  H   UNL     1       5.564   2.730  18.536  0.00  0.00    +0.000 HD
BRANCH   7  11
ATOM     11  C   UNL     1       5.219   1.274  20.511  0.00  0.00    +0.000 C 
BRANCH  11  13
ATOM     12  C   UNL     1       6.310   0.031  22.196  0.00  0.00    +0.000 C 
ATOM     13  O   UNL     1       5.471   1.143  21.906  0.00  0.00    +0.000 OA
ENDBRANCH  11  13
ENDBRANCH   7  11
ENDBRANCH   1   9
BRANCH   3  14
ATOM     14  C   UNL     1       6.853   6.484  17.388  0.00  0.00    +0.000 C 
ATOM     15  O   UNL     1       7.801   5.727  17.590  0.00  0.00    +0.000 OA
ATOM     16  N   UNL     1       6.973   7.855  17.312  0.00  0.00    +0.000 N 
ATOM     17  H   UNL     1       6.110   8.378  17.213  0.00  0.00    +0.000 HD
BRANCH  16  18
ATOM     18  C   UNL     1       8.245   8.521  17.482  0.00  0.00    +0.000 C 
BRANCH  18  19
ATOM     19  C   UNL     1       8.534   8.837  18.946  0.00  0.00    +0.000 C 
BRANCH  19  20
ATOM     20  C   UNL     1       9.249  10.147  19.119  0.00  0.00    +0.000 A 
ATOM     21  C   UNL     1       9.447  10.680  20.400  0.00  0.00    +0.000 A 
ATOM     22  C   UNL     1      10.093  11.907  20.565  0.00  0.00    +0.000 A 
ATOM     23  C   UNL     1      10.544  12.614  19.452  0.00  0.00    +0.000 A 
ATOM     24  C   UNL     1      10.341  12.092  18.173  0.00  0.00    +0.000 A 
ATOM     25 CL   UNL     1      10.897  12.965  16.798  0.00  0.00    +0.000 Cl
ATOM     26  C   UNL     1       9.699  10.869  18.004  0.00  0.00    +0.000 A 
ENDBRANCH  19  20
ENDBRANCH  18  19
ENDBRANCH  16  18
ENDBRANCH   3  14
TORSDOF 7
ENDMDL
MODEL 3
REMARK VINA RESULT:      -7.2      1.223      1.563
REMARK  Name = 
REMARK  9 active torsions:
REMARK  status: ('A' for Active; 'I' for Inactive)
REMARK    1  A    between atoms: C_1  and  O_2
REMARK    2  A    between atoms: O_2  and  C_3
REMARK    3  A    between atoms: C_3  and  C_4
REMARK    4  A    between atoms: N_6  and  C_7
REMARK    5  A    between atoms: C_9  and  C_10
REMARK    6  A    between atoms: N_12  and  C_13
REMARK    7  A    between atoms: C_13  and  C_14
REMARK    8  A    between atoms: C_14  and  C_15
REMARK    9  A    between atoms: N_22  and  C_23
REMARK                            x       y       z     vdW  Elec       q    Type
REMARK                         _______ _______ _______ _____ _____    ______ ____
ROOT
ATOM      1  C   UNL     1       5.357   4.020  18.335  0.00  0.00    +0.000 C 
ATOM      2  C   UNL     1       5.064   5.243  19.221  0.00  0.00    +0.000 C 
ATOM      3  C   UNL     1       3.538   5.267  19.414  0.00  0.00    +0.000 C 
ATOM      4  N   UNL     1       3.033   4.276  18.433  0.00  0.00    +0.000 NA
ATOM      5  C   UNL     1       1.710   3.769  18.784  0.00  0.00    +0.000 C 
ATOM      6  C   UNL     1       4.052   3.219  18.427  0.00  0.00    +0.000 C 
ENDROOT
BRANCH   1   9
ATOM      7  C   UNL     1       6.927   4.436  16.413  0.00  0.00    +0.000 C 
ATOM      8  O   UNL     1       7.947   4.388  17.093  0.00  0.00    +0.000 OA
ATOM      9  N   UNL     1       5.658   4.345  16.934  0.00  0.00    +0.000 N 
ATOM     10  H   UNL     1       4.941   4.134  16.246  0.00  0.00    +0.000 HD
BRANCH   7  11
ATOM     11  C   UNL     1       6.960   4.578  14.878  0.00  0.00    +0.000 C 
BRANCH  11  13
ATOM     12  C   UNL     1       6.351   3.690  12.777  0.00  0.00    +0.000 C 
ATOM     13  O   UNL     1       6.055   3.739  14.168  0.00  0.00    +0.000 OA
ENDBRANCH  11  13
ENDBRANCH   7  11
ENDBRANCH   1   9
BRANCH   3  14
ATOM     14  C   UNL     1       2.933   6.654  19.148  0.00  0.00    +0.000 C 
ATOM     15  O   UNL     1       3.082   7.241  18.078  0.00  0.00    +0.000 OA
ATOM     16  N   UNL     1       2.213   7.167  20.206  0.00  0.00    +0.000 N 
ATOM     17  H   UNL     1       2.221   6.624  21.062  0.00  0.00    +0.000 HD
BRANCH  16  18
ATOM     18  C   UNL     1       1.579   8.464  20.141  0.00  0.00    +0.000 C 
BRANCH  18  19
ATOM     19  C   UNL     1       0.604   8.684  21.293  0.00  0.00    +0.000 C 
BRANCH  19  20
ATOM     20  C   UNL     1      -0.202   9.942  21.131  0.00  0.00    +0.000 A 
ATOM     21  C   UNL     1      -0.696  10.307  19.872  0.00  0.00    +0.000 A 
ATOM     22  C   UNL     1      -1.429  11.485  19.712  0.00  0.00    +0.000 A 
ATOM     23  C   UNL     1      -1.670  12.310  20.808  0.00  0.00    +0.000 A 
ATOM     24  C   UNL     1      -1.173  11.956  22.064  0.00  0.00    +0.000 A 
ATOM     25 CL   UNL     1      -1.471  12.976  23.417  0.00  0.00    +0.000 Cl
ATOM     26  C   UNL     1      -0.443  10.782  22.227  0.00  0.00    +0.000 A 
ENDBRANCH  19  20
ENDBRANCH  18  19
ENDBRANCH  16  18
ENDBRANCH   3  14
TORSDOF 7
ENDMDL
MODEL 4
REMARK VINA RESULT:      -7.0      5.653      8.187
REMARK  Name = 
REMARK  9 active torsions:
REMARK  status: ('A' for Active; 'I' for Inactive)
REMARK    1  A    between atoms: C_1  and  O_2
REMARK    2  A    between atoms: O_2  and  C_3
REMARK    3  A    between atoms: C_3  and  C_4
REMARK    4  A    between atoms: N_6  and  C_7
REMARK    5  A    between atoms: C_9  and  C_10
REMARK    6  A    between atoms: N_12  and  C_13
REMARK    7  A    between atoms: C_13  and  C_14
REMARK    8  A    between atoms: C_14  and  C_15
REMARK    9  A    between atoms: N_22  and  C_23
REMARK                            x       y       z     vdW  Elec       q    Type
REMARK                         _______ _______ _______ _____ _____    ______ ____
ROOT
ATOM      1  C   UNL     1       3.625   5.455  17.395  0.00  0.00    +0.000 C 
ATOM      2  C   UNL     1       4.509   6.711  17.325  0.00  0.00    +0.000 C 
ATOM      3  C   UNL     1       5.868   6.239  16.781  0.00  0.00    +0.000 C 
ATOM      4  N   UNL     1       5.790   4.759  16.843  0.00  0.00    +0.000 NA
ATOM      5  C   UNL     1       6.725   4.113  15.927  0.00  0.00    +0.000 C 
ATOM      6  C   UNL     1       4.391   4.456  16.517  0.00  0.00    +0.000 C 
ENDROOT
BRANCH   1   9
ATOM      7  C   UNL     1       2.685   5.503  19.728  0.00  0.00    +0.000 C 
ATOM      8  O   UNL     1       2.179   6.615  19.619  0.00  0.00    +0.000 OA
ATOM      9  N   UNL     1       3.448   4.913  18.750  0.00  0.00    +0.000 N 
ATOM     10  H   UNL     1       3.571   3.911  18.866  0.00  0.00    +0.000 HD
BRANCH   7  11
ATOM     11  C   UNL     1       2.494   4.625  20.981  0.00  0.00    +0.000 C 
BRANCH  11  13
ATOM     12  C   UNL     1       1.602   2.445  20.825  0.00  0.00    +0.000 C 
ATOM     13  O   UNL     1       1.315   3.828  20.995  0.00  0.00    +0.000 OA
ENDBRANCH  11  13
ENDBRANCH   7  11
ENDBRANCH   1   9
BRANCH   3  14
ATOM     14  C   UNL     1       7.049   6.758  17.616  0.00  0.00    +0.000 C 
ATOM     15  O   UNL     1       7.739   6.014  18.310  0.00  0.00    +0.000 OA
ATOM     16  N   UNL     1       7.262   8.115  17.508  0.00  0.00    +0.000 N 
ATOM     17  H   UNL     1       6.584   8.636  16.963  0.00  0.00    +0.000 HD
BRANCH  16  18
ATOM     18  C   UNL     1       8.323   8.782  18.229  0.00  0.00    +0.000 C 
BRANCH  18  19
ATOM     19  C   UNL     1       8.643  10.152  17.640  0.00  0.00    +0.000 C 
BRANCH  19  20
ATOM     20  C   UNL     1       9.506  10.980  18.550  0.00  0.00    +0.000 A 
ATOM     21  C   UNL     1       9.380  10.865  19.941  0.00  0.00    +0.000 A 
ATOM     22  C   UNL     1      10.166  11.646  20.791  0.00  0.00    +0.000 A 
ATOM     23  C   UNL     1      11.081  12.553  20.258  0.00  0.00    +0.000 A 
ATOM     24  C   UNL     1      11.204  12.678  18.873  0.00  0.00    +0.000 A 
ATOM     25 CL   UNL     1      12.333  13.798  18.216  0.00  0.00    +0.000 Cl
ATOM     26  C   UNL     1      10.424  11.900  18.023  0.00  0.00    +0.000 A 
ENDBRANCH  19  20
ENDBRANCH  18  19
ENDBRANCH  16  18
ENDBRANCH   3  14
TORSDOF 7
ENDMDL
MODEL 5
REMARK VINA RESULT:      -6.9      4.669      6.131
REMARK  Name = 
REMARK  9 active torsions:
REMARK  status: ('A' for Active; 'I' for Inactive)
REMARK    1  A    between atoms: C_1  and  O_2
REMARK    2  A    between atoms: O_2  and  C_3
REMARK    3  A    between atoms: C_3  and  C_4
REMARK    4  A    between atoms: N_6  and  C_7
REMARK    5  A    between atoms: C_9  and  C_10
REMARK    6  A    between atoms: N_12  and  C_13
REMARK    7  A    between atoms: C_13  and  C_14
REMARK    8  A    between atoms: C_14  and  C_15
REMARK    9  A    between atoms: N_22  and  C_23
REMARK                            x       y       z     vdW  Elec       q    Type
REMARK                         _______ _______ _______ _____ _____    ______ ____
ROOT
ATOM      1  C   UNL     1       7.530   5.125  16.610  0.00  0.00    +0.000 C 
ATOM      2  C   UNL     1       6.458   4.366  17.411  0.00  0.00    +0.000 C 
ATOM      3  C   UNL     1       5.369   3.980  16.396  0.00  0.00    +0.000 C 
ATOM      4  N   UNL     1       5.714   4.757  15.180  0.00  0.00    +0.000 NA
ATOM      5  C   UNL     1       5.146   4.176  13.968  0.00  0.00    +0.000 C 
ATOM      6  C   UNL     1       7.182   4.765  15.160  0.00  0.00    +0.000 C 
ENDROOT
BRANCH   1   9
ATOM      7  C   UNL     1       7.871   7.226  17.953  0.00  0.00    +0.000 C 
ATOM      8  O   UNL     1       8.130   6.644  19.001  0.00  0.00    +0.000 OA
ATOM      9  N   UNL     1       7.504   6.583  16.794  0.00  0.00    +0.000 N 
ATOM     10  H   UNL     1       7.581   7.156  15.959  0.00  0.00    +0.000 HD
BRANCH   7  11
ATOM     11  C   UNL     1       7.956   8.759  17.811  0.00  0.00    +0.000 C 
BRANCH  11  13
ATOM     12  C   UNL     1       9.040  10.787  18.344  0.00  0.00    +0.000 C 
ATOM     13  O   UNL     1       8.948   9.392  18.611  0.00  0.00    +0.000 OA
ENDBRANCH  11  13
ENDBRANCH   7  11
ENDBRANCH   1   9
BRANCH   3  14
ATOM     14  C   UNL     1       3.956   4.333  16.885  0.00  0.00    +0.000 C 
ATOM     15  O   UNL     1       3.017   3.543  16.806  0.00  0.00    +0.000 OA
ATOM     16  N   UNL     1       3.845   5.599  17.419  0.00  0.00    +0.000 N 
ATOM     17  H   UNL     1       4.670   6.186  17.364  0.00  0.00    +0.000 HD
BRANCH  16  18
ATOM     18  C   UNL     1       2.589   6.108  17.922  0.00  0.00    +0.000 C 
BRANCH  18  19
ATOM     19  C   UNL     1       2.560   6.157  19.447  0.00  0.00    +0.000 C 
BRANCH  19  20
ATOM     20  C   UNL     1       2.431   4.792  20.062  0.00  0.00    +0.000 A 
ATOM     21  C   UNL     1       1.196   4.354  20.556  0.00  0.00    +0.000 A 
ATOM     22  C   UNL     1       1.075   3.094  21.147  0.00  0.00    +0.000 A 
ATOM     23  C   UNL     1       2.189   2.263  21.252  0.00  0.00    +0.000 A 
ATOM     24  C   UNL     1       3.425   2.698  20.769  0.00  0.00    +0.000 A 
ATOM     25 CL   UNL     1       4.800   1.672  20.900  0.00  0.00    +0.000 Cl
ATOM     26  C   UNL     1       3.549   3.952  20.178  0.00  0.00    +0.000 A 
ENDBRANCH  19  20
ENDBRANCH  18  19
ENDBRANCH  16  18
ENDBRANCH   3  14
TORSDOF 7
ENDMDL
MODEL 6
REMARK VINA RESULT:      -6.9      6.124      8.462
REMARK  Name = 
REMARK  9 active torsions:
REMARK  status: ('A' for Active; 'I' for Inactive)
REMARK    1  A    between atoms: C_1  and  O_2
REMARK    2  A    between atoms: O_2  and  C_3
REMARK    3  A    between atoms: C_3  and  C_4
REMARK    4  A    between atoms: N_6  and  C_7
REMARK    5  A    between atoms: C_9  and  C_10
REMARK    6  A    between atoms: N_12  and  C_13
REMARK    7  A    between atoms: C_13  and  C_14
REMARK    8  A    between atoms: C_14  and  C_15
REMARK    9  A    between atoms: N_22  and  C_23
REMARK                            x       y       z     vdW  Elec       q    Type
REMARK                         _______ _______ _______ _____ _____    ______ ____
ROOT
ATOM      1  C   UNL     1       4.229   6.025  17.237  0.00  0.00    +0.000 C 
ATOM      2  C   UNL     1       5.189   7.212  17.051  0.00  0.00    +0.000 C 
ATOM      3  C   UNL     1       6.601   6.606  16.985  0.00  0.00    +0.000 C 
ATOM      4  N   UNL     1       6.412   5.198  17.413  0.00  0.00    +0.000 NA
ATOM      5  C   UNL     1       7.484   4.325  16.946  0.00  0.00    +0.000 C 
ATOM      6  C   UNL     1       5.105   4.823  16.859  0.00  0.00    +0.000 C 
ENDROOT
BRANCH   1   9
ATOM      7  C   UNL     1       2.528   5.256  18.924  0.00  0.00    +0.000 C 
ATOM      8  O   UNL     1       1.706   4.890  18.091  0.00  0.00    +0.000 OA
ATOM      9  N   UNL     1       3.715   5.870  18.606  0.00  0.00    +0.000 N 
ATOM     10  H   UNL     1       4.397   5.872  19.359  0.00  0.00    +0.000 HD
BRANCH   7  11
ATOM     11  C   UNL     1       2.328   5.038  20.438  0.00  0.00    +0.000 C 
BRANCH  11  13
ATOM     12  C   UNL     1       3.019   2.781  20.462  0.00  0.00    +0.000 C 
ATOM     13  O   UNL     1       2.003   3.708  20.826  0.00  0.00    +0.000 OA
ENDBRANCH  11  13
ENDBRANCH   7  11
ENDBRANCH   1   9
BRANCH   3  14
ATOM     14  C   UNL     1       7.595   7.327  17.908  0.00  0.00    +0.000 C 
ATOM     15  O   UNL     1       8.151   6.759  18.846  0.00  0.00    +0.000 OA
ATOM     16  N   UNL     1       7.805   8.651  17.586  0.00  0.00    +0.000 N 
ATOM     17  H   UNL     1       7.235   9.028  16.836  0.00  0.00    +0.000 HD
BRANCH  16  18
ATOM     18  C   UNL     1       8.701   9.490  18.349  0.00  0.00    +0.000 C 
BRANCH  18  19
ATOM     19  C   UNL     1       8.741  10.919  17.815  0.00  0.00    +0.000 C 
BRANCH  19  20
ATOM     20  C   UNL     1       9.910  11.698  18.349  0.00  0.00    +0.000 A 
ATOM     21  C   UNL     1      10.622  11.230  19.461  0.00  0.00    +0.000 A 
ATOM     22  C   UNL     1      11.697  11.960  19.973  0.00  0.00    +0.000 A 
ATOM     23  C   UNL     1      12.067  13.166  19.380  0.00  0.00    +0.000 A 
ATOM     24  C   UNL     1      11.355  13.641  18.277  0.00  0.00    +0.000 A 
ATOM     25 CL   UNL     1      11.811  15.130  17.546  0.00  0.00    +0.000 Cl
ATOM     26  C   UNL     1      10.284  12.916  17.763  0.00  0.00    +0.000 A 
ENDBRANCH  19  20
ENDBRANCH  18  19
ENDBRANCH  16  18
ENDBRANCH   3  14
TORSDOF 7
ENDMDL
MODEL 7
REMARK VINA RESULT:      -6.8      1.009      1.027
REMARK  Name = 
REMARK  9 active torsions:
REMARK  status: ('A' for Active; 'I' for Inactive)
REMARK    1  A    between atoms: C_1  and  O_2
REMARK    2  A    between atoms: O_2  and  C_3
REMARK    3  A    between atoms: C_3  and  C_4
REMARK    4  A    between atoms: N_6  and  C_7
REMARK    5  A    between atoms: C_9  and  C_10
REMARK    6  A    between atoms: N_12  and  C_13
REMARK    7  A    between atoms: C_13  and  C_14
REMARK    8  A    between atoms: C_14  and  C_15
REMARK    9  A    between atoms: N_22  and  C_23
REMARK                            x       y       z     vdW  Elec       q    Type
REMARK                         _______ _______ _______ _____ _____    ______ ____
ROOT
ATOM      1  C   UNL     1       4.992   3.589  18.846  0.00  0.00    +0.000 C 
ATOM      2  C   UNL     1       4.548   4.726  19.783  0.00  0.00    +0.000 C 
ATOM      3  C   UNL     1       3.012   4.765  19.698  0.00  0.00    +0.000 C 
ATOM      4  N   UNL     1       2.690   3.886  18.548  0.00  0.00    +0.000 NA
ATOM      5  C   UNL     1       1.323   3.377  18.602  0.00  0.00    +0.000 C 
ATOM      6  C   UNL     1       3.688   2.812  18.620  0.00  0.00    +0.000 C 
ENDROOT
BRANCH   1   9
ATOM      7  C   UNL     1       6.840   4.465  17.380  0.00  0.00    +0.000 C 
ATOM      8  O   UNL     1       7.635   4.637  18.297  0.00  0.00    +0.000 OA
ATOM      9  N   UNL     1       5.544   4.043  17.562  0.00  0.00    +0.000 N 
ATOM     10  H   UNL     1       5.098   3.695  16.718  0.00  0.00    +0.000 HD
BRANCH   7  11
ATOM     11  C   UNL     1       7.220   4.682  15.901  0.00  0.00    +0.000 C 
BRANCH  11  13
ATOM     12  C   UNL     1       5.462   4.834  14.333  0.00  0.00    +0.000 C 
ATOM     13  O   UNL     1       6.361   5.551  15.171  0.00  0.00    +0.000 OA
ENDBRANCH  11  13
ENDBRANCH   7  11
ENDBRANCH   1   9
BRANCH   3  14
ATOM     14  C   UNL     1       2.472   6.185  19.467  0.00  0.00    +0.000 C 
ATOM     15  O   UNL     1       2.400   6.686  18.347  0.00  0.00    +0.000 OA
ATOM     16  N   UNL     1       2.075   6.830  20.619  0.00  0.00    +0.000 N 
ATOM     17  H   UNL     1       2.250   6.344  21.491  0.00  0.00    +0.000 HD
BRANCH  16  18
ATOM     18  C   UNL     1       1.549   8.176  20.597  0.00  0.00    +0.000 C 
BRANCH  18  19
ATOM     19  C   UNL     1       0.184   8.268  21.271  0.00  0.00    +0.000 C 
BRANCH  19  20
ATOM     20  C   UNL     1      -0.280   9.688  21.437  0.00  0.00    +0.000 A 
ATOM     21  C   UNL     1      -0.495  10.216  22.717  0.00  0.00    +0.000 A 
ATOM     22  C   UNL     1      -0.945  11.528  22.877  0.00  0.00    +0.000 A 
ATOM     23  C   UNL     1      -1.187  12.324  21.758  0.00  0.00    +0.000 A 
ATOM     24  C   UNL     1      -0.982  11.801  20.480  0.00  0.00    +0.000 A 
ATOM     25 CL   UNL     1      -1.281  12.783  19.100  0.00  0.00    +0.000 Cl
ATOM     26  C   UNL     1      -0.532  10.493  20.317  0.00  0.00    +0.000 A 
ENDBRANCH  19  20
ENDBRANCH  18  19
ENDBRANCH  16  18
ENDBRANCH   3  14
TORSDOF 7
ENDMDL
MODEL 8
REMARK VINA RESULT:      -6.8      2.046      2.410
REMARK  Name = 
REMARK  9 active torsions:
REMARK  status: ('A' for Active; 'I' for Inactive)
REMARK    1  A    between atoms: C_1  and  O_2
REMARK    2  A    between atoms: O_2  and  C_3
REMARK    3  A    between atoms: C_3  and  C_4
REMARK    4  A    between atoms: N_6  and  C_7
REMARK    5  A    between atoms: C_9  and  C_10
REMARK    6  A    between atoms: N_12  and  C_13
REMARK    7  A    between atoms: C_13  and  C_14
REMARK    8  A    between atoms: C_14  and  C_15
REMARK    9  A    between atoms: N_22  and  C_23
REMARK                            x       y       z     vdW  Elec       q    Type
REMARK                         _______ _______ _______ _____ _____    ______ ____
ROOT
ATOM      1  C   UNL     1       5.449   4.235  18.247  0.00  0.00    +0.000 C 
ATOM      2  C   UNL     1       5.140   5.408  19.194  0.00  0.00    +0.000 C 
ATOM      3  C   UNL     1       3.630   5.332  19.478  0.00  0.00    +0.000 C 
ATOM      4  N   UNL     1       3.124   4.345  18.494  0.00  0.00    +0.000 NA
ATOM      5  C   UNL     1       1.858   3.748  18.905  0.00  0.00    +0.000 C 
ATOM      6  C   UNL     1       4.202   3.353  18.388  0.00  0.00    +0.000 C 
ENDROOT
BRANCH   1   9
ATOM      7  C   UNL     1       6.831   4.508  16.162  0.00  0.00    +0.000 C 
ATOM      8  O   UNL     1       7.891   4.192  16.692  0.00  0.00    +0.000 OA
ATOM      9  N   UNL     1       5.643   4.625  16.843  0.00  0.00    +0.000 N 
ATOM     10  H   UNL     1       4.821   4.628  16.247  0.00  0.00    +0.000 HD
BRANCH   7  11
ATOM     11  C   UNL     1       6.709   4.785  14.650  0.00  0.00    +0.000 C 
BRANCH  11  13
ATOM     12  C   UNL     1       6.517   3.718  12.553  0.00  0.00    +0.000 C 
ATOM     13  O   UNL     1       6.048   3.775  13.895  0.00  0.00    +0.000 OA
ENDBRANCH  11  13
ENDBRANCH   7  11
ENDBRANCH   1   9
BRANCH   3  14
ATOM     14  C   UNL     1       2.929   6.688  19.301  0.00  0.00    +0.000 C 
ATOM     15  O   UNL     1       2.184   7.158  20.159  0.00  0.00    +0.000 OA
ATOM     16  N   UNL     1       3.216   7.319  18.110  0.00  0.00    +0.000 N 
ATOM     17  H   UNL     1       3.786   6.800  17.451  0.00  0.00    +0.000 HD
BRANCH  16  18
ATOM     18  C   UNL     1       2.640   8.599  17.766  0.00  0.00    +0.000 C 
BRANCH  18  19
ATOM     19  C   UNL     1       1.126   8.521  17.601  0.00  0.00    +0.000 C 
BRANCH  19  20
ATOM     20  C   UNL     1       0.423   9.717  18.179  0.00  0.00    +0.000 A 
ATOM     21  C   UNL     1      -0.869  10.051  17.753  0.00  0.00    +0.000 A 
ATOM     22  C   UNL     1      -1.519  11.172  18.272  0.00  0.00    +0.000 A 
ATOM     23  C   UNL     1      -0.882  11.972  19.219  0.00  0.00    +0.000 A 
ATOM     24  C   UNL     1       0.410  11.649  19.641  0.00  0.00    +0.000 A 
ATOM     25 CL   UNL     1       1.196  12.637  20.809  0.00  0.00    +0.000 Cl
ATOM     26  C   UNL     1       1.060  10.531  19.126  0.00  0.00    +0.000 A 
ENDBRANCH  19  20
ENDBRANCH  18  19
ENDBRANCH  16  18
ENDBRANCH   3  14
TORSDOF 7
ENDMDL
MODEL 9
REMARK VINA RESULT:      -6.7      4.553      8.959
REMARK  Name = 
REMARK  9 active torsions:
REMARK  status: ('A' for Active; 'I' for Inactive)
REMARK    1  A    between atoms: C_1  and  O_2
REMARK    2  A    between atoms: O_2  and  C_3
REMARK    3  A    between atoms: C_3  and  C_4
REMARK    4  A    between atoms: N_6  and  C_7
REMARK    5  A    between atoms: C_9  and  C_10
REMARK    6  A    between atoms: N_12  and  C_13
REMARK    7  A    between atoms: C_13  and  C_14
REMARK    8  A    between atoms: C_14  and  C_15
REMARK    9  A    between atoms: N_22  and  C_23
REMARK                            x       y       z     vdW  Elec       q    Type
REMARK                         _______ _______ _______ _____ _____    ______ ____
ROOT
ATOM      1  C   UNL     1      -1.511  10.920  19.227  0.00  0.00    +0.000 C 
ATOM      2  C   UNL     1      -0.479   9.813  19.502  0.00  0.00    +0.000 C 
ATOM      3  C   UNL     1       0.897  10.443  19.229  0.00  0.00    +0.000 C 
ATOM      4  N   UNL     1       0.581  11.729  18.560  0.00  0.00    +0.000 NA
ATOM      5  C   UNL     1       1.666  12.697  18.673  0.00  0.00    +0.000 C 
ATOM      6  C   UNL     1      -0.648  12.189  19.219  0.00  0.00    +0.000 C 
ENDROOT
BRANCH   1   9
ATOM      7  C   UNL     1      -3.452  11.337  17.681  0.00  0.00    +0.000 C 
ATOM      8  O   UNL     1      -4.145  11.898  18.524  0.00  0.00    +0.000 OA
ATOM      9  N   UNL     1      -2.225  10.780  17.950  0.00  0.00    +0.000 N 
ATOM     10  H   UNL     1      -1.663  10.595  17.124  0.00  0.00    +0.000 HD
BRANCH   7  11
ATOM     11  C   UNL     1      -3.877  11.219  16.204  0.00  0.00    +0.000 C 
BRANCH  11  13
ATOM     12  C   UNL     1      -3.578  10.063  14.167  0.00  0.00    +0.000 C 
ATOM     13  O   UNL     1      -2.957  10.540  15.356  0.00  0.00    +0.000 OA
ENDBRANCH  11  13
ENDBRANCH   7  11
ENDBRANCH   1   9
BRANCH   3  14
ATOM     14  C   UNL     1       1.780   9.563  18.331  0.00  0.00    +0.000 C 
ATOM     15  O   UNL     1       2.226   9.962  17.257  0.00  0.00    +0.000 OA
ATOM     16  N   UNL     1       2.025   8.306  18.840  0.00  0.00    +0.000 N 
ATOM     17  H   UNL     1       1.544   8.066  19.700  0.00  0.00    +0.000 HD
BRANCH  16  18
ATOM     18  C   UNL     1       2.828   7.338  18.129  0.00  0.00    +0.000 C 
BRANCH  18  19
ATOM     19  C   UNL     1       3.429   6.294  19.065  0.00  0.00    +0.000 C 
BRANCH  19  20
ATOM     20  C   UNL     1       2.598   5.044  19.139  0.00  0.00    +0.000 A 
ATOM     21  C   UNL     1       2.047   4.492  17.975  0.00  0.00    +0.000 A 
ATOM     22  C   UNL     1       1.258   3.341  18.040  0.00  0.00    +0.000 A 
ATOM     23  C   UNL     1       1.010   2.735  19.270  0.00  0.00    +0.000 A 
ATOM     24  C   UNL     1       1.549   3.286  20.435  0.00  0.00    +0.000 A 
ATOM     25 CL   UNL     1       1.241   2.537  21.953  0.00  0.00    +0.000 Cl
ATOM     26  C   UNL     1       2.337   4.432  20.373  0.00  0.00    +0.000 A 
ENDBRANCH  19  20
ENDBRANCH  18  19
ENDBRANCH  16  18
ENDBRANCH   3  14
TORSDOF 7
ENDMDL
