MODEL 1
REMARK VINA RESULT:      -7.8      0.000      0.000
REMARK  Name = 
REMARK  5 active torsions:
REMARK  status: ('A' for Active; 'I' for Inactive)
REMARK    1  A    between atoms: C_1  and  C_2
REMARK    2  A    between atoms: C_5  and  O_6
REMARK    3  A    between atoms: C_7  and  N_8
REMARK    4  A    between atoms: N_8  and  S_9
REMARK    5  A    between atoms: S_9  and  C_12
REMARK                            x       y       z     vdW  Elec       q    Type
REMARK                         _______ _______ _______ _____ _____    ______ ____
ROOT
ATOM      1  S   UNL     1       3.924   3.102  18.629  0.00  0.00    +0.000 S 
ATOM      2  O   UNL     1       3.973   2.819  20.053  0.00  0.00    +0.000 OA
ATOM      3  O   UNL     1       3.988   2.011  17.679  0.00  0.00    +0.000 OA
ENDROOT
BRANCH   1   4
ATOM      4  C   UNL     1       5.260   4.183  18.271  0.00  0.00    +0.000 A 
ATOM      5  C   UNL     1       5.916   4.888  19.308  0.00  0.00    +0.000 A 
ATOM      6  C   UNL     1       6.992   5.782  19.080  0.00  0.00    +0.000 A 
ATOM      7  C   UNL     1       7.509   6.041  17.802  0.00  0.00    +0.000 A 
ATOM      8  C   UNL     1       6.878   5.373  16.723  0.00  0.00    +0.000 A 
ATOM      9  N   UNL     1       7.232   5.479  15.434  0.00  0.00    +0.000 NA
ATOM     10  S   UNL     1       6.176   4.526  14.578  0.00  0.00    +0.000 S 
ATOM     11  N   UNL     1       5.236   3.924  15.805  0.00  0.00    +0.000 NA
ATOM     12  C   UNL     1       5.709   4.436  16.954  0.00  0.00    +0.000 A 
ENDBRANCH   1   4
BRANCH   1  13
ATOM     13  N   UNL     1       2.506   3.954  18.346  0.00  0.00    +0.000 N 
ATOM     14  H   UNL     1       1.689   3.377  18.188  0.00  0.00    +0.000 HD
BRANCH  13  20
ATOM     15  C   UNL     1       2.405   8.855  17.770  0.00  0.00    +0.000 C 
ATOM     16  C   UNL     1       2.268   7.654  18.658  0.00  0.00    +0.000 A 
ATOM     17  C   UNL     1       1.895   7.791  20.001  0.00  0.00    +0.000 A 
ATOM     18  C   UNL     1       1.717   6.665  20.806  0.00  0.00    +0.000 A 
ATOM     19  C   UNL     1       1.908   5.396  20.265  0.00  0.00    +0.000 A 
ATOM     20  C   UNL     1       2.315   5.240  18.937  0.00  0.00    +0.000 A 
ATOM     21  C   UNL     1       2.490   6.371  18.137  0.00  0.00    +0.000 A 
BRANCH  19  22
ATOM     22  O   UNL     1       1.667   4.294  21.033  0.00  0.00    +0.000 OA
ATOM     23  H   UNL     1       2.417   3.681  20.963  0.00  0.00    +0.000 HD
ENDBRANCH  19  22
ENDBRANCH  13  20
ENDBRANCH   1  13
TORSDOF 4
ENDMDL
MODEL 2
REMARK VINA RESULT:      -7.8      3.496      6.443
REMARK  Name = 
REMARK  5 active torsions:
REMARK  status: ('A' for Active; 'I' for Inactive)
REMARK    1  A    between atoms: C_1  and  C_2
REMARK    2  A    between atoms: C_5  and  O_6
REMARK    3  A    between atoms: C_7  and  N_8
REMARK    4  A    between atoms: N_8  and  S_9
REMARK    5  A    between atoms: S_9  and  C_12
REMARK                            x       y       z     vdW  Elec       q    Type
REMARK                         _______ _______ _______ _____ _____    ______ ____
ROOT
ATOM      1  S   UNL     1       5.584   6.077  16.411  0.00  0.00    +0.000 S 
ATOM      2  O   UNL     1       6.844   6.353  17.079  0.00  0.00    +0.000 OA
ATOM      3  O   UNL     1       5.120   6.965  15.366  0.00  0.00    +0.000 OA
ENDROOT
BRANCH   1   4
ATOM      4  C   UNL     1       4.341   6.034  17.649  0.00  0.00    +0.000 A 
ATOM      5  C   UNL     1       3.493   7.147  17.859  0.00  0.00    +0.000 A 
ATOM      6  C   UNL     1       2.479   7.175  18.849  0.00  0.00    +0.000 A 
ATOM      7  C   UNL     1       2.220   6.095  19.706  0.00  0.00    +0.000 A 
ATOM      8  C   UNL     1       3.052   4.958  19.550  0.00  0.00    +0.000 A 
ATOM      9  N   UNL     1       2.957   3.826  20.261  0.00  0.00    +0.000 NA
ATOM     10  S   UNL     1       4.163   2.825  19.713  0.00  0.00    +0.000 S 
ATOM     11  N   UNL     1       4.848   3.776  18.539  0.00  0.00    +0.000 NA
ATOM     12  C   UNL     1       4.157   4.928  18.512  0.00  0.00    +0.000 A 
ENDBRANCH   1   4
BRANCH   1  13
ATOM     13  N   UNL     1       5.698   4.531  15.767  0.00  0.00    +0.000 N 
ATOM     14  H   UNL     1       5.057   3.857  16.168  0.00  0.00    +0.000 HD
BRANCH  13  20
ATOM     15  C   UNL     1       4.658   2.714  11.297  0.00  0.00    +0.000 C 
ATOM     16  C   UNL     1       5.592   3.455  12.207  0.00  0.00    +0.000 A 
ATOM     17  C   UNL     1       6.782   4.011  11.718  0.00  0.00    +0.000 A 
ATOM     18  C   UNL     1       7.619   4.745  12.560  0.00  0.00    +0.000 A 
ATOM     19  C   UNL     1       7.265   4.928  13.894  0.00  0.00    +0.000 A 
ATOM     20  C   UNL     1       6.100   4.352  14.409  0.00  0.00    +0.000 A 
ATOM     21  C   UNL     1       5.266   3.620  13.561  0.00  0.00    +0.000 A 
BRANCH  19  22
ATOM     22  O   UNL     1       8.048   5.704  14.698  0.00  0.00    +0.000 OA
ATOM     23  H   UNL     1       7.909   5.450  15.625  0.00  0.00    +0.000 HD
ENDBRANCH  19  22
ENDBRANCH  13  20
ENDBRANCH   1  13
TORSDOF 4
ENDMDL
MODEL 3
REMARK VINA RESULT:      -7.5      1.578      2.024
REMARK  Name = 
REMARK  5 active torsions:
REMARK  status: ('A' for Active; 'I' for Inactive)
REMARK    1  A    between atoms: C_1  and  C_2
REMARK    2  A    between atoms: C_5  and  O_6
REMARK    3  A    between atoms: C_7  and  N_8
REMARK    4  A    between atoms: N_8  and  S_9
REMARK    5  A    between atoms: S_9  and  C_12
REMARK                            x       y       z     vdW  Elec       q    Type
REMARK                         _______ _______ _______ _____ _____    ______ ____
ROOT
ATOM      1  S   UNL     1       3.786   2.935  18.449  0.00  0.00    +0.000 S 
ATOM      2  O   UNL     1       4.300   3.032  19.804  0.00  0.00    +0.000 OA
ATOM      3  O   UNL     1       3.592   1.633  17.848  0.00  0.00    +0.000 OA
ENDROOT
BRANCH   1   4
ATOM      4  C   UNL     1       4.887   3.828  17.414  0.00  0.00    +0.000 A 
ATOM      5  C   UNL     1       4.754   3.778  16.006  0.00  0.00    +0.000 A 
ATOM      6  C   UNL     1       5.619   4.468  15.119  0.00  0.00    +0.000 A 
ATOM      7  C   UNL     1       6.681   5.271  15.561  0.00  0.00    +0.000 A 
ATOM      8  C   UNL     1       6.870   5.345  16.964  0.00  0.00    +0.000 A 
ATOM      9  N   UNL     1       7.817   6.065  17.581  0.00  0.00    +0.000 NA
ATOM     10  S   UNL     1       7.627   5.795  19.208  0.00  0.00    +0.000 S 
ATOM     11  N   UNL     1       6.325   4.767  19.203  0.00  0.00    +0.000 NA
ATOM     12  C   UNL     1       5.967   4.589  17.920  0.00  0.00    +0.000 A 
ENDBRANCH   1   4
BRANCH   1  13
ATOM     13  N   UNL     1       2.315   3.743  18.423  0.00  0.00    +0.000 N 
ATOM     14  H   UNL     1       1.501   3.142  18.455  0.00  0.00    +0.000 HD
BRANCH  13  20
ATOM     15  C   UNL     1       2.380   8.630  17.727  0.00  0.00    +0.000 C 
ATOM     16  C   UNL     1       2.242   7.456  18.651  0.00  0.00    +0.000 A 
ATOM     17  C   UNL     1       1.947   7.641  20.008  0.00  0.00    +0.000 A 
ATOM     18  C   UNL     1       1.767   6.542  20.850  0.00  0.00    +0.000 A 
ATOM     19  C   UNL     1       1.879   5.254  20.333  0.00  0.00    +0.000 A 
ATOM     20  C   UNL     1       2.208   5.049  18.990  0.00  0.00    +0.000 A 
ATOM     21  C   UNL     1       2.385   6.154  18.153  0.00  0.00    +0.000 A 
BRANCH  19  22
ATOM     22  O   UNL     1       1.634   4.181  21.141  0.00  0.00    +0.000 OA
ATOM     23  H   UNL     1       2.231   4.212  21.906  0.00  0.00    +0.000 HD
ENDBRANCH  19  22
ENDBRANCH  13  20
ENDBRANCH   1  13
TORSDOF 4
ENDMDL
MODEL 4
REMARK VINA RESULT:      -7.5      2.440      3.257
REMARK  Name = 
REMARK  5 active torsions:
REMARK  status: ('A' for Active; 'I' for Inactive)
REMARK    1  A    between atoms: C_1  and  C_2
REMARK    2  A    between atoms: C_5  and  O_6
REMARK    3  A    between atoms: C_7  and  N_8
REMARK    4  A    between atoms: N_8  and  S_9
REMARK    5  A    between atoms: S_9  and  C_12
REMARK                            x       y       z     vdW  Elec       q    Type
REMARK                         _______ _______ _______ _____ _____    ______ ____
ROOT
ATOM      1  S   UNL     1       2.882   4.851  18.891  0.00  0.00    +0.000 S 
ATOM      2  O   UNL     1       2.826   3.707  19.785  0.00  0.00    +0.000 OA
ATOM      3  O   UNL     1       1.759   5.137  18.024  0.00  0.00    +0.000 OA
ENDROOT
BRANCH   1   4
ATOM      4  C   UNL     1       4.292   4.638  17.867  0.00  0.00    +0.000 A 
ATOM      5  C   UNL     1       4.160   4.116  16.559  0.00  0.00    +0.000 A 
ATOM      6  C   UNL     1       5.261   3.911  15.690  0.00  0.00    +0.000 A 
ATOM      7  C   UNL     1       6.582   4.217  16.049  0.00  0.00    +0.000 A 
ATOM      8  C   UNL     1       6.774   4.730  17.357  0.00  0.00    +0.000 A 
ATOM      9  N   UNL     1       7.953   5.093  17.881  0.00  0.00    +0.000 NA
ATOM     10  S   UNL     1       7.642   5.599  19.431  0.00  0.00    +0.000 S 
ATOM     11  N   UNL     1       5.997   5.396  19.500  0.00  0.00    +0.000 NA
ATOM     12  C   UNL     1       5.606   4.927  18.303  0.00  0.00    +0.000 A 
ENDBRANCH   1   4
BRANCH   1  13
ATOM     13  N   UNL     1       3.160   6.205  19.844  0.00  0.00    +0.000 N 
ATOM     14  H   UNL     1       4.135   6.377  20.062  0.00  0.00    +0.000 HD
BRANCH  13  20
ATOM     15  C   UNL     1      -0.209   9.054  22.056  0.00  0.00    +0.000 C 
ATOM     16  C   UNL     1       0.620   8.731  20.849  0.00  0.00    +0.000 A 
ATOM     17  C   UNL     1       0.583   9.548  19.712  0.00  0.00    +0.000 A 
ATOM     18  C   UNL     1       1.398   9.271  18.613  0.00  0.00    +0.000 A 
ATOM     19  C   UNL     1       2.257   8.175  18.652  0.00  0.00    +0.000 A 
ATOM     20  C   UNL     1       2.282   7.327  19.764  0.00  0.00    +0.000 A 
ATOM     21  C   UNL     1       1.465   7.612  20.860  0.00  0.00    +0.000 A 
BRANCH  19  22
ATOM     22  O   UNL     1       3.103   7.945  17.606  0.00  0.00    +0.000 OA
ATOM     23  H   UNL     1       3.637   7.156  17.792  0.00  0.00    +0.000 HD
ENDBRANCH  19  22
ENDBRANCH  13  20
ENDBRANCH   1  13
TORSDOF 4
ENDMDL
MODEL 5
REMARK VINA RESULT:      -7.4      3.334      6.503
REMARK  Name = 
REMARK  5 active torsions:
REMARK  status: ('A' for Active; 'I' for Inactive)
REMARK    1  A    between atoms: C_1  and  C_2
REMARK    2  A    between atoms: C_5  and  O_6
REMARK    3  A    between atoms: C_7  and  N_8
REMARK    4  A    between atoms: N_8  and  S_9
REMARK    5  A    between atoms: S_9  and  C_12
REMARK                            x       y       z     vdW  Elec       q    Type
REMARK                         _______ _______ _______ _____ _____    ______ ____
ROOT
ATOM      1  S   UNL     1       5.126   4.811  17.226  0.00  0.00    +0.000 S 
ATOM      2  O   UNL     1       6.031   5.172  18.304  0.00  0.00    +0.000 OA
ATOM      3  O   UNL     1       4.638   5.836  16.328  0.00  0.00    +0.000 OA
ENDROOT
BRANCH   1   4
ATOM      4  C   UNL     1       3.724   4.050  17.960  0.00  0.00    +0.000 A 
ATOM      5  C   UNL     1       3.317   2.755  17.564  0.00  0.00    +0.000 A 
ATOM      6  C   UNL     1       2.188   2.095  18.112  0.00  0.00    +0.000 A 
ATOM      7  C   UNL     1       1.378   2.666  19.104  0.00  0.00    +0.000 A 
ATOM      8  C   UNL     1       1.733   3.972  19.528  0.00  0.00    +0.000 A 
ATOM      9  N   UNL     1       1.094   4.681  20.469  0.00  0.00    +0.000 NA
ATOM     10  S   UNL     1       1.881   6.139  20.573  0.00  0.00    +0.000 S 
ATOM     11  N   UNL     1       3.075   5.930  19.441  0.00  0.00    +0.000 NA
ATOM     12  C   UNL     1       2.922   4.697  18.928  0.00  0.00    +0.000 A 
ENDBRANCH   1   4
BRANCH   1  13
ATOM     13  N   UNL     1       5.902   3.640  16.306  0.00  0.00    +0.000 N 
ATOM     14  H   UNL     1       5.652   2.686  16.537  0.00  0.00    +0.000 HD
BRANCH  13  20
ATOM     15  C   UNL     1       5.346   2.682  11.496  0.00  0.00    +0.000 C 
ATOM     16  C   UNL     1       6.017   3.456  12.592  0.00  0.00    +0.000 A 
ATOM     17  C   UNL     1       6.934   4.473  12.296  0.00  0.00    +0.000 A 
ATOM     18  C   UNL     1       7.513   5.224  13.320  0.00  0.00    +0.000 A 
ATOM     19  C   UNL     1       7.172   4.961  14.644  0.00  0.00    +0.000 A 
ATOM     20  C   UNL     1       6.286   3.927  14.961  0.00  0.00    +0.000 A 
ATOM     21  C   UNL     1       5.709   3.181  13.931  0.00  0.00    +0.000 A 
BRANCH  19  22
ATOM     22  O   UNL     1       7.685   5.741  15.640  0.00  0.00    +0.000 OA
ATOM     23  H   UNL     1       7.056   6.450  15.851  0.00  0.00    +0.000 HD
ENDBRANCH  19  22
ENDBRANCH  13  20
ENDBRANCH   1  13
TORSDOF 4
ENDMDL
MODEL 6
REMARK VINA RESULT:      -7.4      2.922      5.847
REMARK  Name = 
REMARK  5 active torsions:
REMARK  status: ('A' for Active; 'I' for Inactive)
REMARK    1  A    between atoms: C_1  and  C_2
REMARK    2  A    between atoms: C_5  and  O_6
REMARK    3  A    between atoms: C_7  and  N_8
REMARK    4  A    between atoms: N_8  and  S_9
REMARK    5  A    between atoms: S_9  and  C_12
REMARK                            x       y       z     vdW  Elec       q    Type
REMARK                         _______ _______ _______ _____ _____    ______ ____
ROOT
ATOM      1  S   UNL     1       7.156   6.109  17.853  0.00  0.00    +0.000 S 
ATOM      2  O   UNL     1       7.751   5.981  19.172  0.00  0.00    +0.000 OA
ATOM      3  O   UNL     1       7.448   7.275  17.047  0.00  0.00    +0.000 OA
ENDROOT
BRANCH   1   4
ATOM      4  C   UNL     1       5.415   6.042  18.062  0.00  0.00    +0.000 A 
ATOM      5  C   UNL     1       4.595   7.113  17.635  0.00  0.00    +0.000 A 
ATOM      6  C   UNL     1       3.185   7.120  17.787  0.00  0.00    +0.000 A 
ATOM      7  C   UNL     1       2.476   6.060  18.369  0.00  0.00    +0.000 A 
ATOM      8  C   UNL     1       3.250   4.965  18.830  0.00  0.00    +0.000 A 
ATOM      9  N   UNL     1       2.760   3.856  19.402  0.00  0.00    +0.000 NA
ATOM     10  S   UNL     1       4.068   2.905  19.777  0.00  0.00    +0.000 S 
ATOM     11  N   UNL     1       5.311   3.849  19.216  0.00  0.00    +0.000 NA
ATOM     12  C   UNL     1       4.761   4.959  18.696  0.00  0.00    +0.000 A 
ENDBRANCH   1   4
BRANCH   1  13
ATOM     13  N   UNL     1       7.604   4.748  16.979  0.00  0.00    +0.000 N 
ATOM     14  H   UNL     1       7.803   3.929  17.541  0.00  0.00    +0.000 HD
BRANCH  13  20
ATOM     15  C   UNL     1       8.014   5.684  12.150  0.00  0.00    +0.000 C 
ATOM     16  C   UNL     1       7.295   5.010  13.280  0.00  0.00    +0.000 A 
ATOM     17  C   UNL     1       6.211   4.157  13.036  0.00  0.00    +0.000 A 
ATOM     18  C   UNL     1       5.582   3.491  14.089  0.00  0.00    +0.000 A 
ATOM     19  C   UNL     1       6.040   3.674  15.391  0.00  0.00    +0.000 A 
ATOM     20  C   UNL     1       7.099   4.548  15.659  0.00  0.00    +0.000 A 
ATOM     21  C   UNL     1       7.725   5.210  14.600  0.00  0.00    +0.000 A 
BRANCH  19  22
ATOM     22  O   UNL     1       5.470   2.970  16.411  0.00  0.00    +0.000 OA
ATOM     23  H   UNL     1       5.682   2.028  16.310  0.00  0.00    +0.000 HD
ENDBRANCH  19  22
ENDBRANCH  13  20
ENDBRANCH   1  13
TORSDOF 4
ENDMDL
MODEL 7
REMARK VINA RESULT:      -7.2      2.974      6.254
REMARK  Name = 
REMARK  5 active torsions:
REMARK  status: ('A' for Active; 'I' for Inactive)
REMARK    1  A    between atoms: C_1  and  C_2
REMARK    2  A    between atoms: C_5  and  O_6
REMARK    3  A    between atoms: C_7  and  N_8
REMARK    4  A    between atoms: N_8  and  S_9
REMARK    5  A    between atoms: S_9  and  C_12
REMARK                            x       y       z     vdW  Elec       q    Type
REMARK                         _______ _______ _______ _____ _____    ______ ____
ROOT
ATOM      1  S   UNL     1       5.020   4.253  17.404  0.00  0.00    +0.000 S 
ATOM      2  O   UNL     1       4.544   2.932  17.030  0.00  0.00    +0.000 OA
ATOM      3  O   UNL     1       6.335   4.399  17.992  0.00  0.00    +0.000 OA
ENDROOT
BRANCH   1   4
ATOM      4  C   UNL     1       3.862   4.916  18.544  0.00  0.00    +0.000 A 
ATOM      5  C   UNL     1       3.418   6.254  18.425  0.00  0.00    +0.000 A 
ATOM      6  C   UNL     1       2.494   6.848  19.321  0.00  0.00    +0.000 A 
ATOM      7  C   UNL     1       1.929   6.157  20.403  0.00  0.00    +0.000 A 
ATOM      8  C   UNL     1       2.351   4.814  20.579  0.00  0.00    +0.000 A 
ATOM      9  N   UNL     1       1.921   3.987  21.542  0.00  0.00    +0.000 NA
ATOM     10  S   UNL     1       2.730   2.554  21.325  0.00  0.00    +0.000 S 
ATOM     11  N   UNL     1       3.649   2.913  19.991  0.00  0.00    +0.000 NA
ATOM     12  C   UNL     1       3.360   4.179  19.642  0.00  0.00    +0.000 A 
ENDBRANCH   1   4
BRANCH   1  13
ATOM     13  N   UNL     1       4.959   5.205  16.023  0.00  0.00    +0.000 N 
ATOM     14  H   UNL     1       4.843   6.196  16.197  0.00  0.00    +0.000 HD
BRANCH  13  20
ATOM     15  C   UNL     1       4.858   2.971  11.623  0.00  0.00    +0.000 C 
ATOM     16  C   UNL     1       5.623   3.706  12.683  0.00  0.00    +0.000 A 
ATOM     17  C   UNL     1       6.967   4.050  12.492  0.00  0.00    +0.000 A 
ATOM     18  C   UNL     1       7.657   4.780  13.461  0.00  0.00    +0.000 A 
ATOM     19  C   UNL     1       6.999   5.172  14.625  0.00  0.00    +0.000 A 
ATOM     20  C   UNL     1       5.668   4.808  14.850  0.00  0.00    +0.000 A 
ATOM     21  C   UNL     1       4.984   4.078  13.875  0.00  0.00    +0.000 A 
BRANCH  19  22
ATOM     22  O   UNL     1       7.653   5.945  15.540  0.00  0.00    +0.000 OA
ATOM     23  H   UNL     1       8.402   5.446  15.906  0.00  0.00    +0.000 HD
ENDBRANCH  19  22
ENDBRANCH  13  20
ENDBRANCH   1  13
TORSDOF 4
ENDMDL
MODEL 8
REMARK VINA RESULT:      -7.2      3.272      6.384
REMARK  Name = 
REMARK  5 active torsions:
REMARK  status: ('A' for Active; 'I' for Inactive)
REMARK    1  A    between atoms: C_1  and  C_2
REMARK    2  A    between atoms: C_5  and  O_6
REMARK    3  A    between atoms: C_7  and  N_8
REMARK    4  A    between atoms: N_8  and  S_9
REMARK    5  A    between atoms: S_9  and  C_12
REMARK                            x       y       z     vdW  Elec       q    Type
REMARK                         _______ _______ _______ _____ _____    ______ ____
ROOT
ATOM      1  S   UNL     1       5.294   5.388  17.063  0.00  0.00    +0.000 S 
ATOM      2  O   UNL     1       6.356   5.774  17.977  0.00  0.00    +0.000 OA
ATOM      3  O   UNL     1       4.813   6.339  16.083  0.00  0.00    +0.000 OA
ENDROOT
BRANCH   1   4
ATOM      4  C   UNL     1       3.919   4.906  18.042  0.00  0.00    +0.000 A 
ATOM      5  C   UNL     1       2.676   5.568  17.914  0.00  0.00    +0.000 A 
ATOM      6  C   UNL     1       1.534   5.231  18.684  0.00  0.00    +0.000 A 
ATOM      7  C   UNL     1       1.534   4.202  19.637  0.00  0.00    +0.000 A 
ATOM      8  C   UNL     1       2.760   3.514  19.817  0.00  0.00    +0.000 A 
ATOM      9  N   UNL     1       2.960   2.497  20.667  0.00  0.00    +0.000 NA
ATOM     10  S   UNL     1       4.555   2.064  20.514  0.00  0.00    +0.000 S 
ATOM     11  N   UNL     1       5.059   3.136  19.352  0.00  0.00    +0.000 NA
ATOM     12  C   UNL     1       3.994   3.885  19.018  0.00  0.00    +0.000 A 
ENDBRANCH   1   4
BRANCH   1  13
ATOM     13  N   UNL     1       5.825   4.022  16.244  0.00  0.00    +0.000 N 
ATOM     14  H   UNL     1       5.396   3.155  16.544  0.00  0.00    +0.000 HD
BRANCH  13  20
ATOM     15  C   UNL     1       5.245   2.603  11.552  0.00  0.00    +0.000 C 
ATOM     16  C   UNL     1       5.971   3.426  12.574  0.00  0.00    +0.000 A 
ATOM     17  C   UNL     1       6.983   4.316  12.193  0.00  0.00    +0.000 A 
ATOM     18  C   UNL     1       7.617   5.118  13.144  0.00  0.00    +0.000 A 
ATOM     19  C   UNL     1       7.235   5.032  14.480  0.00  0.00    +0.000 A 
ATOM     20  C   UNL     1       6.251   4.125  14.886  0.00  0.00    +0.000 A 
ATOM     21  C   UNL     1       5.620   3.327  13.928  0.00  0.00    +0.000 A 
BRANCH  19  22
ATOM     22  O   UNL     1       7.806   5.865  15.398  0.00  0.00    +0.000 OA
ATOM     23  H   UNL     1       7.648   6.788  15.138  0.00  0.00    +0.000 HD
ENDBRANCH  19  22
ENDBRANCH  13  20
ENDBRANCH   1  13
TORSDOF 4
ENDMDL
MODEL 9
REMARK VINA RESULT:      -7.1      3.064      6.142
REMARK  Name = 
REMARK  5 active torsions:
REMARK  status: ('A' for Active; 'I' for Inactive)
REMARK    1  A    between atoms: C_1  and  C_2
REMARK    2  A    between atoms: C_5  and  O_6
REMARK    3  A    between atoms: C_7  and  N_8
REMARK    4  A    between atoms: N_8  and  S_9
REMARK    5  A    between atoms: S_9  and  C_12
REMARK                            x       y       z     vdW  Elec       q    Type
REMARK                         _______ _______ _______ _____ _____    ______ ____
ROOT
ATOM      1  S   UNL     1       5.112   5.715  17.352  0.00  0.00    +0.000 S 
ATOM      2  O   UNL     1       6.250   6.094  18.173  0.00  0.00    +0.000 OA
ATOM      3  O   UNL     1       4.594   6.647  16.373  0.00  0.00    +0.000 OA
ENDROOT
BRANCH   1   4
ATOM      4  C   UNL     1       3.796   5.319  18.444  0.00  0.00    +0.000 A 
ATOM      5  C   UNL     1       3.138   6.334  19.177  0.00  0.00    +0.000 A 
ATOM      6  C   UNL     1       2.076   6.075  20.081  0.00  0.00    +0.000 A 
ATOM      7  C   UNL     1       1.578   4.787  20.322  0.00  0.00    +0.000 A 
ATOM      8  C   UNL     1       2.212   3.728  19.624  0.00  0.00    +0.000 A 
ATOM      9  N   UNL     1       1.876   2.433  19.709  0.00  0.00    +0.000 NA
ATOM     10  S   UNL     1       2.928   1.610  18.725  0.00  0.00    +0.000 S 
ATOM     11  N   UNL     1       3.846   2.859  18.134  0.00  0.00    +0.000 NA
ATOM     12  C   UNL     1       3.366   3.992  18.676  0.00  0.00    +0.000 A 
ENDBRANCH   1   4
BRANCH   1  13
ATOM     13  N   UNL     1       5.535   4.301  16.551  0.00  0.00    +0.000 N 
ATOM     14  H   UNL     1       4.997   3.485  16.818  0.00  0.00    +0.000 HD
BRANCH  13  20
ATOM     15  C   UNL     1       5.089   2.945  11.826  0.00  0.00    +0.000 C 
ATOM     16  C   UNL     1       5.833   3.693  12.893  0.00  0.00    +0.000 A 
ATOM     17  C   UNL     1       6.949   4.478  12.575  0.00  0.00    +0.000 A 
ATOM     18  C   UNL     1       7.603   5.213  13.565  0.00  0.00    +0.000 A 
ATOM     19  C   UNL     1       7.138   5.166  14.877  0.00  0.00    +0.000 A 
ATOM     20  C   UNL     1       6.047   4.361  15.220  0.00  0.00    +0.000 A 
ATOM     21  C   UNL     1       5.397   3.629  14.224  0.00  0.00    +0.000 A 
BRANCH  19  22
ATOM     22  O   UNL     1       7.735   5.939  15.831  0.00  0.00    +0.000 OA
ATOM     23  H   UNL     1       7.072   6.523  16.233  0.00  0.00    +0.000 HD
ENDBRANCH  19  22
ENDBRANCH  13  20
ENDBRANCH   1  13
TORSDOF 4
ENDMDL
