MODEL 1
REMARK VINA RESULT:      -8.9      0.000      0.000
REMARK  Name = 
REMARK  7 active torsions:
REMARK  status: ('A' for Active; 'I' for Inactive)
REMARK    1  A    between atoms: C_1  and  C_2
REMARK    2  A    between atoms: N_7  and  C_8
REMARK    3  A    between atoms: C_11  and  C_12
REMARK    4  A    between atoms: C_12  and  N_13
REMARK    5  A    between atoms: N_13  and  C_14
REMARK    6  A    between atoms: N_13  and  S_18
REMARK    7  A    between atoms: S_18  and  C_21
REMARK                            x       y       z     vdW  Elec       q    Type
REMARK                         _______ _______ _______ _____ _____    ______ ____
ROOT
ATOM      1  C   UNL     1       4.512   5.730  18.162  0.00  0.00    +0.000 C 
ENDROOT
BRANCH   1   5
ATOM      2  C   UNL     1       1.431   8.340  19.806  0.00  0.00    +0.000 A 
ATOM      3  C   UNL     1       1.872   7.197  20.496  0.00  0.00    +0.000 A 
ATOM      4  C   UNL     1       2.839   6.327  19.969  0.00  0.00    +0.000 A 
ATOM      5  C   UNL     1       3.392   6.572  18.713  0.00  0.00    +0.000 A 
ATOM      6  C   UNL     1       2.931   7.678  18.002  0.00  0.00    +0.000 A 
ATOM      7  F   UNL     1       3.420   7.939  16.781  0.00  0.00    +0.000 F 
ATOM      8  C   UNL     1       1.973   8.543  18.532  0.00  0.00    +0.000 A 
BRANCH   2  15
ATOM      9  C   UNL     1      -2.014  13.295  21.767  0.00  0.00    +0.000 C 
ATOM     10  C   UNL     1      -1.602  12.047  22.502  0.00  0.00    +0.000 C 
ATOM     11  O   UNL     1      -2.186  11.720  23.535  0.00  0.00    +0.000 OA
ATOM     12  N   UNL     1      -0.592  11.288  21.947  0.00  0.00    +0.000 N 
ATOM     13  C   UNL     1      -0.233  10.002  22.559  0.00  0.00    +0.000 C 
ATOM     14  C   UNL     1      -0.315   8.853  21.534  0.00  0.00    +0.000 C 
ATOM     15  N   UNL     1       0.499   9.198  20.352  0.00  0.00    +0.000 N 
ATOM     16  C   UNL     1       0.121  10.470  19.708  0.00  0.00    +0.000 C 
ATOM     17  C   UNL     1       0.180  11.615  20.736  0.00  0.00    +0.000 C 
ENDBRANCH   2  15
ENDBRANCH   1   5
BRANCH   1  18
ATOM     18  N   UNL     1       4.095   4.527  17.365  0.00  0.00    +0.000 NA
BRANCH  18  19
ATOM     19  C   UNL     1       4.599   4.637  15.926  0.00  0.00    +0.000 C 
ATOM     20  C   UNL     1       5.401   5.899  15.509  0.00  0.00    +0.000 C 
ATOM     21  C   UNL     1       6.306   4.992  14.661  0.00  0.00    +0.000 C 
ATOM     22  C   UNL     1       5.874   3.826  15.562  0.00  0.00    +0.000 C 
ENDBRANCH  18  19
BRANCH  18  23
ATOM     23  S   UNL     1       4.377   3.070  18.270  0.00  0.00    +0.000 S 
ATOM     24  O   UNL     1       4.279   1.928  17.388  0.00  0.00    +0.000 OA
ATOM     25  O   UNL     1       5.588   3.297  19.034  0.00  0.00    +0.000 OA
BRANCH  23  26
ATOM     26  C   UNL     1       3.006   2.967  19.357  0.00  0.00    +0.000 A 
ATOM     27  C   UNL     1       3.229   2.617  20.687  0.00  0.00    +0.000 A 
ATOM     28  F   UNL     1       4.442   2.247  21.114  0.00  0.00    +0.000 F 
ATOM     29  C   UNL     1       2.181   2.636  21.611  0.00  0.00    +0.000 A 
ATOM     30  C   UNL     1       0.902   3.013  21.205  0.00  0.00    +0.000 A 
ATOM     31  C   UNL     1       0.677   3.354  19.871  0.00  0.00    +0.000 A 
ATOM     32  C   UNL     1       1.731   3.332  18.955  0.00  0.00    +0.000 A 
ATOM     33  F   UNL     1       1.459   3.683  17.692  0.00  0.00    +0.000 F 
ENDBRANCH  23  26
ENDBRANCH  18  23
ENDBRANCH   1  18
TORSDOF 6
ENDMDL
MODEL 2
REMARK VINA RESULT:      -8.8      0.130      1.446
REMARK  Name = 
REMARK  7 active torsions:
REMARK  status: ('A' for Active; 'I' for Inactive)
REMARK    1  A    between atoms: C_1  and  C_2
REMARK    2  A    between atoms: N_7  and  C_8
REMARK    3  A    between atoms: C_11  and  C_12
REMARK    4  A    between atoms: C_12  and  N_13
REMARK    5  A    between atoms: N_13  and  C_14
REMARK    6  A    between atoms: N_13  and  S_18
REMARK    7  A    between atoms: S_18  and  C_21
REMARK                            x       y       z     vdW  Elec       q    Type
REMARK                         _______ _______ _______ _____ _____    ______ ____
ROOT
ATOM      1  C   UNL     1       4.518   5.729  18.153  0.00  0.00    +0.000 C 
ENDROOT
BRANCH   1   5
ATOM      2  C   UNL     1       1.476   8.380  19.804  0.00  0.00    +0.000 A 
ATOM      3  C   UNL     1       1.920   7.245  20.503  0.00  0.00    +0.000 A 
ATOM      4  C   UNL     1       2.875   6.362  19.976  0.00  0.00    +0.000 A 
ATOM      5  C   UNL     1       3.411   6.586  18.708  0.00  0.00    +0.000 A 
ATOM      6  C   UNL     1       2.946   7.684  17.988  0.00  0.00    +0.000 A 
ATOM      7  F   UNL     1       3.419   7.926  16.757  0.00  0.00    +0.000 F 
ATOM      8  C   UNL     1       2.001   8.562  18.519  0.00  0.00    +0.000 A 
BRANCH   2  15
ATOM      9  C   UNL     1      -1.788  13.373  21.967  0.00  0.00    +0.000 C 
ATOM     10  C   UNL     1      -1.545  12.026  22.594  0.00  0.00    +0.000 C 
ATOM     11  O   UNL     1      -2.255  11.643  23.524  0.00  0.00    +0.000 OA
ATOM     12  N   UNL     1      -0.540  11.248  22.057  0.00  0.00    +0.000 N 
ATOM     13  C   UNL     1      -0.340   9.881  22.554  0.00  0.00    +0.000 C 
ATOM     14  C   UNL     1      -0.398   8.854  21.405  0.00  0.00    +0.000 C 
ATOM     15  N   UNL     1       0.557   9.251  20.350  0.00  0.00    +0.000 N 
ATOM     16  C   UNL     1       0.339  10.609  19.819  0.00  0.00    +0.000 C 
ATOM     17  C   UNL     1       0.374  11.634  20.969  0.00  0.00    +0.000 C 
ENDBRANCH   2  15
ENDBRANCH   1   5
BRANCH   1  18
ATOM     18  N   UNL     1       4.084   4.546  17.337  0.00  0.00    +0.000 NA
BRANCH  18  19
ATOM     19  C   UNL     1       4.620   4.652  15.910  0.00  0.00    +0.000 C 
ATOM     20  C   UNL     1       5.435   5.912  15.510  0.00  0.00    +0.000 C 
ATOM     21  C   UNL     1       6.357   5.002  14.684  0.00  0.00    +0.000 C 
ATOM     22  C   UNL     1       5.902   3.838  15.577  0.00  0.00    +0.000 C 
ENDBRANCH  18  19
BRANCH  18  23
ATOM     23  S   UNL     1       4.305   3.074  18.236  0.00  0.00    +0.000 S 
ATOM     24  O   UNL     1       4.059   1.941  17.372  0.00  0.00    +0.000 OA
ATOM     25  O   UNL     1       5.577   3.205  18.919  0.00  0.00    +0.000 OA
BRANCH  23  26
ATOM     26  C   UNL     1       3.003   3.087  19.409  0.00  0.00    +0.000 A 
ATOM     27  C   UNL     1       1.718   3.415  18.982  0.00  0.00    +0.000 A 
ATOM     28  F   UNL     1       1.487   3.831  17.731  0.00  0.00    +0.000 F 
ATOM     29  C   UNL     1       0.634   3.326  19.859  0.00  0.00    +0.000 A 
ATOM     30  C   UNL     1       0.834   2.900  21.170  0.00  0.00    +0.000 A 
ATOM     31  C   UNL     1       2.122   2.580  21.601  0.00  0.00    +0.000 A 
ATOM     32  C   UNL     1       3.199   2.673  20.717  0.00  0.00    +0.000 A 
ATOM     33  F   UNL     1       4.409   2.340  21.182  0.00  0.00    +0.000 F 
ENDBRANCH  23  26
ENDBRANCH  18  23
ENDBRANCH   1  18
TORSDOF 6
ENDMDL
MODEL 3
REMARK VINA RESULT:      -8.7      1.988      2.503
REMARK  Name = 
REMARK  7 active torsions:
REMARK  status: ('A' for Active; 'I' for Inactive)
REMARK    1  A    between atoms: C_1  and  C_2
REMARK    2  A    between atoms: N_7  and  C_8
REMARK    3  A    between atoms: C_11  and  C_12
REMARK    4  A    between atoms: C_12  and  N_13
REMARK    5  A    between atoms: N_13  and  C_14
REMARK    6  A    between atoms: N_13  and  S_18
REMARK    7  A    between atoms: S_18  and  C_21
REMARK                            x       y       z     vdW  Elec       q    Type
REMARK                         _______ _______ _______ _____ _____    ______ ____
ROOT
ATOM      1  C   UNL     1       3.261   5.927  18.865  0.00  0.00    +0.000 C 
ENDROOT
BRANCH   1   5
ATOM      2  C   UNL     1       1.104   9.703  19.180  0.00  0.00    +0.000 A 
ATOM      3  C   UNL     1       1.883   9.392  18.053  0.00  0.00    +0.000 A 
ATOM      4  C   UNL     1       2.610   8.197  17.946  0.00  0.00    +0.000 A 
ATOM      5  C   UNL     1       2.589   7.269  18.986  0.00  0.00    +0.000 A 
ATOM      6  C   UNL     1       1.855   7.586  20.127  0.00  0.00    +0.000 A 
ATOM      7  F   UNL     1       1.823   6.731  21.160  0.00  0.00    +0.000 F 
ATOM      8  C   UNL     1       1.129   8.773  20.226  0.00  0.00    +0.000 A 
BRANCH   2  15
ATOM      9  C   UNL     1      -1.020  15.629  19.978  0.00  0.00    +0.000 C 
ATOM     10  C   UNL     1      -1.641  14.314  20.370  0.00  0.00    +0.000 C 
ATOM     11  O   UNL     1      -2.841  14.255  20.639  0.00  0.00    +0.000 OA
ATOM     12  N   UNL     1      -0.824  13.201  20.367  0.00  0.00    +0.000 N 
ATOM     13  C   UNL     1      -1.405  11.877  20.627  0.00  0.00    +0.000 C 
ATOM     14  C   UNL     1      -1.085  10.893  19.483  0.00  0.00    +0.000 C 
ATOM     15  N   UNL     1       0.374  10.871  19.256  0.00  0.00    +0.000 N 
ATOM     16  C   UNL     1       0.959  12.191  18.958  0.00  0.00    +0.000 C 
ATOM     17  C   UNL     1       0.622  13.181  20.088  0.00  0.00    +0.000 C 
ENDBRANCH   2  15
ENDBRANCH   1   5
BRANCH   1  18
ATOM     18  N   UNL     1       3.211   5.290  17.506  0.00  0.00    +0.000 NA
BRANCH  18  19
ATOM     19  C   UNL     1       4.618   5.154  16.925  0.00  0.00    +0.000 C 
ATOM     20  C   UNL     1       5.215   6.346  16.128  0.00  0.00    +0.000 C 
ATOM     21  C   UNL     1       6.575   6.044  16.777  0.00  0.00    +0.000 C 
ATOM     22  C   UNL     1       5.807   5.342  17.908  0.00  0.00    +0.000 C 
ENDBRANCH  18  19
BRANCH  18  23
ATOM     23  S   UNL     1       2.145   3.916  17.518  0.00  0.00    +0.000 S 
ATOM     24  O   UNL     1       0.781   4.363  17.342  0.00  0.00    +0.000 OA
ATOM     25  O   UNL     1       2.718   2.952  16.599  0.00  0.00    +0.000 OA
BRANCH  23  26
ATOM     26  C   UNL     1       2.252   3.303  19.156  0.00  0.00    +0.000 A 
ATOM     27  C   UNL     1       3.416   2.648  19.553  0.00  0.00    +0.000 A 
ATOM     28  F   UNL     1       4.393   2.379  18.679  0.00  0.00    +0.000 F 
ATOM     29  C   UNL     1       3.587   2.247  20.880  0.00  0.00    +0.000 A 
ATOM     30  C   UNL     1       2.591   2.507  21.819  0.00  0.00    +0.000 A 
ATOM     31  C   UNL     1       1.421   3.154  21.420  0.00  0.00    +0.000 A 
ATOM     32  C   UNL     1       1.259   3.551  20.091  0.00  0.00    +0.000 A 
ATOM     33  F   UNL     1       0.123   4.180  19.769  0.00  0.00    +0.000 F 
ENDBRANCH  23  26
ENDBRANCH  18  23
ENDBRANCH   1  18
TORSDOF 6
ENDMDL
MODEL 4
REMARK VINA RESULT:      -8.6      1.650      4.021
REMARK  Name = 
REMARK  7 active torsions:
REMARK  status: ('A' for Active; 'I' for Inactive)
REMARK    1  A    between atoms: C_1  and  C_2
REMARK    2  A    between atoms: N_7  and  C_8
REMARK    3  A    between atoms: C_11  and  C_12
REMARK    4  A    between atoms: C_12  and  N_13
REMARK    5  A    between atoms: N_13  and  C_14
REMARK    6  A    between atoms: N_13  and  S_18
REMARK    7  A    between atoms: S_18  and  C_21
REMARK                            x       y       z     vdW  Elec       q    Type
REMARK                         _______ _______ _______ _____ _____    ______ ____
ROOT
ATOM      1  C   UNL     1       3.199   5.914  18.265  0.00  0.00    +0.000 C 
ENDROOT
BRANCH   1   5
ATOM      2  C   UNL     1       1.119   9.355  19.952  0.00  0.00    +0.000 A 
ATOM      3  C   UNL     1       1.325   8.181  20.697  0.00  0.00    +0.000 A 
ATOM      4  C   UNL     1       1.964   7.052  20.163  0.00  0.00    +0.000 A 
ATOM      5  C   UNL     1       2.410   7.059  18.842  0.00  0.00    +0.000 A 
ATOM      6  C   UNL     1       2.172   8.202  18.080  0.00  0.00    +0.000 A 
ATOM      7  F   UNL     1       2.566   8.245  16.799  0.00  0.00    +0.000 F 
ATOM      8  C   UNL     1       1.542   9.324  18.618  0.00  0.00    +0.000 A 
BRANCH   2  15
ATOM      9  C   UNL     1      -2.019  13.553  23.529  0.00  0.00    +0.000 C 
ATOM     10  C   UNL     1      -2.066  13.316  22.042  0.00  0.00    +0.000 C 
ATOM     11  O   UNL     1      -2.536  14.175  21.297  0.00  0.00    +0.000 OA
ATOM     12  N   UNL     1      -1.529  12.135  21.570  0.00  0.00    +0.000 N 
ATOM     13  C   UNL     1      -1.443  11.908  20.122  0.00  0.00    +0.000 C 
ATOM     14  C   UNL     1       0.003  11.587  19.692  0.00  0.00    +0.000 C 
ATOM     15  N   UNL     1       0.514  10.464  20.504  0.00  0.00    +0.000 N 
ATOM     16  C   UNL     1       0.465  10.700  21.959  0.00  0.00    +0.000 C 
ATOM     17  C   UNL     1      -0.974  11.043  22.387  0.00  0.00    +0.000 C 
ENDBRANCH   2  15
ENDBRANCH   1   5
BRANCH   1  18
ATOM     18  N   UNL     1       3.565   4.821  19.227  0.00  0.00    +0.000 NA
BRANCH  18  19
ATOM     19  C   UNL     1       2.572   3.663  19.127  0.00  0.00    +0.000 C 
ATOM     20  C   UNL     1       1.479   3.520  20.220  0.00  0.00    +0.000 C 
ATOM     21  C   UNL     1       0.493   3.099  19.120  0.00  0.00    +0.000 C 
ATOM     22  C   UNL     1       1.402   3.824  18.116  0.00  0.00    +0.000 C 
ENDBRANCH  18  19
BRANCH  18  23
ATOM     23  S   UNL     1       5.274   4.502  19.164  0.00  0.00    +0.000 S 
ATOM     24  O   UNL     1       5.987   5.560  19.845  0.00  0.00    +0.000 OA
ATOM     25  O   UNL     1       5.443   3.124  19.582  0.00  0.00    +0.000 OA
BRANCH  23  26
ATOM     26  C   UNL     1       5.676   4.656  17.465  0.00  0.00    +0.000 A 
ATOM     27  C   UNL     1       6.561   5.658  17.072  0.00  0.00    +0.000 A 
ATOM     28  F   UNL     1       7.009   6.568  17.945  0.00  0.00    +0.000 F 
ATOM     29  C   UNL     1       6.995   5.742  15.748  0.00  0.00    +0.000 A 
ATOM     30  C   UNL     1       6.548   4.813  14.809  0.00  0.00    +0.000 A 
ATOM     31  C   UNL     1       5.655   3.816  15.199  0.00  0.00    +0.000 A 
ATOM     32  C   UNL     1       5.226   3.741  16.526  0.00  0.00    +0.000 A 
ATOM     33  F   UNL     1       4.379   2.754  16.846  0.00  0.00    +0.000 F 
ENDBRANCH  23  26
ENDBRANCH  18  23
ENDBRANCH   1  18
TORSDOF 6
ENDMDL
MODEL 5
REMARK VINA RESULT:      -8.6      1.522      1.926
REMARK  Name = 
REMARK  7 active torsions:
REMARK  status: ('A' for Active; 'I' for Inactive)
REMARK    1  A    between atoms: C_1  and  C_2
REMARK    2  A    between atoms: N_7  and  C_8
REMARK    3  A    between atoms: C_11  and  C_12
REMARK    4  A    between atoms: C_12  and  N_13
REMARK    5  A    between atoms: N_13  and  C_14
REMARK    6  A    between atoms: N_13  and  S_18
REMARK    7  A    between atoms: S_18  and  C_21
REMARK                            x       y       z     vdW  Elec       q    Type
REMARK                         _______ _______ _______ _____ _____    ______ ____
ROOT
ATOM      1  C   UNL     1       3.782   5.443  18.667  0.00  0.00    +0.000 C 
ENDROOT
BRANCH   1   5
ATOM      2  C   UNL     1       1.414   8.976  19.625  0.00  0.00    +0.000 A 
ATOM      3  C   UNL     1       1.486   7.879  20.501  0.00  0.00    +0.000 A 
ATOM      4  C   UNL     1       2.216   6.720  20.197  0.00  0.00    +0.000 A 
ATOM      5  C   UNL     1       2.896   6.618  18.984  0.00  0.00    +0.000 A 
ATOM      6  C   UNL     1       2.796   7.682  18.089  0.00  0.00    +0.000 A 
ATOM      7  F   UNL     1       3.416   7.618  16.902  0.00  0.00    +0.000 F 
ATOM      8  C   UNL     1       2.073   8.834  18.398  0.00  0.00    +0.000 A 
BRANCH   2  15
ATOM      9  C   UNL     1      -1.933  13.595  22.403  0.00  0.00    +0.000 C 
ATOM     10  C   UNL     1      -2.086  12.969  21.042  0.00  0.00    +0.000 C 
ATOM     11  O   UNL     1      -2.740  13.542  20.171  0.00  0.00    +0.000 OA
ATOM     12  N   UNL     1      -1.435  11.773  20.817  0.00  0.00    +0.000 N 
ATOM     13  C   UNL     1      -1.454  11.181  19.474  0.00  0.00    +0.000 C 
ATOM     14  C   UNL     1      -0.025  10.921  18.957  0.00  0.00    +0.000 C 
ATOM     15  N   UNL     1       0.713  10.117  19.953  0.00  0.00    +0.000 N 
ATOM     16  C   UNL     1       0.769  10.724  21.296  0.00  0.00    +0.000 C 
ATOM     17  C   UNL     1      -0.658  11.005  21.804  0.00  0.00    +0.000 C 
ENDBRANCH   2  15
ENDBRANCH   1   5
BRANCH   1  18
ATOM     18  N   UNL     1       3.531   4.771  17.348  0.00  0.00    +0.000 NA
BRANCH  18  19
ATOM     19  C   UNL     1       4.851   4.359  16.696  0.00  0.00    +0.000 C 
ATOM     20  C   UNL     1       5.430   5.243  15.557  0.00  0.00    +0.000 C 
ATOM     21  C   UNL     1       6.832   4.995  16.134  0.00  0.00    +0.000 C 
ATOM     22  C   UNL     1       6.155   4.685  17.477  0.00  0.00    +0.000 C 
ENDBRANCH  18  19
BRANCH  18  23
ATOM     23  S   UNL     1       2.241   3.614  17.490  0.00  0.00    +0.000 S 
ATOM     24  O   UNL     1       0.972   4.283  17.310  0.00  0.00    +0.000 OA
ATOM     25  O   UNL     1       2.602   2.499  16.637  0.00  0.00    +0.000 OA
BRANCH  23  26
ATOM     26  C   UNL     1       2.297   3.113  19.169  0.00  0.00    +0.000 A 
ATOM     27  C   UNL     1       3.449   2.492  19.646  0.00  0.00    +0.000 A 
ATOM     28  F   UNL     1       4.454   2.169  18.824  0.00  0.00    +0.000 F 
ATOM     29  C   UNL     1       3.578   2.181  21.001  0.00  0.00    +0.000 A 
ATOM     30  C   UNL     1       2.552   2.499  21.889  0.00  0.00    +0.000 A 
ATOM     31  C   UNL     1       1.393   3.112  21.410  0.00  0.00    +0.000 A 
ATOM     32  C   UNL     1       1.274   3.418  20.053  0.00  0.00    +0.000 A 
ATOM     33  F   UNL     1       0.147   4.019  19.653  0.00  0.00    +0.000 F 
ENDBRANCH  23  26
ENDBRANCH  18  23
ENDBRANCH   1  18
TORSDOF 6
ENDMDL
MODEL 6
REMARK VINA RESULT:      -8.6      1.137      1.881
REMARK  Name = 
REMARK  7 active torsions:
REMARK  status: ('A' for Active; 'I' for Inactive)
REMARK    1  A    between atoms: C_1  and  C_2
REMARK    2  A    between atoms: N_7  and  C_8
REMARK    3  A    between atoms: C_11  and  C_12
REMARK    4  A    between atoms: C_12  and  N_13
REMARK    5  A    between atoms: N_13  and  C_14
REMARK    6  A    between atoms: N_13  and  S_18
REMARK    7  A    between atoms: S_18  and  C_21
REMARK                            x       y       z     vdW  Elec       q    Type
REMARK                         _______ _______ _______ _____ _____    ______ ____
ROOT
ATOM      1  C   UNL     1       5.083   5.071  18.264  0.00  0.00    +0.000 C 
ENDROOT
BRANCH   1   5
ATOM      2  C   UNL     1       2.087   8.128  19.093  0.00  0.00    +0.000 A 
ATOM      3  C   UNL     1       2.311   7.058  19.977  0.00  0.00    +0.000 A 
ATOM      4  C   UNL     1       3.247   6.047  19.713  0.00  0.00    +0.000 A 
ATOM      5  C   UNL     1       3.989   6.070  18.533  0.00  0.00    +0.000 A 
ATOM      6  C   UNL     1       3.744   7.103  17.629  0.00  0.00    +0.000 A 
ATOM      7  F   UNL     1       4.420   7.153  16.472  0.00  0.00    +0.000 F 
ATOM      8  C   UNL     1       2.816   8.108  17.899  0.00  0.00    +0.000 A 
BRANCH   2  15
ATOM      9  C   UNL     1      -1.269  13.494  19.547  0.00  0.00    +0.000 C 
ATOM     10  C   UNL     1      -0.819  12.537  20.618  0.00  0.00    +0.000 C 
ATOM     11  O   UNL     1      -1.352  12.560  21.728  0.00  0.00    +0.000 OA
ATOM     12  N   UNL     1       0.165  11.628  20.285  0.00  0.00    +0.000 N 
ATOM     13  C   UNL     1       0.555  10.596  21.254  0.00  0.00    +0.000 C 
ATOM     14  C   UNL     1       0.426   9.184  20.651  0.00  0.00    +0.000 C 
ATOM     15  N   UNL     1       1.180   9.127  19.382  0.00  0.00    +0.000 N 
ATOM     16  C   UNL     1       0.768  10.135  18.389  0.00  0.00    +0.000 C 
ATOM     17  C   UNL     1       0.876  11.546  18.998  0.00  0.00    +0.000 C 
ENDBRANCH   2  15
ENDBRANCH   1   5
BRANCH   1  18
ATOM     18  N   UNL     1       4.682   3.860  17.472  0.00  0.00    +0.000 NA
BRANCH  18  19
ATOM     19  C   UNL     1       5.600   3.681  16.263  0.00  0.00    +0.000 C 
ATOM     20  C   UNL     1       5.280   4.462  14.960  0.00  0.00    +0.000 C 
ATOM     21  C   UNL     1       6.789   4.679  14.770  0.00  0.00    +0.000 C 
ATOM     22  C   UNL     1       6.947   4.456  16.281  0.00  0.00    +0.000 C 
ENDBRANCH  18  19
BRANCH  18  23
ATOM     23  S   UNL     1       4.376   2.515  18.531  0.00  0.00    +0.000 S 
ATOM     24  O   UNL     1       4.262   1.303  17.750  0.00  0.00    +0.000 OA
ATOM     25  O   UNL     1       5.358   2.606  19.594  0.00  0.00    +0.000 OA
BRANCH  23  26
ATOM     26  C   UNL     1       2.778   2.832  19.178  0.00  0.00    +0.000 A 
ATOM     27  C   UNL     1       1.744   3.133  18.294  0.00  0.00    +0.000 A 
ATOM     28  F   UNL     1       1.975   3.299  16.986  0.00  0.00    +0.000 F 
ATOM     29  C   UNL     1       0.435   3.280  18.758  0.00  0.00    +0.000 A 
ATOM     30  C   UNL     1       0.154   3.118  20.113  0.00  0.00    +0.000 A 
ATOM     31  C   UNL     1       1.191   2.826  21.000  0.00  0.00    +0.000 A 
ATOM     32  C   UNL     1       2.497   2.682  20.527  0.00  0.00    +0.000 A 
ATOM     33  F   UNL     1       3.449   2.389  21.421  0.00  0.00    +0.000 F 
ENDBRANCH  23  26
ENDBRANCH  18  23
ENDBRANCH   1  18
TORSDOF 6
ENDMDL
MODEL 7
REMARK VINA RESULT:      -8.6      1.632      2.494
REMARK  Name = 
REMARK  7 active torsions:
REMARK  status: ('A' for Active; 'I' for Inactive)
REMARK    1  A    between atoms: C_1  and  C_2
REMARK    2  A    between atoms: N_7  and  C_8
REMARK    3  A    between atoms: C_11  and  C_12
REMARK    4  A    between atoms: C_12  and  N_13
REMARK    5  A    between atoms: N_13  and  C_14
REMARK    6  A    between atoms: N_13  and  S_18
REMARK    7  A    between atoms: S_18  and  C_21
REMARK                            x       y       z     vdW  Elec       q    Type
REMARK                         _______ _______ _______ _____ _____    ______ ____
ROOT
ATOM      1  C   UNL     1       4.199   5.084  18.588  0.00  0.00    +0.000 C 
ENDROOT
BRANCH   1   5
ATOM      2  C   UNL     1       1.672   8.615  18.982  0.00  0.00    +0.000 A 
ATOM      3  C   UNL     1       2.446   8.389  17.830  0.00  0.00    +0.000 A 
ATOM      4  C   UNL     1       3.289   7.275  17.698  0.00  0.00    +0.000 A 
ATOM      5  C   UNL     1       3.395   6.349  18.734  0.00  0.00    +0.000 A 
ATOM      6  C   UNL     1       2.666   6.587  19.898  0.00  0.00    +0.000 A 
ATOM      7  F   UNL     1       2.753   5.733  20.927  0.00  0.00    +0.000 F 
ATOM      8  C   UNL     1       1.824   7.692  20.022  0.00  0.00    +0.000 A 
BRANCH   2  15
ATOM      9  C   UNL     1      -1.991  13.451  20.844  0.00  0.00    +0.000 C 
ATOM     10  C   UNL     1      -2.247  12.377  19.820  0.00  0.00    +0.000 C 
ATOM     11  O   UNL     1      -3.138  12.524  18.983  0.00  0.00    +0.000 OA
ATOM     12  N   UNL     1      -1.423  11.270  19.841  0.00  0.00    +0.000 N 
ATOM     13  C   UNL     1      -1.553  10.250  18.793  0.00  0.00    +0.000 C 
ATOM     14  C   UNL     1      -0.209  10.009  18.077  0.00  0.00    +0.000 C 
ATOM     15  N   UNL     1       0.828   9.702  19.083  0.00  0.00    +0.000 N 
ATOM     16  C   UNL     1       0.991  10.739  20.118  0.00  0.00    +0.000 C 
ATOM     17  C   UNL     1      -0.356  10.996  20.819  0.00  0.00    +0.000 C 
ENDBRANCH   2  15
ENDBRANCH   1   5
BRANCH   1  18
ATOM     18  N   UNL     1       4.052   4.363  17.279  0.00  0.00    +0.000 NA
BRANCH  18  19
ATOM     19  C   UNL     1       5.348   4.447  16.473  0.00  0.00    +0.000 C 
ATOM     20  C   UNL     1       5.663   5.756  15.699  0.00  0.00    +0.000 C 
ATOM     21  C   UNL     1       7.137   5.586  16.095  0.00  0.00    +0.000 C 
ATOM     22  C   UNL     1       6.656   4.718  17.267  0.00  0.00    +0.000 C 
ENDBRANCH  18  19
BRANCH  18  23
ATOM     23  S   UNL     1       3.281   2.822  17.517  0.00  0.00    +0.000 S 
ATOM     24  O   UNL     1       2.147   2.709  16.627  0.00  0.00    +0.000 OA
ATOM     25  O   UNL     1       4.338   1.831  17.477  0.00  0.00    +0.000 OA
BRANCH  23  26
ATOM     26  C   UNL     1       2.624   2.917  19.139  0.00  0.00    +0.000 A 
ATOM     27  C   UNL     1       1.301   3.321  19.305  0.00  0.00    +0.000 A 
ATOM     28  F   UNL     1       0.570   3.746  18.267  0.00  0.00    +0.000 F 
ATOM     29  C   UNL     1       0.705   3.299  20.568  0.00  0.00    +0.000 A 
ATOM     30  C   UNL     1       1.434   2.866  21.674  0.00  0.00    +0.000 A 
ATOM     31  C   UNL     1       2.763   2.471  21.510  0.00  0.00    +0.000 A 
ATOM     32  C   UNL     1       3.349   2.496  20.242  0.00  0.00    +0.000 A 
ATOM     33  F   UNL     1       4.621   2.093  20.143  0.00  0.00    +0.000 F 
ENDBRANCH  23  26
ENDBRANCH  18  23
ENDBRANCH   1  18
TORSDOF 6
ENDMDL
MODEL 8
REMARK VINA RESULT:      -8.6      1.819      4.206
REMARK  Name = 
REMARK  7 active torsions:
REMARK  status: ('A' for Active; 'I' for Inactive)
REMARK    1  A    between atoms: C_1  and  C_2
REMARK    2  A    between atoms: N_7  and  C_8
REMARK    3  A    between atoms: C_11  and  C_12
REMARK    4  A    between atoms: C_12  and  N_13
REMARK    5  A    between atoms: N_13  and  C_14
REMARK    6  A    between atoms: N_13  and  S_18
REMARK    7  A    between atoms: S_18  and  C_21
REMARK                            x       y       z     vdW  Elec       q    Type
REMARK                         _______ _______ _______ _____ _____    ______ ____
ROOT
ATOM      1  C   UNL     1       3.103   5.783  17.955  0.00  0.00    +0.000 C 
ENDROOT
BRANCH   1   5
ATOM      2  C   UNL     1       1.211   9.334  19.633  0.00  0.00    +0.000 A 
ATOM      3  C   UNL     1       1.672   9.303  18.305  0.00  0.00    +0.000 A 
ATOM      4  C   UNL     1       2.312   8.182  17.757  0.00  0.00    +0.000 A 
ATOM      5  C   UNL     1       2.524   7.045  18.535  0.00  0.00    +0.000 A 
ATOM      6  C   UNL     1       2.111   7.080  19.866  0.00  0.00    +0.000 A 
ATOM      7  F   UNL     1       2.313   6.017  20.657  0.00  0.00    +0.000 F 
ATOM      8  C   UNL     1       1.470   8.196  20.405  0.00  0.00    +0.000 A 
BRANCH   2  15
ATOM      9  C   UNL     1      -1.982  13.561  23.126  0.00  0.00    +0.000 C 
ATOM     10  C   UNL     1      -2.121  13.201  21.671  0.00  0.00    +0.000 C 
ATOM     11  O   UNL     1      -2.714  13.958  20.903  0.00  0.00    +0.000 OA
ATOM     12  N   UNL     1      -1.526  12.029  21.247  0.00  0.00    +0.000 N 
ATOM     13  C   UNL     1      -1.530  11.692  19.818  0.00  0.00    +0.000 C 
ATOM     14  C   UNL     1      -0.100  11.447  19.297  0.00  0.00    +0.000 C 
ATOM     15  N   UNL     1       0.560  10.436  20.147  0.00  0.00    +0.000 N 
ATOM     16  C   UNL     1       0.602  10.785  21.579  0.00  0.00    +0.000 C 
ATOM     17  C   UNL     1      -0.824  11.052  22.095  0.00  0.00    +0.000 C 
ENDBRANCH   2  15
ENDBRANCH   1   5
BRANCH   1  18
ATOM     18  N   UNL     1       3.468   4.714  18.945  0.00  0.00    +0.000 NA
BRANCH  18  19
ATOM     19  C   UNL     1       2.590   3.479  18.750  0.00  0.00    +0.000 C 
ATOM     20  C   UNL     1       1.796   2.926  19.965  0.00  0.00    +0.000 C 
ATOM     21  C   UNL     1       0.626   2.633  19.014  0.00  0.00    +0.000 C 
ATOM     22  C   UNL     1       1.208   3.697  18.072  0.00  0.00    +0.000 C 
ENDBRANCH  18  19
BRANCH  18  23
ATOM     23  S   UNL     1       5.196   4.539  19.042  0.00  0.00    +0.000 S 
ATOM     24  O   UNL     1       5.756   5.673  19.743  0.00  0.00    +0.000 OA
ATOM     25  O   UNL     1       5.439   3.193  19.523  0.00  0.00    +0.000 OA
BRANCH  23  26
ATOM     26  C   UNL     1       5.735   4.677  17.380  0.00  0.00    +0.000 A 
ATOM     27  C   UNL     1       6.610   5.707  17.041  0.00  0.00    +0.000 A 
ATOM     28  F   UNL     1       6.947   6.651  17.927  0.00  0.00    +0.000 F 
ATOM     29  C   UNL     1       7.152   5.783  15.756  0.00  0.00    +0.000 A 
ATOM     30  C   UNL     1       6.823   4.820  14.804  0.00  0.00    +0.000 A 
ATOM     31  C   UNL     1       5.939   3.794  15.140  0.00  0.00    +0.000 A 
ATOM     32  C   UNL     1       5.402   3.727  16.427  0.00  0.00    +0.000 A 
ATOM     33  F   UNL     1       4.571   2.713  16.697  0.00  0.00    +0.000 F 
ENDBRANCH  23  26
ENDBRANCH  18  23
ENDBRANCH   1  18
TORSDOF 6
ENDMDL
MODEL 9
REMARK VINA RESULT:      -8.5      2.015      2.786
REMARK  Name = 
REMARK  7 active torsions:
REMARK  status: ('A' for Active; 'I' for Inactive)
REMARK    1  A    between atoms: C_1  and  C_2
REMARK    2  A    between atoms: N_7  and  C_8
REMARK    3  A    between atoms: C_11  and  C_12
REMARK    4  A    between atoms: C_12  and  N_13
REMARK    5  A    between atoms: N_13  and  C_14
REMARK    6  A    between atoms: N_13  and  S_18
REMARK    7  A    between atoms: S_18  and  C_21
REMARK                            x       y       z     vdW  Elec       q    Type
REMARK                         _______ _______ _______ _____ _____    ______ ____
ROOT
ATOM      1  C   UNL     1       3.184   6.085  18.973  0.00  0.00    +0.000 C 
ENDROOT
BRANCH   1   5
ATOM      2  C   UNL     1       1.020   9.862  19.226  0.00  0.00    +0.000 A 
ATOM      3  C   UNL     1       1.805   9.537  18.106  0.00  0.00    +0.000 A 
ATOM      4  C   UNL     1       2.534   8.341  18.019  0.00  0.00    +0.000 A 
ATOM      5  C   UNL     1       2.509   7.427  19.072  0.00  0.00    +0.000 A 
ATOM      6  C   UNL     1       1.770   7.759  20.206  0.00  0.00    +0.000 A 
ATOM      7  F   UNL     1       1.735   6.919  21.250  0.00  0.00    +0.000 F 
ATOM      8  C   UNL     1       1.042   8.947  20.285  0.00  0.00    +0.000 A 
BRANCH   2  15
ATOM      9  C   UNL     1      -1.088  15.819  19.805  0.00  0.00    +0.000 C 
ATOM     10  C   UNL     1      -1.667  14.529  20.324  0.00  0.00    +0.000 C 
ATOM     11  O   UNL     1      -2.843  14.483  20.684  0.00  0.00    +0.000 OA
ATOM     12  N   UNL     1      -0.843  13.421  20.331  0.00  0.00    +0.000 N 
ATOM     13  C   UNL     1      -1.392  12.114  20.715  0.00  0.00    +0.000 C 
ATOM     14  C   UNL     1      -1.150  11.061  19.615  0.00  0.00    +0.000 C 
ATOM     15  N   UNL     1       0.289  11.030  19.281  0.00  0.00    +0.000 N 
ATOM     16  C   UNL     1       0.839  12.331  18.859  0.00  0.00    +0.000 C 
ATOM     17  C   UNL     1       0.578  13.389  19.947  0.00  0.00    +0.000 C 
ENDBRANCH   2  15
ENDBRANCH   1   5
BRANCH   1  18
ATOM     18  N   UNL     1       3.186   5.453  17.611  0.00  0.00    +0.000 NA
BRANCH  18  19
ATOM     19  C   UNL     1       4.597   5.454  17.021  0.00  0.00    +0.000 C 
ATOM     20  C   UNL     1       5.083   6.711  16.250  0.00  0.00    +0.000 C 
ATOM     21  C   UNL     1       6.467   6.515  16.886  0.00  0.00    +0.000 C 
ATOM     22  C   UNL     1       5.771   5.724  18.004  0.00  0.00    +0.000 C 
ENDBRANCH  18  19
BRANCH  18  23
ATOM     23  S   UNL     1       2.256   3.984  17.621  0.00  0.00    +0.000 S 
ATOM     24  O   UNL     1       0.860   4.296  17.405  0.00  0.00    +0.000 OA
ATOM     25  O   UNL     1       2.941   3.066  16.732  0.00  0.00    +0.000 OA
BRANCH  23  26
ATOM     26  C   UNL     1       2.379   3.408  19.271  0.00  0.00    +0.000 A 
ATOM     27  C   UNL     1       1.255   3.473  20.091  0.00  0.00    +0.000 A 
ATOM     28  F   UNL     1       0.130   4.070  19.680  0.00  0.00    +0.000 F 
ATOM     29  C   UNL     1       1.279   2.922  21.374  0.00  0.00    +0.000 A 
ATOM     30  C   UNL     1       2.433   2.294  21.840  0.00  0.00    +0.000 A 
ATOM     31  C   UNL     1       3.563   2.237  21.023  0.00  0.00    +0.000 A 
ATOM     32  C   UNL     1       3.528   2.792  19.742  0.00  0.00    +0.000 A 
ATOM     33  F   UNL     1       4.637   2.696  18.998  0.00  0.00    +0.000 F 
ENDBRANCH  23  26
ENDBRANCH  18  23
ENDBRANCH   1  18
TORSDOF 6
ENDMDL
