MODEL 1
REMARK VINA RESULT:      -9.2      0.000      0.000
REMARK  Name = 
REMARK  6 active torsions:
REMARK  status: ('A' for Active; 'I' for Inactive)
REMARK    1  A    between atoms: C_1  and  N_2
REMARK    2  A    between atoms: C_11  and  C_12
REMARK    3  A    between atoms: CA_13  and  N_14
REMARK    4  A    between atoms: CA_13  and  C_23
REMARK    5  A    between atoms: C_15  and  C_17
REMARK    6  A    between atoms: C_23  and  OXT_25
REMARK                            x       y       z     vdW  Elec       q    Type
REMARK                         _______ _______ _______ _____ _____    ______ ____
ROOT
ATOM      1  C   UNL     1       1.008   8.678  21.435  0.00  0.00    +0.000 C 
ATOM      2  CA  UNL     1       0.009   9.574  21.492  0.00  0.00    +0.000 C 
ENDROOT
BRANCH   1  13
ATOM      3  C   UNL     1       4.586   5.862  16.649  0.00  0.00    +0.000 C 
ATOM      4  N   UNL     1       3.662   5.478  17.694  0.00  0.00    +0.000 N 
ATOM      5  C   UNL     1       3.405   4.189  18.106  0.00  0.00    +0.000 A 
ATOM      6  C   UNL     1       3.829   2.954  17.587  0.00  0.00    +0.000 A 
ATOM      7  C   UNL     1       3.395   1.783  18.213  0.00  0.00    +0.000 A 
ATOM      8  C   UNL     1       2.589   1.845  19.345  0.00  0.00    +0.000 A 
ATOM      9  C   UNL     1       2.189   3.084  19.872  0.00  0.00    +0.000 A 
ATOM     10  C   UNL     1       2.583   4.285  19.237  0.00  0.00    +0.000 A 
ATOM     11  C   UNL     1       2.314   5.682  19.471  0.00  0.00    +0.000 A 
ATOM     12  C   UNL     1       1.601   6.427  20.453  0.00  0.00    +0.000 A 
ATOM     13  C   UNL     1       1.503   7.830  20.340  0.00  0.00    +0.000 A 
ATOM     14  C   UNL     1       2.071   8.476  19.244  0.00  0.00    +0.000 A 
ATOM     15  C   UNL     1       2.805   7.773  18.290  0.00  0.00    +0.000 A 
ATOM     16  C   UNL     1       2.938   6.386  18.440  0.00  0.00    +0.000 A 
ENDBRANCH   1  13
BRANCH   2  17
ATOM     17  N   UNL     1      -0.865   9.943  20.491  0.00  0.00    +0.000 N 
ATOM     18  C   UNL     1      -0.676  10.926  19.545  0.00  0.00    +0.000 C 
ATOM     19  O   UNL     1       0.204  11.776  19.565  0.00  0.00    +0.000 OA
ATOM     20  H   UNL     1      -1.784   9.515  20.549  0.00  0.00    +0.000 HD
BRANCH  18  21
ATOM     21  C   UNL     1      -1.685  10.917  18.455  0.00  0.00    +0.000 A 
ATOM     22  C   UNL     1      -2.858  11.683  18.512  0.00  0.00    +0.000 A 
ATOM     23  C   UNL     1      -3.863  11.479  17.566  0.00  0.00    +0.000 A 
ATOM     24  C   UNL     1      -3.691  10.525  16.563  0.00  0.00    +0.000 A 
ATOM     25  C   UNL     1      -2.494   9.812  16.469  0.00  0.00    +0.000 A 
ATOM     26  C   UNL     1      -1.483  10.016  17.406  0.00  0.00    +0.000 A 
ENDBRANCH  18  21
ENDBRANCH   2  17
BRANCH   2  27
ATOM     27  C   UNL     1      -0.224  10.211  22.830  0.00  0.00    +0.000 C 
ATOM     28  O   UNL     1      -0.453  11.386  23.037  0.00  0.00    +0.000 OA
BRANCH  27  29
ATOM     29  OXT UNL     1      -0.130   9.283  23.819  0.00  0.00    +0.000 OA
ATOM     30  HXT UNL     1      -0.198   8.379  23.452  0.00  0.00    +0.000 HD
ENDBRANCH  27  29
ENDBRANCH   2  27
TORSDOF 5
ENDMDL
MODEL 2
REMARK VINA RESULT:      -8.9      0.839      1.381
REMARK  Name = 
REMARK  6 active torsions:
REMARK  status: ('A' for Active; 'I' for Inactive)
REMARK    1  A    between atoms: C_1  and  N_2
REMARK    2  A    between atoms: C_11  and  C_12
REMARK    3  A    between atoms: CA_13  and  N_14
REMARK    4  A    between atoms: CA_13  and  C_23
REMARK    5  A    between atoms: C_15  and  C_17
REMARK    6  A    between atoms: C_23  and  OXT_25
REMARK                            x       y       z     vdW  Elec       q    Type
REMARK                         _______ _______ _______ _____ _____    ______ ____
ROOT
ATOM      1  C   UNL     1       0.909   9.428  21.153  0.00  0.00    +0.000 C 
ATOM      2  CA  UNL     1      -0.157  10.241  21.077  0.00  0.00    +0.000 C 
ENDROOT
BRANCH   1  13
ATOM      3  C   UNL     1       4.464   5.912  16.834  0.00  0.00    +0.000 C 
ATOM      4  N   UNL     1       3.652   5.699  18.012  0.00  0.00    +0.000 N 
ATOM      5  C   UNL     1       3.558   4.523  18.722  0.00  0.00    +0.000 A 
ATOM      6  C   UNL     1       4.077   3.244  18.458  0.00  0.00    +0.000 A 
ATOM      7  C   UNL     1       3.808   2.215  19.364  0.00  0.00    +0.000 A 
ATOM      8  C   UNL     1       3.072   2.465  20.517  0.00  0.00    +0.000 A 
ATOM      9  C   UNL     1       2.577   3.751  20.786  0.00  0.00    +0.000 A 
ATOM     10  C   UNL     1       2.802   4.803  19.868  0.00  0.00    +0.000 A 
ATOM     11  C   UNL     1       2.401   6.187  19.805  0.00  0.00    +0.000 A 
ATOM     12  C   UNL     1       1.676   7.072  20.652  0.00  0.00    +0.000 A 
ATOM     13  C   UNL     1       1.423   8.397  20.237  0.00  0.00    +0.000 A 
ATOM     14  C   UNL     1       1.852   8.821  18.981  0.00  0.00    +0.000 A 
ATOM     15  C   UNL     1       2.596   7.984  18.150  0.00  0.00    +0.000 A 
ATOM     16  C   UNL     1       2.883   6.687  18.594  0.00  0.00    +0.000 A 
ENDBRANCH   1  13
BRANCH   2  17
ATOM     17  N   UNL     1      -1.103  10.318  20.076  0.00  0.00    +0.000 N 
ATOM     18  C   UNL     1      -1.114  11.192  19.011  0.00  0.00    +0.000 C 
ATOM     19  O   UNL     1      -0.404  12.181  18.893  0.00  0.00    +0.000 OA
ATOM     20  H   UNL     1      -1.926   9.744  20.224  0.00  0.00    +0.000 HD
BRANCH  18  21
ATOM     21  C   UNL     1      -2.125  10.865  17.973  0.00  0.00    +0.000 A 
ATOM     22  C   UNL     1      -1.873   9.947  16.943  0.00  0.00    +0.000 A 
ATOM     23  C   UNL     1      -2.773   9.835  15.883  0.00  0.00    +0.000 A 
ATOM     24  C   UNL     1      -3.922  10.625  15.859  0.00  0.00    +0.000 A 
ATOM     25  C   UNL     1      -4.203  11.488  16.919  0.00  0.00    +0.000 A 
ATOM     26  C   UNL     1      -3.313  11.600  17.985  0.00  0.00    +0.000 A 
ENDBRANCH  18  21
ENDBRANCH   2  17
BRANCH   2  27
ATOM     27  C   UNL     1      -0.381  11.138  22.259  0.00  0.00    +0.000 C 
ATOM     28  O   UNL     1      -0.906  10.825  23.309  0.00  0.00    +0.000 OA
BRANCH  27  29
ATOM     29  OXT UNL     1       0.078  12.390  21.997  0.00  0.00    +0.000 OA
ATOM     30  HXT UNL     1       0.951  12.354  21.559  0.00  0.00    +0.000 HD
ENDBRANCH  27  29
ENDBRANCH   2  27
TORSDOF 5
ENDMDL
MODEL 3
REMARK VINA RESULT:      -8.8      3.445      8.179
REMARK  Name = 
REMARK  6 active torsions:
REMARK  status: ('A' for Active; 'I' for Inactive)
REMARK    1  A    between atoms: C_1  and  N_2
REMARK    2  A    between atoms: C_11  and  C_12
REMARK    3  A    between atoms: CA_13  and  N_14
REMARK    4  A    between atoms: CA_13  and  C_23
REMARK    5  A    between atoms: C_15  and  C_17
REMARK    6  A    between atoms: C_23  and  OXT_25
REMARK                            x       y       z     vdW  Elec       q    Type
REMARK                         _______ _______ _______ _____ _____    ______ ____
ROOT
ATOM      1  C   UNL     1       1.543   5.741  20.835  0.00  0.00    +0.000 C 
ATOM      2  CA  UNL     1       2.538   4.878  20.575  0.00  0.00    +0.000 C 
ENDROOT
BRANCH   1  13
ATOM      3  C   UNL     1       0.523  11.823  18.463  0.00  0.00    +0.000 C 
ATOM      4  N   UNL     1       0.375  11.093  19.705  0.00  0.00    +0.000 N 
ATOM      5  C   UNL     1      -0.287  11.541  20.827  0.00  0.00    +0.000 A 
ATOM      6  C   UNL     1      -0.856  12.791  21.123  0.00  0.00    +0.000 A 
ATOM      7  C   UNL     1      -1.464  12.968  22.368  0.00  0.00    +0.000 A 
ATOM      8  C   UNL     1      -1.532  11.918  23.276  0.00  0.00    +0.000 A 
ATOM      9  C   UNL     1      -0.982  10.664  22.963  0.00  0.00    +0.000 A 
ATOM     10  C   UNL     1      -0.328  10.466  21.725  0.00  0.00    +0.000 A 
ATOM     11  C   UNL     1       0.375   9.360  21.123  0.00  0.00    +0.000 A 
ATOM     12  C   UNL     1       0.647   8.012  21.490  0.00  0.00    +0.000 A 
ATOM     13  C   UNL     1       1.433   7.197  20.648  0.00  0.00    +0.000 A 
ATOM     14  C   UNL     1       1.972   7.728  19.478  0.00  0.00    +0.000 A 
ATOM     15  C   UNL     1       1.689   9.034  19.080  0.00  0.00    +0.000 A 
ATOM     16  C   UNL     1       0.866   9.818  19.900  0.00  0.00    +0.000 A 
ENDBRANCH   1  13
BRANCH   2  17
ATOM     17  N   UNL     1       3.785   5.146  20.051  0.00  0.00    +0.000 N 
ATOM     18  C   UNL     1       4.181   5.004  18.739  0.00  0.00    +0.000 C 
ATOM     19  O   UNL     1       3.557   4.418  17.865  0.00  0.00    +0.000 OA
ATOM     20  H   UNL     1       4.501   5.353  20.740  0.00  0.00    +0.000 HD
BRANCH  18  21
ATOM     21  C   UNL     1       5.506   5.606  18.440  0.00  0.00    +0.000 A 
ATOM     22  C   UNL     1       6.646   5.330  19.208  0.00  0.00    +0.000 A 
ATOM     23  C   UNL     1       7.808   6.079  19.014  0.00  0.00    +0.000 A 
ATOM     24  C   UNL     1       7.833   7.087  18.051  0.00  0.00    +0.000 A 
ATOM     25  C   UNL     1       6.718   7.314  17.242  0.00  0.00    +0.000 A 
ATOM     26  C   UNL     1       5.557   6.565  17.425  0.00  0.00    +0.000 A 
ENDBRANCH  18  21
ENDBRANCH   2  17
BRANCH   2  27
ATOM     27  C   UNL     1       2.284   3.451  20.960  0.00  0.00    +0.000 C 
ATOM     28  O   UNL     1       2.254   3.006  22.090  0.00  0.00    +0.000 OA
BRANCH  27  29
ATOM     29  OXT UNL     1       2.099   2.686  19.852  0.00  0.00    +0.000 OA
ATOM     30  HXT UNL     1       1.148   2.610  19.640  0.00  0.00    +0.000 HD
ENDBRANCH  27  29
ENDBRANCH   2  27
TORSDOF 5
ENDMDL
MODEL 4
REMARK VINA RESULT:      -8.7      3.670      8.234
REMARK  Name = 
REMARK  6 active torsions:
REMARK  status: ('A' for Active; 'I' for Inactive)
REMARK    1  A    between atoms: C_1  and  N_2
REMARK    2  A    between atoms: C_11  and  C_12
REMARK    3  A    between atoms: CA_13  and  N_14
REMARK    4  A    between atoms: CA_13  and  C_23
REMARK    5  A    between atoms: C_15  and  C_17
REMARK    6  A    between atoms: C_23  and  OXT_25
REMARK                            x       y       z     vdW  Elec       q    Type
REMARK                         _______ _______ _______ _____ _____    ______ ____
ROOT
ATOM      1  C   UNL     1       2.171   4.841  20.148  0.00  0.00    +0.000 C 
ATOM      2  CA  UNL     1       2.886   3.979  19.405  0.00  0.00    +0.000 C 
ENDROOT
BRANCH   1  13
ATOM      3  C   UNL     1       1.010  11.092  18.355  0.00  0.00    +0.000 C 
ATOM      4  N   UNL     1       0.905  10.253  19.530  0.00  0.00    +0.000 N 
ATOM      5  C   UNL     1       0.268  10.589  20.704  0.00  0.00    +0.000 A 
ATOM      6  C   UNL     1      -0.310  11.799  21.125  0.00  0.00    +0.000 A 
ATOM      7  C   UNL     1      -0.886  11.856  22.395  0.00  0.00    +0.000 A 
ATOM      8  C   UNL     1      -0.917  10.729  23.208  0.00  0.00    +0.000 A 
ATOM      9  C   UNL     1      -0.359   9.516  22.770  0.00  0.00    +0.000 A 
ATOM     10  C   UNL     1       0.264   9.439  21.503  0.00  0.00    +0.000 A 
ATOM     11  C   UNL     1       0.964   8.401  20.787  0.00  0.00    +0.000 A 
ATOM     12  C   UNL     1       1.264   7.030  21.026  0.00  0.00    +0.000 A 
ATOM     13  C   UNL     1       2.038   6.305  20.095  0.00  0.00    +0.000 A 
ATOM     14  C   UNL     1       2.538   6.946  18.964  0.00  0.00    +0.000 A 
ATOM     15  C   UNL     1       2.227   8.278  18.690  0.00  0.00    +0.000 A 
ATOM     16  C   UNL     1       1.417   8.973  19.598  0.00  0.00    +0.000 A 
ENDBRANCH   1  13
BRANCH   2  17
ATOM     17  N   UNL     1       3.735   4.258  18.355  0.00  0.00    +0.000 N 
ATOM     18  C   UNL     1       5.112   4.275  18.383  0.00  0.00    +0.000 C 
ATOM     19  O   UNL     1       5.805   4.255  19.391  0.00  0.00    +0.000 OA
ATOM     20  H   UNL     1       3.276   4.598  17.516  0.00  0.00    +0.000 HD
BRANCH  18  21
ATOM     21  C   UNL     1       5.742   4.363  17.041  0.00  0.00    +0.000 A 
ATOM     22  C   UNL     1       7.081   4.742  16.864  0.00  0.00    +0.000 A 
ATOM     23  C   UNL     1       7.559   5.010  15.580  0.00  0.00    +0.000 A 
ATOM     24  C   UNL     1       6.708   4.888  14.482  0.00  0.00    +0.000 A 
ATOM     25  C   UNL     1       5.396   4.445  14.655  0.00  0.00    +0.000 A 
ATOM     26  C   UNL     1       4.914   4.169  15.933  0.00  0.00    +0.000 A 
ENDBRANCH  18  21
ENDBRANCH   2  17
BRANCH   2  27
ATOM     27  C   UNL     1       2.798   2.537  19.809  0.00  0.00    +0.000 C 
ATOM     28  O   UNL     1       2.405   1.620  19.116  0.00  0.00    +0.000 OA
BRANCH  27  29
ATOM     29  OXT UNL     1       3.210   2.379  21.095  0.00  0.00    +0.000 OA
ATOM     30  HXT UNL     1       2.826   1.568  21.483  0.00  0.00    +0.000 HD
ENDBRANCH  27  29
ENDBRANCH   2  27
TORSDOF 5
ENDMDL
MODEL 5
REMARK VINA RESULT:      -8.6      3.871      8.355
REMARK  Name = 
REMARK  6 active torsions:
REMARK  status: ('A' for Active; 'I' for Inactive)
REMARK    1  A    between atoms: C_1  and  N_2
REMARK    2  A    between atoms: C_11  and  C_12
REMARK    3  A    between atoms: CA_13  and  N_14
REMARK    4  A    between atoms: CA_13  and  C_23
REMARK    5  A    between atoms: C_15  and  C_17
REMARK    6  A    between atoms: C_23  and  OXT_25
REMARK                            x       y       z     vdW  Elec       q    Type
REMARK                         _______ _______ _______ _____ _____    ______ ____
ROOT
ATOM      1  C   UNL     1       2.979   4.577  19.699  0.00  0.00    +0.000 C 
ATOM      2  CA  UNL     1       3.648   3.805  18.826  0.00  0.00    +0.000 C 
ENDROOT
BRANCH   1  13
ATOM      3  C   UNL     1       0.850  10.640  18.166  0.00  0.00    +0.000 C 
ATOM      4  N   UNL     1       0.974   9.785  19.327  0.00  0.00    +0.000 N 
ATOM      5  C   UNL     1       0.422  10.026  20.566  0.00  0.00    +0.000 A 
ATOM      6  C   UNL     1      -0.260  11.147  21.068  0.00  0.00    +0.000 A 
ATOM      7  C   UNL     1      -0.706  11.118  22.391  0.00  0.00    +0.000 A 
ATOM      8  C   UNL     1      -0.509   9.989  23.178  0.00  0.00    +0.000 A 
ATOM      9  C   UNL     1       0.152   8.863  22.661  0.00  0.00    +0.000 A 
ATOM     10  C   UNL     1       0.647   8.878  21.336  0.00  0.00    +0.000 A 
ATOM     11  C   UNL     1       1.398   7.946  20.532  0.00  0.00    +0.000 A 
ATOM     12  C   UNL     1       1.894   6.623  20.710  0.00  0.00    +0.000 A 
ATOM     13  C   UNL     1       2.655   6.012  19.691  0.00  0.00    +0.000 A 
ATOM     14  C   UNL     1       2.951   6.722  18.530  0.00  0.00    +0.000 A 
ATOM     15  C   UNL     1       2.446   8.005  18.317  0.00  0.00    +0.000 A 
ATOM     16  C   UNL     1       1.650   8.582  19.316  0.00  0.00    +0.000 A 
ENDBRANCH   1  13
BRANCH   2  17
ATOM     17  N   UNL     1       4.245   4.178  17.640  0.00  0.00    +0.000 N 
ATOM     18  C   UNL     1       5.594   4.326  17.402  0.00  0.00    +0.000 C 
ATOM     19  O   UNL     1       6.469   4.359  18.255  0.00  0.00    +0.000 OA
ATOM     20  H   UNL     1       3.601   4.484  16.917  0.00  0.00    +0.000 HD
BRANCH  18  21
ATOM     21  C   UNL     1       5.938   4.493  15.966  0.00  0.00    +0.000 A 
ATOM     22  C   UNL     1       5.187   3.899  14.941  0.00  0.00    +0.000 A 
ATOM     23  C   UNL     1       5.672   3.914  13.633  0.00  0.00    +0.000 A 
ATOM     24  C   UNL     1       6.891   4.528  13.349  0.00  0.00    +0.000 A 
ATOM     25  C   UNL     1       7.602   5.177  14.360  0.00  0.00    +0.000 A 
ATOM     26  C   UNL     1       7.121   5.173  15.668  0.00  0.00    +0.000 A 
ENDBRANCH  18  21
ENDBRANCH   2  17
BRANCH   2  27
ATOM     27  C   UNL     1       3.818   2.368  19.220  0.00  0.00    +0.000 C 
ATOM     28  O   UNL     1       3.077   1.450  18.929  0.00  0.00    +0.000 OA
BRANCH  27  29
ATOM     29  OXT UNL     1       4.934   2.214  19.981  0.00  0.00    +0.000 OA
ATOM     30  HXT UNL     1       4.694   1.994  20.903  0.00  0.00    +0.000 HD
ENDBRANCH  27  29
ENDBRANCH   2  27
TORSDOF 5
ENDMDL
MODEL 6
REMARK VINA RESULT:      -8.6      3.524      8.049
REMARK  Name = 
REMARK  6 active torsions:
REMARK  status: ('A' for Active; 'I' for Inactive)
REMARK    1  A    between atoms: C_1  and  N_2
REMARK    2  A    between atoms: C_11  and  C_12
REMARK    3  A    between atoms: CA_13  and  N_14
REMARK    4  A    between atoms: CA_13  and  C_23
REMARK    5  A    between atoms: C_15  and  C_17
REMARK    6  A    between atoms: C_23  and  OXT_25
REMARK                            x       y       z     vdW  Elec       q    Type
REMARK                         _______ _______ _______ _____ _____    ______ ____
ROOT
ATOM      1  C   UNL     1       1.789   5.235  20.840  0.00  0.00    +0.000 C 
ATOM      2  CA  UNL     1       2.575   4.296  20.287  0.00  0.00    +0.000 C 
ENDROOT
BRANCH   1  13
ATOM      3  C   UNL     1       0.850  11.274  18.332  0.00  0.00    +0.000 C 
ATOM      4  N   UNL     1       0.681  10.572  19.586  0.00  0.00    +0.000 N 
ATOM      5  C   UNL     1       0.009  11.047  20.690  0.00  0.00    +0.000 A 
ATOM      6  C   UNL     1      -0.553  12.308  20.954  0.00  0.00    +0.000 A 
ATOM      7  C   UNL     1      -1.175  12.516  22.187  0.00  0.00    +0.000 A 
ATOM      8  C   UNL     1      -1.264  11.485  23.115  0.00  0.00    +0.000 A 
ATOM      9  C   UNL     1      -0.721  10.221  22.835  0.00  0.00    +0.000 A 
ATOM     10  C   UNL     1      -0.052   9.992  21.610  0.00  0.00    +0.000 A 
ATOM     11  C   UNL     1       0.648   8.868  21.039  0.00  0.00    +0.000 A 
ATOM     12  C   UNL     1       0.905   7.525  21.437  0.00  0.00    +0.000 A 
ATOM     13  C   UNL     1       1.694   6.686  20.623  0.00  0.00    +0.000 A 
ATOM     14  C   UNL     1       2.252   7.190  19.449  0.00  0.00    +0.000 A 
ATOM     15  C   UNL     1       1.985   8.490  19.020  0.00  0.00    +0.000 A 
ATOM     16  C   UNL     1       1.159   9.297  19.814  0.00  0.00    +0.000 A 
ENDBRANCH   1  13
BRANCH   2  17
ATOM     17  N   UNL     1       3.556   4.459  19.332  0.00  0.00    +0.000 N 
ATOM     18  C   UNL     1       3.438   4.242  17.976  0.00  0.00    +0.000 C 
ATOM     19  O   UNL     1       2.510   3.669  17.424  0.00  0.00    +0.000 OA
ATOM     20  H   UNL     1       4.484   4.642  19.701  0.00  0.00    +0.000 HD
BRANCH  18  21
ATOM     21  C   UNL     1       4.591   4.742  17.183  0.00  0.00    +0.000 A 
ATOM     22  C   UNL     1       5.084   4.057  16.063  0.00  0.00    +0.000 A 
ATOM     23  C   UNL     1       6.290   4.456  15.485  0.00  0.00    +0.000 A 
ATOM     24  C   UNL     1       6.990   5.540  16.014  0.00  0.00    +0.000 A 
ATOM     25  C   UNL     1       6.462   6.262  17.086  0.00  0.00    +0.000 A 
ATOM     26  C   UNL     1       5.255   5.873  17.664  0.00  0.00    +0.000 A 
ENDBRANCH  18  21
ENDBRANCH   2  17
BRANCH   2  27
ATOM     27  C   UNL     1       2.406   2.904  20.820  0.00  0.00    +0.000 C 
ATOM     28  O   UNL     1       2.805   2.490  21.890  0.00  0.00    +0.000 OA
BRANCH  27  29
ATOM     29  OXT UNL     1       1.741   2.130  19.921  0.00  0.00    +0.000 OA
ATOM     30  HXT UNL     1       1.488   1.275  20.323  0.00  0.00    +0.000 HD
ENDBRANCH  27  29
ENDBRANCH   2  27
TORSDOF 5
ENDMDL
MODEL 7
REMARK VINA RESULT:      -8.5      0.940      1.055
REMARK  Name = 
REMARK  6 active torsions:
REMARK  status: ('A' for Active; 'I' for Inactive)
REMARK    1  A    between atoms: C_1  and  N_2
REMARK    2  A    between atoms: C_11  and  C_12
REMARK    3  A    between atoms: CA_13  and  N_14
REMARK    4  A    between atoms: CA_13  and  C_23
REMARK    5  A    between atoms: C_15  and  C_17
REMARK    6  A    between atoms: C_23  and  OXT_25
REMARK                            x       y       z     vdW  Elec       q    Type
REMARK                         _______ _______ _______ _____ _____    ______ ____
ROOT
ATOM      1  C   UNL     1       0.783   9.636  21.278  0.00  0.00    +0.000 C 
ATOM      2  CA  UNL     1      -0.217  10.521  21.128  0.00  0.00    +0.000 C 
ENDROOT
BRANCH   1  13
ATOM      3  C   UNL     1       4.208   5.787  17.144  0.00  0.00    +0.000 C 
ATOM      4  N   UNL     1       3.398   5.662  18.337  0.00  0.00    +0.000 N 
ATOM      5  C   UNL     1       3.275   4.530  19.112  0.00  0.00    +0.000 A 
ATOM      6  C   UNL     1       3.756   3.224  18.917  0.00  0.00    +0.000 A 
ATOM      7  C   UNL     1       3.464   2.256  19.880  0.00  0.00    +0.000 A 
ATOM      8  C   UNL     1       2.743   2.590  21.020  0.00  0.00    +0.000 A 
ATOM      9  C   UNL     1       2.286   3.903  21.220  0.00  0.00    +0.000 A 
ATOM     10  C   UNL     1       2.535   4.896  20.244  0.00  0.00    +0.000 A 
ATOM     11  C   UNL     1       2.173   6.285  20.106  0.00  0.00    +0.000 A 
ATOM     12  C   UNL     1       1.479   7.236  20.906  0.00  0.00    +0.000 A 
ATOM     13  C   UNL     1       1.261   8.542  20.419  0.00  0.00    +0.000 A 
ATOM     14  C   UNL     1       1.694   8.884  19.139  0.00  0.00    +0.000 A 
ATOM     15  C   UNL     1       2.408   7.981  18.352  0.00  0.00    +0.000 A 
ATOM     16  C   UNL     1       2.661   6.703  18.867  0.00  0.00    +0.000 A 
ENDBRANCH   1  13
BRANCH   2  17
ATOM     17  N   UNL     1      -1.108  10.633  20.082  0.00  0.00    +0.000 N 
ATOM     18  C   UNL     1      -0.972  11.416  18.956  0.00  0.00    +0.000 C 
ATOM     19  O   UNL     1      -0.142  12.300  18.799  0.00  0.00    +0.000 OA
ATOM     20  H   UNL     1      -2.001  10.174  20.232  0.00  0.00    +0.000 HD
BRANCH  18  21
ATOM     21  C   UNL     1      -1.977  11.133  17.899  0.00  0.00    +0.000 A 
ATOM     22  C   UNL     1      -3.217  11.785  17.849  0.00  0.00    +0.000 A 
ATOM     23  C   UNL     1      -4.199  11.333  16.965  0.00  0.00    +0.000 A 
ATOM     24  C   UNL     1      -3.938  10.247  16.131  0.00  0.00    +0.000 A 
ATOM     25  C   UNL     1      -2.679   9.644  16.135  0.00  0.00    +0.000 A 
ATOM     26  C   UNL     1      -1.691  10.094  17.009  0.00  0.00    +0.000 A 
ENDBRANCH  18  21
ENDBRANCH   2  17
BRANCH   2  27
ATOM     27  C   UNL     1      -0.429  11.470  22.271  0.00  0.00    +0.000 C 
ATOM     28  O   UNL     1      -0.252  12.671  22.250  0.00  0.00    +0.000 OA
BRANCH  27  29
ATOM     29  OXT UNL     1      -0.843  10.795  23.376  0.00  0.00    +0.000 OA
ATOM     30  HXT UNL     1      -0.233  10.951  24.124  0.00  0.00    +0.000 HD
ENDBRANCH  27  29
ENDBRANCH   2  27
TORSDOF 5
ENDMDL
MODEL 8
REMARK VINA RESULT:      -8.5      3.639      8.284
REMARK  Name = 
REMARK  6 active torsions:
REMARK  status: ('A' for Active; 'I' for Inactive)
REMARK    1  A    between atoms: C_1  and  N_2
REMARK    2  A    between atoms: C_11  and  C_12
REMARK    3  A    between atoms: CA_13  and  N_14
REMARK    4  A    between atoms: CA_13  and  C_23
REMARK    5  A    between atoms: C_15  and  C_17
REMARK    6  A    between atoms: C_23  and  OXT_25
REMARK                            x       y       z     vdW  Elec       q    Type
REMARK                         _______ _______ _______ _____ _____    ______ ____
ROOT
ATOM      1  C   UNL     1       1.834   5.185  20.455  0.00  0.00    +0.000 C 
ATOM      2  CA  UNL     1       2.576   4.310  19.756  0.00  0.00    +0.000 C 
ENDROOT
BRANCH   1  13
ATOM      3  C   UNL     1       0.841  11.440  18.574  0.00  0.00    +0.000 C 
ATOM      4  N   UNL     1       0.671  10.610  19.747  0.00  0.00    +0.000 N 
ATOM      5  C   UNL     1      -0.014  10.962  20.889  0.00  0.00    +0.000 A 
ATOM      6  C   UNL     1      -0.594  12.183  21.276  0.00  0.00    +0.000 A 
ATOM      7  C   UNL     1      -1.227  12.256  22.518  0.00  0.00    +0.000 A 
ATOM      8  C   UNL     1      -1.310  11.134  23.335  0.00  0.00    +0.000 A 
ATOM      9  C   UNL     1      -0.750   9.911  22.931  0.00  0.00    +0.000 A 
ATOM     10  C   UNL     1      -0.070   9.817  21.694  0.00  0.00    +0.000 A 
ATOM     11  C   UNL     1       0.648   8.766  21.017  0.00  0.00    +0.000 A 
ATOM     12  C   UNL     1       0.918   7.392  21.277  0.00  0.00    +0.000 A 
ATOM     13  C   UNL     1       1.723   6.650  20.387  0.00  0.00    +0.000 A 
ATOM     14  C   UNL     1       2.284   7.278  19.276  0.00  0.00    +0.000 A 
ATOM     15  C   UNL     1       2.004   8.612  18.981  0.00  0.00    +0.000 A 
ATOM     16  C   UNL     1       1.162   9.324  19.846  0.00  0.00    +0.000 A 
ENDBRANCH   1  13
BRANCH   2  17
ATOM     17  N   UNL     1       3.482   4.571  18.750  0.00  0.00    +0.000 N 
ATOM     18  C   UNL     1       4.779   4.115  18.664  0.00  0.00    +0.000 C 
ATOM     19  O   UNL     1       5.408   3.579  19.565  0.00  0.00    +0.000 OA
ATOM     20  H   UNL     1       3.181   5.268  18.076  0.00  0.00    +0.000 HD
BRANCH  18  21
ATOM     21  C   UNL     1       5.419   4.361  17.345  0.00  0.00    +0.000 A 
ATOM     22  C   UNL     1       4.723   4.220  16.136  0.00  0.00    +0.000 A 
ATOM     23  C   UNL     1       5.422   4.258  14.929  0.00  0.00    +0.000 A 
ATOM     24  C   UNL     1       6.803   4.449  14.930  0.00  0.00    +0.000 A 
ATOM     25  C   UNL     1       7.482   4.658  16.132  0.00  0.00    +0.000 A 
ATOM     26  C   UNL     1       6.790   4.628  17.341  0.00  0.00    +0.000 A 
ENDBRANCH  18  21
ENDBRANCH   2  17
BRANCH   2  27
ATOM     27  C   UNL     1       2.447   2.872  20.162  0.00  0.00    +0.000 C 
ATOM     28  O   UNL     1       1.915   1.988  19.519  0.00  0.00    +0.000 OA
BRANCH  27  29
ATOM     29  OXT UNL     1       3.003   2.673  21.386  0.00  0.00    +0.000 OA
ATOM     30  HXT UNL     1       2.621   3.288  22.043  0.00  0.00    +0.000 HD
ENDBRANCH  27  29
ENDBRANCH   2  27
TORSDOF 5
ENDMDL
MODEL 9
REMARK VINA RESULT:      -8.5      3.523      7.863
REMARK  Name = 
REMARK  6 active torsions:
REMARK  status: ('A' for Active; 'I' for Inactive)
REMARK    1  A    between atoms: C_1  and  N_2
REMARK    2  A    between atoms: C_11  and  C_12
REMARK    3  A    between atoms: CA_13  and  N_14
REMARK    4  A    between atoms: CA_13  and  C_23
REMARK    5  A    between atoms: C_15  and  C_17
REMARK    6  A    between atoms: C_23  and  OXT_25
REMARK                            x       y       z     vdW  Elec       q    Type
REMARK                         _______ _______ _______ _____ _____    ______ ____
ROOT
ATOM      1  C   UNL     1       1.398   5.609  21.026  0.00  0.00    +0.000 C 
ATOM      2  CA  UNL     1       2.081   4.604  20.452  0.00  0.00    +0.000 C 
ENDROOT
BRANCH   1  13
ATOM      3  C   UNL     1       0.940  11.654  18.401  0.00  0.00    +0.000 C 
ATOM      4  N   UNL     1       0.676  10.983  19.656  0.00  0.00    +0.000 N 
ATOM      5  C   UNL     1      -0.009  11.517  20.725  0.00  0.00    +0.000 A 
ATOM      6  C   UNL     1      -0.502  12.814  20.948  0.00  0.00    +0.000 A 
ATOM      7  C   UNL     1      -1.160  13.079  22.151  0.00  0.00    +0.000 A 
ATOM      8  C   UNL     1      -1.350  12.071  23.089  0.00  0.00    +0.000 A 
ATOM      9  C   UNL     1      -0.875  10.771  22.849  0.00  0.00    +0.000 A 
ATOM     10  C   UNL     1      -0.173  10.482  21.655  0.00  0.00    +0.000 A 
ATOM     11  C   UNL     1       0.479   9.308  21.129  0.00  0.00    +0.000 A 
ATOM     12  C   UNL     1       0.635   7.959  21.556  0.00  0.00    +0.000 A 
ATOM     13  C   UNL     1       1.403   7.060  20.786  0.00  0.00    +0.000 A 
ATOM     14  C   UNL     1       2.039   7.509  19.630  0.00  0.00    +0.000 A 
ATOM     15  C   UNL     1       1.870   8.816  19.173  0.00  0.00    +0.000 A 
ATOM     16  C   UNL     1       1.064   9.685  19.920  0.00  0.00    +0.000 A 
ENDBRANCH   1  13
BRANCH   2  17
ATOM     17  N   UNL     1       3.020   4.676  19.445  0.00  0.00    +0.000 N 
ATOM     18  C   UNL     1       2.836   4.365  18.116  0.00  0.00    +0.000 C 
ATOM     19  O   UNL     1       1.872   3.775  17.648  0.00  0.00    +0.000 OA
ATOM     20  H   UNL     1       3.967   4.865  19.759  0.00  0.00    +0.000 HD
BRANCH  18  21
ATOM     21  C   UNL     1       3.960   4.781  17.238  0.00  0.00    +0.000 A 
ATOM     22  C   UNL     1       4.285   6.128  17.022  0.00  0.00    +0.000 A 
ATOM     23  C   UNL     1       5.208   6.466  16.032  0.00  0.00    +0.000 A 
ATOM     24  C   UNL     1       5.811   5.464  15.272  0.00  0.00    +0.000 A 
ATOM     25  C   UNL     1       5.536   4.121  15.535  0.00  0.00    +0.000 A 
ATOM     26  C   UNL     1       4.620   3.775  16.527  0.00  0.00    +0.000 A 
ENDBRANCH  18  21
ENDBRANCH   2  17
BRANCH   2  27
ATOM     27  C   UNL     1       1.834   3.237  21.020  0.00  0.00    +0.000 C 
ATOM     28  O   UNL     1       2.498   2.683  21.874  0.00  0.00    +0.000 OA
BRANCH  27  29
ATOM     29  OXT UNL     1       0.749   2.669  20.432  0.00  0.00    +0.000 OA
ATOM     30  HXT UNL     1       0.716   2.889  19.480  0.00  0.00    +0.000 HD
ENDBRANCH  27  29
ENDBRANCH   2  27
TORSDOF 5
ENDMDL
