MODEL 1
REMARK VINA RESULT:      -8.7      0.000      0.000
REMARK  Name = 
REMARK  9 active torsions:
REMARK  status: ('A' for Active; 'I' for Inactive)
REMARK    1  A    between atoms: C_1  and  C_2
REMARK    2  A    between atoms: C_2  and  C_3
REMARK    3  A    between atoms: C_3  and  N_4
REMARK    4  A    between atoms: N_7  and  C_8
REMARK    5  A    between atoms: N_7  and  C_15
REMARK    6  A    between atoms: C_8  and  C_9
REMARK    7  A    between atoms: C_15  and  C_16
REMARK    8  A    between atoms: C_20  and  C_21
REMARK    9  A    between atoms: C_22  and  C_23
REMARK                            x       y       z     vdW  Elec       q    Type
REMARK                         _______ _______ _______ _____ _____    ______ ____
ROOT
ATOM      1  N   UNL     1       2.036   8.747  18.190  0.00  0.00    +0.000 N 
ATOM      2  C   UNL     1       2.213   7.835  19.209  0.00  0.00    +0.000 C 
ATOM      3  O   UNL     1       1.797   8.047  20.344  0.00  0.00    +0.000 OA
ATOM      4  N   UNL     1       2.913   6.679  18.849  0.00  0.00    +0.000 N 
ATOM      5  H   UNL     1       2.196   8.464  17.241  0.00  0.00    +0.000 HD
ENDROOT
BRANCH   1   6
ATOM      6  C   UNL     1       1.340  10.010  18.335  0.00  0.00    +0.000 C 
BRANCH   6   8
ATOM      7  C   UNL     1      -0.912  11.213  18.413  0.00  0.00    +0.000 C 
ATOM      8  C   UNL     1      -0.176   9.896  18.200  0.00  0.00    +0.000 C 
ENDBRANCH   6   8
ENDBRANCH   1   6
BRANCH   4   9
ATOM      9  C   UNL     1       3.191   5.670  19.880  0.00  0.00    +0.000 C 
BRANCH   9  10
ATOM     10  C   UNL     1       2.663   4.275  19.602  0.00  0.00    +0.000 A 
ATOM     11  C   UNL     1       1.279   4.026  19.656  0.00  0.00    +0.000 A 
ATOM     12  C   UNL     1       0.755   2.785  19.285  0.00  0.00    +0.000 A 
ATOM     13  C   UNL     1       1.606   1.772  18.851  0.00  0.00    +0.000 A 
ATOM     14  C   UNL     1       2.981   1.997  18.802  0.00  0.00    +0.000 A 
ATOM     15  C   UNL     1       3.504   3.240  19.170  0.00  0.00    +0.000 A 
ENDBRANCH   9  10
ENDBRANCH   4   9
BRANCH   4  16
ATOM     16  C   UNL     1       3.319   6.445  17.470  0.00  0.00    +0.000 C 
BRANCH  16  17
ATOM     17  C   UNL     1       4.771   6.369  17.105  0.00  0.00    +0.000 A 
ATOM     18  C   UNL     1       5.307   5.206  16.536  0.00  0.00    +0.000 A 
ATOM     19  C   UNL     1       6.688   5.067  16.393  0.00  0.00    +0.000 A 
ATOM     20  C   UNL     1       7.541   6.084  16.829  0.00  0.00    +0.000 A 
ATOM     21  C   UNL     1       7.010   7.254  17.369  0.00  0.00    +0.000 A 
ATOM     22  C   UNL     1       5.631   7.410  17.475  0.00  0.00    +0.000 A 
BRANCH  21  23
ATOM     23  C   UNL     1       7.865   8.250  17.937  0.00  0.00    +0.000 C 
ATOM     24  C   UNL     1       8.533   9.163  18.330  0.00  0.00    +0.000 C 
BRANCH  24  25
ATOM     25  C   UNL     1       9.289  10.308  18.740  0.00  0.00    +0.000 A 
ATOM     26  C   UNL     1       9.895  11.123  17.784  0.00  0.00    +0.000 A 
ATOM     27  C   UNL     1      10.650  12.228  18.186  0.00  0.00    +0.000 A 
ATOM     28  C   UNL     1      10.801  12.515  19.542  0.00  0.00    +0.000 A 
ATOM     29  C   UNL     1      10.205  11.693  20.500  0.00  0.00    +0.000 A 
ATOM     30  C   UNL     1       9.451  10.588  20.100  0.00  0.00    +0.000 A 
ENDBRANCH  24  25
ENDBRANCH  21  23
ENDBRANCH  16  17
ENDBRANCH   4  16
TORSDOF 8
ENDMDL
MODEL 2
REMARK VINA RESULT:      -8.5      0.677      1.189
REMARK  Name = 
REMARK  9 active torsions:
REMARK  status: ('A' for Active; 'I' for Inactive)
REMARK    1  A    between atoms: C_1  and  C_2
REMARK    2  A    between atoms: C_2  and  C_3
REMARK    3  A    between atoms: C_3  and  N_4
REMARK    4  A    between atoms: N_7  and  C_8
REMARK    5  A    between atoms: N_7  and  C_15
REMARK    6  A    between atoms: C_8  and  C_9
REMARK    7  A    between atoms: C_15  and  C_16
REMARK    8  A    between atoms: C_20  and  C_21
REMARK    9  A    between atoms: C_22  and  C_23
REMARK                            x       y       z     vdW  Elec       q    Type
REMARK                         _______ _______ _______ _____ _____    ______ ____
ROOT
ATOM      1  N   UNL     1       1.977   8.721  18.173  0.00  0.00    +0.000 N 
ATOM      2  C   UNL     1       2.117   7.816  19.203  0.00  0.00    +0.000 C 
ATOM      3  O   UNL     1       1.677   8.042  20.326  0.00  0.00    +0.000 OA
ATOM      4  N   UNL     1       2.811   6.648  18.870  0.00  0.00    +0.000 N 
ATOM      5  H   UNL     1       2.156   8.429  17.230  0.00  0.00    +0.000 HD
ENDROOT
BRANCH   1   6
ATOM      6  C   UNL     1       1.294   9.994  18.291  0.00  0.00    +0.000 C 
BRANCH   6   8
ATOM      7  C   UNL     1       1.646  12.517  18.495  0.00  0.00    +0.000 C 
ATOM      8  C   UNL     1       2.168  11.196  17.942  0.00  0.00    +0.000 C 
ENDBRANCH   6   8
ENDBRANCH   1   6
BRANCH   4   9
ATOM      9  C   UNL     1       3.050   5.644  19.915  0.00  0.00    +0.000 C 
BRANCH   9  10
ATOM     10  C   UNL     1       2.687   4.214  19.558  0.00  0.00    +0.000 A 
ATOM     11  C   UNL     1       1.399   3.920  19.076  0.00  0.00    +0.000 A 
ATOM     12  C   UNL     1       1.075   2.637  18.623  0.00  0.00    +0.000 A 
ATOM     13  C   UNL     1       2.035   1.630  18.643  0.00  0.00    +0.000 A 
ATOM     14  C   UNL     1       3.314   1.901  19.128  0.00  0.00    +0.000 A 
ATOM     15  C   UNL     1       3.638   3.185  19.577  0.00  0.00    +0.000 A 
ENDBRANCH   9  10
ENDBRANCH   4   9
BRANCH   4  16
ATOM     16  C   UNL     1       3.246   6.398  17.503  0.00  0.00    +0.000 C 
BRANCH  16  17
ATOM     17  C   UNL     1       4.705   6.269  17.179  0.00  0.00    +0.000 A 
ATOM     18  C   UNL     1       5.255   5.029  16.830  0.00  0.00    +0.000 A 
ATOM     19  C   UNL     1       6.638   4.877  16.735  0.00  0.00    +0.000 A 
ATOM     20  C   UNL     1       7.480   5.961  16.999  0.00  0.00    +0.000 A 
ATOM     21  C   UNL     1       6.935   7.204  17.318  0.00  0.00    +0.000 A 
ATOM     22  C   UNL     1       5.553   7.366  17.374  0.00  0.00    +0.000 A 
BRANCH  21  23
ATOM     23  C   UNL     1       7.776   8.289  17.715  0.00  0.00    +0.000 C 
ATOM     24  C   UNL     1       8.382   9.244  18.110  0.00  0.00    +0.000 C 
BRANCH  24  25
ATOM     25  C   UNL     1       9.032  10.411  18.627  0.00  0.00    +0.000 A 
ATOM     26  C   UNL     1       9.554  10.404  19.920  0.00  0.00    +0.000 A 
ATOM     27  C   UNL     1      10.171  11.549  20.431  0.00  0.00    +0.000 A 
ATOM     28  C   UNL     1      10.262  12.700  19.649  0.00  0.00    +0.000 A 
ATOM     29  C   UNL     1       9.730  12.712  18.359  0.00  0.00    +0.000 A 
ATOM     30  C   UNL     1       9.112  11.568  17.848  0.00  0.00    +0.000 A 
ENDBRANCH  24  25
ENDBRANCH  21  23
ENDBRANCH  16  17
ENDBRANCH   4  16
TORSDOF 8
ENDMDL
MODEL 3
REMARK VINA RESULT:      -8.4      2.866      4.926
REMARK  Name = 
REMARK  9 active torsions:
REMARK  status: ('A' for Active; 'I' for Inactive)
REMARK    1  A    between atoms: C_1  and  C_2
REMARK    2  A    between atoms: C_2  and  C_3
REMARK    3  A    between atoms: C_3  and  N_4
REMARK    4  A    between atoms: N_7  and  C_8
REMARK    5  A    between atoms: N_7  and  C_15
REMARK    6  A    between atoms: C_8  and  C_9
REMARK    7  A    between atoms: C_15  and  C_16
REMARK    8  A    between atoms: C_20  and  C_21
REMARK    9  A    between atoms: C_22  and  C_23
REMARK                            x       y       z     vdW  Elec       q    Type
REMARK                         _______ _______ _______ _____ _____    ______ ____
ROOT
ATOM      1  N   UNL     1       2.905   4.873  17.826  0.00  0.00    +0.000 N 
ATOM      2  C   UNL     1       3.605   3.931  17.102  0.00  0.00    +0.000 C 
ATOM      3  O   UNL     1       3.198   2.779  16.979  0.00  0.00    +0.000 OA
ATOM      4  N   UNL     1       4.805   4.386  16.548  0.00  0.00    +0.000 N 
ATOM      5  H   UNL     1       3.147   5.843  17.737  0.00  0.00    +0.000 HD
ENDROOT
BRANCH   1   6
ATOM      6  C   UNL     1       1.639   4.623  18.485  0.00  0.00    +0.000 C 
BRANCH   6   8
ATOM      7  C   UNL     1       1.267   3.524  20.761  0.00  0.00    +0.000 C 
ATOM      8  C   UNL     1       1.694   4.775  20.003  0.00  0.00    +0.000 C 
ENDBRANCH   6   8
ENDBRANCH   1   6
BRANCH   4   9
ATOM      9  C   UNL     1       5.643   3.441  15.798  0.00  0.00    +0.000 C 
BRANCH   9  10
ATOM     10  C   UNL     1       6.133   3.918  14.443  0.00  0.00    +0.000 A 
ATOM     11  C   UNL     1       7.251   4.768  14.364  0.00  0.00    +0.000 A 
ATOM     12  C   UNL     1       7.799   5.123  13.128  0.00  0.00    +0.000 A 
ATOM     13  C   UNL     1       7.239   4.633  11.952  0.00  0.00    +0.000 A 
ATOM     14  C   UNL     1       6.123   3.799  12.012  0.00  0.00    +0.000 A 
ATOM     15  C   UNL     1       5.578   3.441  13.248  0.00  0.00    +0.000 A 
ENDBRANCH   9  10
ENDBRANCH   4   9
BRANCH   4  16
ATOM     16  C   UNL     1       5.203   5.783  16.662  0.00  0.00    +0.000 C 
BRANCH  16  17
ATOM     17  C   UNL     1       6.423   6.167  17.444  0.00  0.00    +0.000 A 
ATOM     18  C   UNL     1       6.901   5.348  18.475  0.00  0.00    +0.000 A 
ATOM     19  C   UNL     1       7.904   5.808  19.329  0.00  0.00    +0.000 A 
ATOM     20  C   UNL     1       8.426   7.093  19.163  0.00  0.00    +0.000 A 
ATOM     21  C   UNL     1       7.974   7.900  18.120  0.00  0.00    +0.000 A 
ATOM     22  C   UNL     1       7.002   7.426  17.243  0.00  0.00    +0.000 A 
BRANCH  21  23
ATOM     23  C   UNL     1       8.401   9.260  18.011  0.00  0.00    +0.000 C 
ATOM     24  C   UNL     1       8.867  10.363  17.970  0.00  0.00    +0.000 C 
BRANCH  24  25
ATOM     25  C   UNL     1       9.500  11.647  17.953  0.00  0.00    +0.000 A 
ATOM     26  C   UNL     1      10.874  11.746  17.732  0.00  0.00    +0.000 A 
ATOM     27  C   UNL     1      11.494  12.998  17.735  0.00  0.00    +0.000 A 
ATOM     28  C   UNL     1      10.741  14.149  17.965  0.00  0.00    +0.000 A 
ATOM     29  C   UNL     1       9.368  14.050  18.199  0.00  0.00    +0.000 A 
ATOM     30  C   UNL     1       8.747  12.800  18.196  0.00  0.00    +0.000 A 
ENDBRANCH  24  25
ENDBRANCH  21  23
ENDBRANCH  16  17
ENDBRANCH   4  16
TORSDOF 8
ENDMDL
MODEL 4
REMARK VINA RESULT:      -8.4      0.642      1.364
REMARK  Name = 
REMARK  9 active torsions:
REMARK  status: ('A' for Active; 'I' for Inactive)
REMARK    1  A    between atoms: C_1  and  C_2
REMARK    2  A    between atoms: C_2  and  C_3
REMARK    3  A    between atoms: C_3  and  N_4
REMARK    4  A    between atoms: N_7  and  C_8
REMARK    5  A    between atoms: N_7  and  C_15
REMARK    6  A    between atoms: C_8  and  C_9
REMARK    7  A    between atoms: C_15  and  C_16
REMARK    8  A    between atoms: C_20  and  C_21
REMARK    9  A    between atoms: C_22  and  C_23
REMARK                            x       y       z     vdW  Elec       q    Type
REMARK                         _______ _______ _______ _____ _____    ______ ____
ROOT
ATOM      1  N   UNL     1       2.142   8.655  18.091  0.00  0.00    +0.000 N 
ATOM      2  C   UNL     1       2.183   7.740  19.122  0.00  0.00    +0.000 C 
ATOM      3  O   UNL     1       1.765   8.013  20.243  0.00  0.00    +0.000 OA
ATOM      4  N   UNL     1       2.751   6.506  18.791  0.00  0.00    +0.000 N 
ATOM      5  H   UNL     1       2.292   8.344  17.149  0.00  0.00    +0.000 HD
ENDROOT
BRANCH   1   6
ATOM      6  C   UNL     1       1.596   9.993  18.206  0.00  0.00    +0.000 C 
BRANCH   6   8
ATOM      7  C   UNL     1      -0.552  10.875  19.273  0.00  0.00    +0.000 C 
ATOM      8  C   UNL     1       0.070  10.041  18.159  0.00  0.00    +0.000 C 
ENDBRANCH   6   8
ENDBRANCH   1   6
BRANCH   4   9
ATOM      9  C   UNL     1       2.880   5.483  19.838  0.00  0.00    +0.000 C 
BRANCH   9  10
ATOM     10  C   UNL     1       3.009   4.051  19.354  0.00  0.00    +0.000 A 
ATOM     11  C   UNL     1       4.190   3.330  19.610  0.00  0.00    +0.000 A 
ATOM     12  C   UNL     1       4.290   1.974  19.286  0.00  0.00    +0.000 A 
ATOM     13  C   UNL     1       3.210   1.317  18.703  0.00  0.00    +0.000 A 
ATOM     14  C   UNL     1       2.037   2.018  18.432  0.00  0.00    +0.000 A 
ATOM     15  C   UNL     1       1.936   3.374  18.760  0.00  0.00    +0.000 A 
ENDBRANCH   9  10
ENDBRANCH   4   9
BRANCH   4  16
ATOM     16  C   UNL     1       3.163   6.210  17.426  0.00  0.00    +0.000 C 
BRANCH  16  17
ATOM     17  C   UNL     1       4.617   6.142  17.066  0.00  0.00    +0.000 A 
ATOM     18  C   UNL     1       5.182   4.952  16.591  0.00  0.00    +0.000 A 
ATOM     19  C   UNL     1       6.566   4.836  16.457  0.00  0.00    +0.000 A 
ATOM     20  C   UNL     1       7.393   5.906  16.809  0.00  0.00    +0.000 A 
ATOM     21  C   UNL     1       6.832   7.102  17.255  0.00  0.00    +0.000 A 
ATOM     22  C   UNL     1       5.449   7.231  17.350  0.00  0.00    +0.000 A 
BRANCH  21  23
ATOM     23  C   UNL     1       7.661   8.161  17.740  0.00  0.00    +0.000 C 
ATOM     24  C   UNL     1       8.267   9.127  18.106  0.00  0.00    +0.000 C 
BRANCH  24  25
ATOM     25  C   UNL     1       8.923  10.332  18.516  0.00  0.00    +0.000 A 
ATOM     26  C   UNL     1       9.678  10.352  19.689  0.00  0.00    +0.000 A 
ATOM     27  C   UNL     1      10.302  11.533  20.099  0.00  0.00    +0.000 A 
ATOM     28  C   UNL     1      10.166  12.694  19.339  0.00  0.00    +0.000 A 
ATOM     29  C   UNL     1       9.400  12.679  18.172  0.00  0.00    +0.000 A 
ATOM     30  C   UNL     1       8.776  11.499  17.761  0.00  0.00    +0.000 A 
ENDBRANCH  24  25
ENDBRANCH  21  23
ENDBRANCH  16  17
ENDBRANCH   4  16
TORSDOF 8
ENDMDL
MODEL 5
REMARK VINA RESULT:      -7.9      3.145      7.731
REMARK  Name = 
REMARK  9 active torsions:
REMARK  status: ('A' for Active; 'I' for Inactive)
REMARK    1  A    between atoms: C_1  and  C_2
REMARK    2  A    between atoms: C_2  and  C_3
REMARK    3  A    between atoms: C_3  and  N_4
REMARK    4  A    between atoms: N_7  and  C_8
REMARK    5  A    between atoms: N_7  and  C_15
REMARK    6  A    between atoms: C_8  and  C_9
REMARK    7  A    between atoms: C_15  and  C_16
REMARK    8  A    between atoms: C_20  and  C_21
REMARK    9  A    between atoms: C_22  and  C_23
REMARK                            x       y       z     vdW  Elec       q    Type
REMARK                         _______ _______ _______ _____ _____    ______ ____
ROOT
ATOM      1  N   UNL     1       6.939   6.911  17.700  0.00  0.00    +0.000 N 
ATOM      2  C   UNL     1       6.983   5.690  17.062  0.00  0.00    +0.000 C 
ATOM      3  O   UNL     1       8.026   5.052  16.962  0.00  0.00    +0.000 OA
ATOM      4  N   UNL     1       5.763   5.260  16.530  0.00  0.00    +0.000 N 
ATOM      5  H   UNL     1       6.051   7.308  17.948  0.00  0.00    +0.000 HD
ENDROOT
BRANCH   1   6
ATOM      6  C   UNL     1       8.081   7.549  18.324  0.00  0.00    +0.000 C 
BRANCH   6   8
ATOM      7  C   UNL     1       9.179   9.783  18.901  0.00  0.00    +0.000 C 
ATOM      8  C   UNL     1       8.219   9.031  17.986  0.00  0.00    +0.000 C 
ENDBRANCH   6   8
ENDBRANCH   1   6
BRANCH   4   9
ATOM      9  C   UNL     1       5.721   3.990  15.792  0.00  0.00    +0.000 C 
BRANCH   9  10
ATOM     10  C   UNL     1       6.096   4.064  14.324  0.00  0.00    +0.000 A 
ATOM     11  C   UNL     1       7.232   4.792  13.927  0.00  0.00    +0.000 A 
ATOM     12  C   UNL     1       7.671   4.775  12.600  0.00  0.00    +0.000 A 
ATOM     13  C   UNL     1       6.983   4.028  11.649  0.00  0.00    +0.000 A 
ATOM     14  C   UNL     1       5.848   3.310  12.022  0.00  0.00    +0.000 A 
ATOM     15  C   UNL     1       5.411   3.324  13.350  0.00  0.00    +0.000 A 
ENDBRANCH   9  10
ENDBRANCH   4   9
BRANCH   4  16
ATOM     16  C   UNL     1       4.540   6.022  16.743  0.00  0.00    +0.000 C 
BRANCH  16  17
ATOM     17  C   UNL     1       3.712   5.806  17.974  0.00  0.00    +0.000 A 
ATOM     18  C   UNL     1       3.309   4.518  18.351  0.00  0.00    +0.000 A 
ATOM     19  C   UNL     1       2.373   4.344  19.370  0.00  0.00    +0.000 A 
ATOM     20  C   UNL     1       1.825   5.458  20.011  0.00  0.00    +0.000 A 
ATOM     21  C   UNL     1       2.244   6.741  19.659  0.00  0.00    +0.000 A 
ATOM     22  C   UNL     1       3.208   6.912  18.669  0.00  0.00    +0.000 A 
BRANCH  21  23
ATOM     23  C   UNL     1       1.605   7.895  20.210  0.00  0.00    +0.000 C 
ATOM     24  C   UNL     1       0.986   8.783  20.721  0.00  0.00    +0.000 C 
BRANCH  24  25
ATOM     25  C   UNL     1       0.192   9.784  21.369  0.00  0.00    +0.000 A 
ATOM     26  C   UNL     1      -0.055  11.000  20.731  0.00  0.00    +0.000 A 
ATOM     27  C   UNL     1      -0.813  11.983  21.372  0.00  0.00    +0.000 A 
ATOM     28  C   UNL     1      -1.320  11.752  22.651  0.00  0.00    +0.000 A 
ATOM     29  C   UNL     1      -1.063  10.540  23.294  0.00  0.00    +0.000 A 
ATOM     30  C   UNL     1      -0.305   9.557  22.656  0.00  0.00    +0.000 A 
ENDBRANCH  24  25
ENDBRANCH  21  23
ENDBRANCH  16  17
ENDBRANCH   4  16
TORSDOF 8
ENDMDL
MODEL 6
REMARK VINA RESULT:      -7.9      1.136      1.595
REMARK  Name = 
REMARK  9 active torsions:
REMARK  status: ('A' for Active; 'I' for Inactive)
REMARK    1  A    between atoms: C_1  and  C_2
REMARK    2  A    between atoms: C_2  and  C_3
REMARK    3  A    between atoms: C_3  and  N_4
REMARK    4  A    between atoms: N_7  and  C_8
REMARK    5  A    between atoms: N_7  and  C_15
REMARK    6  A    between atoms: C_8  and  C_9
REMARK    7  A    between atoms: C_15  and  C_16
REMARK    8  A    between atoms: C_20  and  C_21
REMARK    9  A    between atoms: C_22  and  C_23
REMARK                            x       y       z     vdW  Elec       q    Type
REMARK                         _______ _______ _______ _____ _____    ______ ____
ROOT
ATOM      1  N   UNL     1       2.208   8.762  17.811  0.00  0.00    +0.000 N 
ATOM      2  C   UNL     1       2.216   7.834  18.830  0.00  0.00    +0.000 C 
ATOM      3  O   UNL     1       1.460   7.927  19.792  0.00  0.00    +0.000 OA
ATOM      4  N   UNL     1       3.155   6.809  18.686  0.00  0.00    +0.000 N 
ATOM      5  H   UNL     1       2.679   8.553  16.949  0.00  0.00    +0.000 HD
ENDROOT
BRANCH   1   6
ATOM      6  C   UNL     1       1.319   9.905  17.752  0.00  0.00    +0.000 C 
BRANCH   6   8
ATOM      7  C   UNL     1       1.116  11.518  19.723  0.00  0.00    +0.000 C 
ATOM      8  C   UNL     1       1.868  11.147  18.450  0.00  0.00    +0.000 C 
ENDBRANCH   6   8
ENDBRANCH   1   6
BRANCH   4   9
ATOM      9  C   UNL     1       3.268   5.797  19.746  0.00  0.00    +0.000 C 
BRANCH   9  10
ATOM     10  C   UNL     1       2.304   4.629  19.655  0.00  0.00    +0.000 A 
ATOM     11  C   UNL     1       2.128   3.962  18.429  0.00  0.00    +0.000 A 
ATOM     12  C   UNL     1       1.343   2.808  18.344  0.00  0.00    +0.000 A 
ATOM     13  C   UNL     1       0.723   2.303  19.483  0.00  0.00    +0.000 A 
ATOM     14  C   UNL     1       0.877   2.959  20.704  0.00  0.00    +0.000 A 
ATOM     15  C   UNL     1       1.666   4.110  20.789  0.00  0.00    +0.000 A 
ENDBRANCH   9  10
ENDBRANCH   4   9
BRANCH   4  16
ATOM     16  C   UNL     1       3.975   6.704  17.487  0.00  0.00    +0.000 C 
BRANCH  16  17
ATOM     17  C   UNL     1       5.470   6.641  17.589  0.00  0.00    +0.000 A 
ATOM     18  C   UNL     1       6.117   5.438  17.903  0.00  0.00    +0.000 A 
ATOM     19  C   UNL     1       7.479   5.431  18.199  0.00  0.00    +0.000 A 
ATOM     20  C   UNL     1       8.202   6.627  18.195  0.00  0.00    +0.000 A 
ATOM     21  C   UNL     1       7.568   7.821  17.855  0.00  0.00    +0.000 A 
ATOM     22  C   UNL     1       6.217   7.823  17.520  0.00  0.00    +0.000 A 
BRANCH  21  23
ATOM     23  C   UNL     1       8.255   9.070  17.968  0.00  0.00    +0.000 C 
ATOM     24  C   UNL     1       8.872  10.076  18.174  0.00  0.00    +0.000 C 
BRANCH  24  25
ATOM     25  C   UNL     1       9.639  11.241  18.495  0.00  0.00    +0.000 A 
ATOM     26  C   UNL     1      10.647  11.170  19.457  0.00  0.00    +0.000 A 
ATOM     27  C   UNL     1      11.382  12.312  19.784  0.00  0.00    +0.000 A 
ATOM     28  C   UNL     1      11.106  13.525  19.154  0.00  0.00    +0.000 A 
ATOM     29  C   UNL     1      10.090  13.600  18.200  0.00  0.00    +0.000 A 
ATOM     30  C   UNL     1       9.354  12.459  17.872  0.00  0.00    +0.000 A 
ENDBRANCH  24  25
ENDBRANCH  21  23
ENDBRANCH  16  17
ENDBRANCH   4  16
TORSDOF 8
ENDMDL
MODEL 7
REMARK VINA RESULT:      -7.8      3.172      7.923
REMARK  Name = 
REMARK  9 active torsions:
REMARK  status: ('A' for Active; 'I' for Inactive)
REMARK    1  A    between atoms: C_1  and  C_2
REMARK    2  A    between atoms: C_2  and  C_3
REMARK    3  A    between atoms: C_3  and  N_4
REMARK    4  A    between atoms: N_7  and  C_8
REMARK    5  A    between atoms: N_7  and  C_15
REMARK    6  A    between atoms: C_8  and  C_9
REMARK    7  A    between atoms: C_15  and  C_16
REMARK    8  A    between atoms: C_20  and  C_21
REMARK    9  A    between atoms: C_22  and  C_23
REMARK                            x       y       z     vdW  Elec       q    Type
REMARK                         _______ _______ _______ _____ _____    ______ ____
ROOT
ATOM      1  N   UNL     1       5.695   4.214  14.371  0.00  0.00    +0.000 N 
ATOM      2  C   UNL     1       6.486   4.461  15.472  0.00  0.00    +0.000 C 
ATOM      3  O   UNL     1       7.711   4.444  15.402  0.00  0.00    +0.000 OA
ATOM      4  N   UNL     1       5.786   4.707  16.657  0.00  0.00    +0.000 N 
ATOM      5  H   UNL     1       4.717   4.438  14.405  0.00  0.00    +0.000 HD
ENDROOT
BRANCH   1   6
ATOM      6  C   UNL     1       6.205   3.937  13.042  0.00  0.00    +0.000 C 
BRANCH   6   8
ATOM      7  C   UNL     1       4.285   3.323  11.472  0.00  0.00    +0.000 C 
ATOM      8  C   UNL     1       5.453   2.825  12.315  0.00  0.00    +0.000 C 
ENDBRANCH   6   8
ENDBRANCH   1   6
BRANCH   4   9
ATOM      9  C   UNL     1       6.546   4.935  17.894  0.00  0.00    +0.000 C 
BRANCH   9  10
ATOM     10  C   UNL     1       7.252   6.274  18.002  0.00  0.00    +0.000 A 
ATOM     11  C   UNL     1       6.900   7.322  17.132  0.00  0.00    +0.000 A 
ATOM     12  C   UNL     1       7.443   8.601  17.289  0.00  0.00    +0.000 A 
ATOM     13  C   UNL     1       8.346   8.852  18.318  0.00  0.00    +0.000 A 
ATOM     14  C   UNL     1       8.715   7.821  19.182  0.00  0.00    +0.000 A 
ATOM     15  C   UNL     1       8.168   6.544  19.027  0.00  0.00    +0.000 A 
ENDBRANCH   9  10
ENDBRANCH   4   9
BRANCH   4  16
ATOM     16  C   UNL     1       4.332   4.790  16.667  0.00  0.00    +0.000 C 
BRANCH  16  17
ATOM     17  C   UNL     1       3.564   4.558  17.934  0.00  0.00    +0.000 A 
ATOM     18  C   UNL     1       3.086   3.282  18.259  0.00  0.00    +0.000 A 
ATOM     19  C   UNL     1       2.201   3.115  19.324  0.00  0.00    +0.000 A 
ATOM     20  C   UNL     1       1.781   4.223  20.064  0.00  0.00    +0.000 A 
ATOM     21  C   UNL     1       2.278   5.491  19.762  0.00  0.00    +0.000 A 
ATOM     22  C   UNL     1       3.192   5.652  18.724  0.00  0.00    +0.000 A 
BRANCH  21  23
ATOM     23  C   UNL     1       1.765   6.652  20.420  0.00  0.00    +0.000 C 
ATOM     24  C   UNL     1       1.288   7.658  20.860  0.00  0.00    +0.000 C 
BRANCH  24  25
ATOM     25  C   UNL     1       0.684   8.878  21.306  0.00  0.00    +0.000 A 
ATOM     26  C   UNL     1      -0.007   8.913  22.517  0.00  0.00    +0.000 A 
ATOM     27  C   UNL     1      -0.613  10.098  22.942  0.00  0.00    +0.000 A 
ATOM     28  C   UNL     1      -0.532  11.245  22.154  0.00  0.00    +0.000 A 
ATOM     29  C   UNL     1       0.150  11.208  20.936  0.00  0.00    +0.000 A 
ATOM     30  C   UNL     1       0.756  10.024  20.510  0.00  0.00    +0.000 A 
ENDBRANCH  24  25
ENDBRANCH  21  23
ENDBRANCH  16  17
ENDBRANCH   4  16
TORSDOF 8
ENDMDL
MODEL 8
REMARK VINA RESULT:      -7.8      0.763      1.221
REMARK  Name = 
REMARK  9 active torsions:
REMARK  status: ('A' for Active; 'I' for Inactive)
REMARK    1  A    between atoms: C_1  and  C_2
REMARK    2  A    between atoms: C_2  and  C_3
REMARK    3  A    between atoms: C_3  and  N_4
REMARK    4  A    between atoms: N_7  and  C_8
REMARK    5  A    between atoms: N_7  and  C_15
REMARK    6  A    between atoms: C_8  and  C_9
REMARK    7  A    between atoms: C_15  and  C_16
REMARK    8  A    between atoms: C_20  and  C_21
REMARK    9  A    between atoms: C_22  and  C_23
REMARK                            x       y       z     vdW  Elec       q    Type
REMARK                         _______ _______ _______ _____ _____    ______ ____
ROOT
ATOM      1  N   UNL     1       1.950   9.017  18.012  0.00  0.00    +0.000 N 
ATOM      2  C   UNL     1       2.130   8.067  18.994  0.00  0.00    +0.000 C 
ATOM      3  O   UNL     1       1.596   8.168  20.094  0.00  0.00    +0.000 OA
ATOM      4  N   UNL     1       2.975   7.010  18.643  0.00  0.00    +0.000 N 
ATOM      5  H   UNL     1       2.222   8.810  17.068  0.00  0.00    +0.000 HD
ENDROOT
BRANCH   1   6
ATOM      6  C   UNL     1       1.117  10.195  18.156  0.00  0.00    +0.000 C 
BRANCH   6   8
ATOM      7  C   UNL     1       0.952  12.205  19.724  0.00  0.00    +0.000 C 
ATOM      8  C   UNL     1       1.835  11.382  18.794  0.00  0.00    +0.000 C 
ENDBRANCH   6   8
ENDBRANCH   1   6
BRANCH   4   9
ATOM      9  C   UNL     1       3.263   5.972  19.642  0.00  0.00    +0.000 C 
BRANCH   9  10
ATOM     10  C   UNL     1       2.511   4.665  19.477  0.00  0.00    +0.000 A 
ATOM     11  C   UNL     1       3.141   3.567  18.864  0.00  0.00    +0.000 A 
ATOM     12  C   UNL     1       2.518   2.317  18.811  0.00  0.00    +0.000 A 
ATOM     13  C   UNL     1       1.256   2.144  19.370  0.00  0.00    +0.000 A 
ATOM     14  C   UNL     1       0.611   3.224  19.971  0.00  0.00    +0.000 A 
ATOM     15  C   UNL     1       1.236   4.473  20.028  0.00  0.00    +0.000 A 
ENDBRANCH   9  10
ENDBRANCH   4   9
BRANCH   4  16
ATOM     16  C   UNL     1       3.523   6.901  17.298  0.00  0.00    +0.000 C 
BRANCH  16  17
ATOM     17  C   UNL     1       5.002   6.789  17.084  0.00  0.00    +0.000 A 
ATOM     18  C   UNL     1       5.580   5.575  16.691  0.00  0.00    +0.000 A 
ATOM     19  C   UNL     1       6.967   5.423  16.697  0.00  0.00    +0.000 A 
ATOM     20  C   UNL     1       7.783   6.480  17.105  0.00  0.00    +0.000 A 
ATOM     21  C   UNL     1       7.214   7.700  17.469  0.00  0.00    +0.000 A 
ATOM     22  C   UNL     1       5.832   7.864  17.425  0.00  0.00    +0.000 A 
BRANCH  21  23
ATOM     23  C   UNL     1       8.019   8.749  18.011  0.00  0.00    +0.000 C 
ATOM     24  C   UNL     1       8.726   9.655  18.347  0.00  0.00    +0.000 C 
BRANCH  24  25
ATOM     25  C   UNL     1       9.588  10.755  18.663  0.00  0.00    +0.000 A 
ATOM     26  C   UNL     1       9.889  11.708  17.690  0.00  0.00    +0.000 A 
ATOM     27  C   UNL     1      10.746  12.769  17.992  0.00  0.00    +0.000 A 
ATOM     28  C   UNL     1      11.304  12.874  19.266  0.00  0.00    +0.000 A 
ATOM     29  C   UNL     1      11.013  11.915  20.237  0.00  0.00    +0.000 A 
ATOM     30  C   UNL     1      10.157  10.853  19.936  0.00  0.00    +0.000 A 
ENDBRANCH  24  25
ENDBRANCH  21  23
ENDBRANCH  16  17
ENDBRANCH   4  16
TORSDOF 8
ENDMDL
MODEL 9
REMARK VINA RESULT:      -7.7      2.467      4.772
REMARK  Name = 
REMARK  9 active torsions:
REMARK  status: ('A' for Active; 'I' for Inactive)
REMARK    1  A    between atoms: C_1  and  C_2
REMARK    2  A    between atoms: C_2  and  C_3
REMARK    3  A    between atoms: C_3  and  N_4
REMARK    4  A    between atoms: N_7  and  C_8
REMARK    5  A    between atoms: N_7  and  C_15
REMARK    6  A    between atoms: C_8  and  C_9
REMARK    7  A    between atoms: C_15  and  C_16
REMARK    8  A    between atoms: C_20  and  C_21
REMARK    9  A    between atoms: C_22  and  C_23
REMARK                            x       y       z     vdW  Elec       q    Type
REMARK                         _______ _______ _______ _____ _____    ______ ____
ROOT
ATOM      1  N   UNL     1       3.296   5.760  18.018  0.00  0.00    +0.000 N 
ATOM      2  C   UNL     1       3.651   4.644  17.292  0.00  0.00    +0.000 C 
ATOM      3  O   UNL     1       3.006   3.602  17.353  0.00  0.00    +0.000 OA
ATOM      4  N   UNL     1       4.801   4.791  16.510  0.00  0.00    +0.000 N 
ATOM      5  H   UNL     1       3.708   6.647  17.794  0.00  0.00    +0.000 HD
ENDROOT
BRANCH   1   6
ATOM      6  C   UNL     1       2.142   5.834  18.892  0.00  0.00    +0.000 C 
BRANCH   6   8
ATOM      7  C   UNL     1       1.404   4.112  20.629  0.00  0.00    +0.000 C 
ATOM      8  C   UNL     1       2.378   5.230  20.274  0.00  0.00    +0.000 C 
ENDBRANCH   6   8
ENDBRANCH   1   6
BRANCH   4   9
ATOM      9  C   UNL     1       5.284   3.640  15.736  0.00  0.00    +0.000 C 
BRANCH   9  10
ATOM     10  C   UNL     1       6.062   3.967  14.475  0.00  0.00    +0.000 A 
ATOM     11  C   UNL     1       5.651   3.431  13.241  0.00  0.00    +0.000 A 
ATOM     12  C   UNL     1       6.272   3.813  12.048  0.00  0.00    +0.000 A 
ATOM     13  C   UNL     1       7.312   4.737  12.070  0.00  0.00    +0.000 A 
ATOM     14  C   UNL     1       7.741   5.269  13.285  0.00  0.00    +0.000 A 
ATOM     15  C   UNL     1       7.117   4.890  14.478  0.00  0.00    +0.000 A 
ENDBRANCH   9  10
ENDBRANCH   4   9
BRANCH   4  16
ATOM     16  C   UNL     1       5.486   6.073  16.416  0.00  0.00    +0.000 C 
BRANCH  16  17
ATOM     17  C   UNL     1       6.651   6.382  17.308  0.00  0.00    +0.000 A 
ATOM     18  C   UNL     1       7.046   5.485  18.309  0.00  0.00    +0.000 A 
ATOM     19  C   UNL     1       7.989   5.867  19.263  0.00  0.00    +0.000 A 
ATOM     20  C   UNL     1       8.535   7.153  19.228  0.00  0.00    +0.000 A 
ATOM     21  C   UNL     1       8.166   8.039  18.217  0.00  0.00    +0.000 A 
ATOM     22  C   UNL     1       7.255   7.644  17.241  0.00  0.00    +0.000 A 
BRANCH  21  23
ATOM     23  C   UNL     1       8.613   9.397  18.236  0.00  0.00    +0.000 C 
ATOM     24  C   UNL     1       8.989  10.526  18.378  0.00  0.00    +0.000 C 
BRANCH  24  25
ATOM     25  C   UNL     1       9.440  11.860  18.635  0.00  0.00    +0.000 A 
ATOM     26  C   UNL     1      10.380  12.099  19.637  0.00  0.00    +0.000 A 
ATOM     27  C   UNL     1      10.804  13.404  19.901  0.00  0.00    +0.000 A 
ATOM     28  C   UNL     1      10.286  14.469  19.165  0.00  0.00    +0.000 A 
ATOM     29  C   UNL     1       9.336  14.232  18.169  0.00  0.00    +0.000 A 
ATOM     30  C   UNL     1       8.910  12.929  17.905  0.00  0.00    +0.000 A 
ENDBRANCH  24  25
ENDBRANCH  21  23
ENDBRANCH  16  17
ENDBRANCH   4  16
TORSDOF 8
ENDMDL
