MODEL 1
REMARK VINA RESULT:      -6.1      0.000      0.000
REMARK  Name = 
REMARK  8 active torsions:
REMARK  status: ('A' for Active; 'I' for Inactive)
REMARK    1  A    between atoms: C_1  and  C_2
REMARK    2  A    between atoms: C_2  and  C_3
REMARK    3  A    between atoms: C_2  and  C_4
REMARK    4  A    between atoms: C_2  and  C_5
REMARK    5  A    between atoms: N_7  and  C_8
REMARK    6  A    between atoms: C_8  and  C_9
REMARK    7  A    between atoms: C_9  and  O_10
REMARK    8  A    between atoms: C_9  and  C_11
REMARK                            x       y       z     vdW  Elec       q    Type
REMARK                         _______ _______ _______ _____ _____    ______ ____
ROOT
ATOM      1  C   UNL     1       2.979   5.459  17.884  0.00  0.00    +0.000 C 
ENDROOT
BRANCH   1   4
ATOM      2  C   UNL     1       5.440   5.564  18.009  0.00  0.00    +0.000 C 
ATOM      3  O   UNL     1       5.394   5.572  19.237  0.00  0.00    +0.000 OA
ATOM      4  N   UNL     1       4.295   5.462  17.251  0.00  0.00    +0.000 N 
ATOM      5  H   UNL     1       4.336   5.622  16.251  0.00  0.00    +0.000 HD
BRANCH   2   7
ATOM      6  C   UNL     1       7.737   4.585  17.739  0.00  0.00    +0.000 C 
ATOM      7  C   UNL     1       6.764   5.662  17.226  0.00  0.00    +0.000 C 
ATOM      8  C   UNL     1       7.406   7.041  17.435  0.00  0.00    +0.000 C 
ATOM      9  C   UNL     1       6.511   5.423  15.731  0.00  0.00    +0.000 C 
ENDBRANCH   2   7
ENDBRANCH   1   4
BRANCH   1  10
ATOM     10  C   UNL     1       2.363   4.051  17.936  0.00  0.00    +0.000 C 
BRANCH  10  11
ATOM     11  C   UNL     1       2.194   3.505  19.329  0.00  0.00    +0.000 A 
ATOM     12  C   UNL     1       1.069   3.573  20.128  0.00  0.00    +0.000 A 
ATOM     13  C   UNL     1       1.268   2.976  21.409  0.00  0.00    +0.000 A 
ATOM     14  C   UNL     1       2.538   2.468  21.549  0.00  0.00    +0.000 A 
ATOM     15  S   UNL     1       3.481   2.707  20.141  0.00  0.00    +0.000 S 
ENDBRANCH  10  11
BRANCH  10  16
ATOM     16  O   UNL     1       1.076   4.059  17.310  0.00  0.00    +0.000 OA
ATOM     17  H   UNL     1       0.521   4.671  17.827  0.00  0.00    +0.000 HD
ENDBRANCH  10  16
ENDBRANCH   1  10
TORSDOF 5
ENDMDL
MODEL 2
REMARK VINA RESULT:      -6.1      0.749      1.471
REMARK  Name = 
REMARK  8 active torsions:
REMARK  status: ('A' for Active; 'I' for Inactive)
REMARK    1  A    between atoms: C_1  and  C_2
REMARK    2  A    between atoms: C_2  and  C_3
REMARK    3  A    between atoms: C_2  and  C_4
REMARK    4  A    between atoms: C_2  and  C_5
REMARK    5  A    between atoms: N_7  and  C_8
REMARK    6  A    between atoms: C_8  and  C_9
REMARK    7  A    between atoms: C_9  and  O_10
REMARK    8  A    between atoms: C_9  and  C_11
REMARK                            x       y       z     vdW  Elec       q    Type
REMARK                         _______ _______ _______ _____ _____    ______ ____
ROOT
ATOM      1  C   UNL     1       3.366   5.168  17.648  0.00  0.00    +0.000 C 
ENDROOT
BRANCH   1   4
ATOM      2  C   UNL     1       5.650   5.518  18.507  0.00  0.00    +0.000 C 
ATOM      3  O   UNL     1       5.224   5.600  19.657  0.00  0.00    +0.000 OA
ATOM      4  N   UNL     1       4.809   5.258  17.448  0.00  0.00    +0.000 N 
ATOM      5  H   UNL     1       5.148   5.358  16.499  0.00  0.00    +0.000 HD
BRANCH   2   7
ATOM      6  C   UNL     1       7.338   7.036  17.431  0.00  0.00    +0.000 C 
ATOM      7  C   UNL     1       7.142   5.694  18.160  0.00  0.00    +0.000 C 
ATOM      8  C   UNL     1       7.612   4.561  17.235  0.00  0.00    +0.000 C 
ATOM      9  C   UNL     1       7.983   5.705  19.444  0.00  0.00    +0.000 C 
ENDBRANCH   2   7
ENDBRANCH   1   4
BRANCH   1  10
ATOM     10  C   UNL     1       2.891   3.714  17.809  0.00  0.00    +0.000 C 
BRANCH  10  11
ATOM     11  C   UNL     1       2.487   3.351  19.213  0.00  0.00    +0.000 A 
ATOM     12  C   UNL     1       1.267   3.580  19.822  0.00  0.00    +0.000 A 
ATOM     13  C   UNL     1       1.239   3.132  21.178  0.00  0.00    +0.000 A 
ATOM     14  C   UNL     1       2.434   2.572  21.560  0.00  0.00    +0.000 A 
ATOM     15  S   UNL     1       3.582   2.584  20.291  0.00  0.00    +0.000 S 
ENDBRANCH  10  11
BRANCH  10  16
ATOM     16  O   UNL     1       1.770   3.470  16.953  0.00  0.00    +0.000 OA
ATOM     17  H   UNL     1       1.108   4.153  17.164  0.00  0.00    +0.000 HD
ENDBRANCH  10  16
ENDBRANCH   1  10
TORSDOF 5
ENDMDL
MODEL 3
REMARK VINA RESULT:      -6.1      0.765      1.069
REMARK  Name = 
REMARK  8 active torsions:
REMARK  status: ('A' for Active; 'I' for Inactive)
REMARK    1  A    between atoms: C_1  and  C_2
REMARK    2  A    between atoms: C_2  and  C_3
REMARK    3  A    between atoms: C_2  and  C_4
REMARK    4  A    between atoms: C_2  and  C_5
REMARK    5  A    between atoms: N_7  and  C_8
REMARK    6  A    between atoms: C_8  and  C_9
REMARK    7  A    between atoms: C_9  and  O_10
REMARK    8  A    between atoms: C_9  and  C_11
REMARK                            x       y       z     vdW  Elec       q    Type
REMARK                         _______ _______ _______ _____ _____    ______ ____
ROOT
ATOM      1  C   UNL     1       3.378   5.129  17.607  0.00  0.00    +0.000 C 
ENDROOT
BRANCH   1   4
ATOM      2  C   UNL     1       5.644   5.532  18.489  0.00  0.00    +0.000 C 
ATOM      3  O   UNL     1       5.201   5.626  19.632  0.00  0.00    +0.000 OA
ATOM      4  N   UNL     1       4.822   5.241  17.424  0.00  0.00    +0.000 N 
ATOM      5  H   UNL     1       5.172   5.331  16.477  0.00  0.00    +0.000 HD
BRANCH   2   7
ATOM      6  C   UNL     1       7.603   4.594  17.227  0.00  0.00    +0.000 C 
ATOM      7  C   UNL     1       7.137   5.728  18.159  0.00  0.00    +0.000 C 
ATOM      8  C   UNL     1       7.978   5.683  19.443  0.00  0.00    +0.000 C 
ATOM      9  C   UNL     1       7.346   7.069  17.442  0.00  0.00    +0.000 C 
ENDBRANCH   2   7
ENDBRANCH   1   4
BRANCH   1  10
ATOM     10  C   UNL     1       2.926   3.672  17.792  0.00  0.00    +0.000 C 
BRANCH  10  11
ATOM     11  C   UNL     1       2.501   3.334  19.196  0.00  0.00    +0.000 A 
ATOM     12  C   UNL     1       1.274   3.577  19.784  0.00  0.00    +0.000 A 
ATOM     13  C   UNL     1       1.225   3.152  21.146  0.00  0.00    +0.000 A 
ATOM     14  C   UNL     1       2.412   2.594  21.555  0.00  0.00    +0.000 A 
ATOM     15  S   UNL     1       3.578   2.580  20.302  0.00  0.00    +0.000 S 
ENDBRANCH  10  11
BRANCH  10  16
ATOM     16  O   UNL     1       1.827   3.387  16.920  0.00  0.00    +0.000 OA
ATOM     17  H   UNL     1       2.189   2.870  16.179  0.00  0.00    +0.000 HD
ENDBRANCH  10  16
ENDBRANCH   1  10
TORSDOF 5
ENDMDL
MODEL 4
REMARK VINA RESULT:      -6.0      1.043      1.583
REMARK  Name = 
REMARK  8 active torsions:
REMARK  status: ('A' for Active; 'I' for Inactive)
REMARK    1  A    between atoms: C_1  and  C_2
REMARK    2  A    between atoms: C_2  and  C_3
REMARK    3  A    between atoms: C_2  and  C_4
REMARK    4  A    between atoms: C_2  and  C_5
REMARK    5  A    between atoms: N_7  and  C_8
REMARK    6  A    between atoms: C_8  and  C_9
REMARK    7  A    between atoms: C_9  and  O_10
REMARK    8  A    between atoms: C_9  and  C_11
REMARK                            x       y       z     vdW  Elec       q    Type
REMARK                         _______ _______ _______ _____ _____    ______ ____
ROOT
ATOM      1  C   UNL     1       2.907   5.753  18.009  0.00  0.00    +0.000 C 
ENDROOT
BRANCH   1   4
ATOM      2  C   UNL     1       5.279   5.757  17.337  0.00  0.00    +0.000 C 
ATOM      3  O   UNL     1       4.960   5.719  16.150  0.00  0.00    +0.000 OA
ATOM      4  N   UNL     1       4.329   5.823  18.331  0.00  0.00    +0.000 N 
ATOM      5  H   UNL     1       4.601   5.689  19.298  0.00  0.00    +0.000 HD
BRANCH   2   7
ATOM      6  C   UNL     1       7.401   7.094  17.480  0.00  0.00    +0.000 C 
ATOM      7  C   UNL     1       6.748   5.738  17.804  0.00  0.00    +0.000 C 
ATOM      8  C   UNL     1       7.526   4.633  17.072  0.00  0.00    +0.000 C 
ATOM      9  C   UNL     1       6.816   5.510  19.319  0.00  0.00    +0.000 C 
ENDBRANCH   2   7
ENDBRANCH   1   4
BRANCH   1  10
ATOM     10  C   UNL     1       2.388   4.306  17.984  0.00  0.00    +0.000 C 
BRANCH  10  11
ATOM     11  C   UNL     1       2.225   3.688  19.348  0.00  0.00    +0.000 A 
ATOM     12  C   UNL     1       1.117   3.749  20.172  0.00  0.00    +0.000 A 
ATOM     13  C   UNL     1       1.319   3.074  21.414  0.00  0.00    +0.000 A 
ATOM     14  C   UNL     1       2.572   2.516  21.499  0.00  0.00    +0.000 A 
ATOM     15  S   UNL     1       3.498   2.801  20.088  0.00  0.00    +0.000 S 
ENDBRANCH  10  11
BRANCH  10  16
ATOM     16  O   UNL     1       1.118   4.254  17.326  0.00  0.00    +0.000 OA
ATOM     17  H   UNL     1       0.830   5.178  17.209  0.00  0.00    +0.000 HD
ENDBRANCH  10  16
ENDBRANCH   1  10
TORSDOF 5
ENDMDL
MODEL 5
REMARK VINA RESULT:      -6.0      1.107      1.414
REMARK  Name = 
REMARK  8 active torsions:
REMARK  status: ('A' for Active; 'I' for Inactive)
REMARK    1  A    between atoms: C_1  and  C_2
REMARK    2  A    between atoms: C_2  and  C_3
REMARK    3  A    between atoms: C_2  and  C_4
REMARK    4  A    between atoms: C_2  and  C_5
REMARK    5  A    between atoms: N_7  and  C_8
REMARK    6  A    between atoms: C_8  and  C_9
REMARK    7  A    between atoms: C_9  and  O_10
REMARK    8  A    between atoms: C_9  and  C_11
REMARK                            x       y       z     vdW  Elec       q    Type
REMARK                         _______ _______ _______ _____ _____    ______ ____
ROOT
ATOM      1  C   UNL     1       3.386   5.030  17.687  0.00  0.00    +0.000 C 
ENDROOT
BRANCH   1   4
ATOM      2  C   UNL     1       5.663   5.474  18.524  0.00  0.00    +0.000 C 
ATOM      3  O   UNL     1       5.241   5.557  19.676  0.00  0.00    +0.000 OA
ATOM      4  N   UNL     1       4.824   5.169  17.475  0.00  0.00    +0.000 N 
ATOM      5  H   UNL     1       5.153   5.265  16.522  0.00  0.00    +0.000 HD
BRANCH   2   7
ATOM      6  C   UNL     1       7.987   5.695  19.452  0.00  0.00    +0.000 C 
ATOM      7  C   UNL     1       7.145   5.697  18.163  0.00  0.00    +0.000 C 
ATOM      8  C   UNL     1       7.324   7.053  17.463  0.00  0.00    +0.000 C 
ATOM      9  C   UNL     1       7.640   4.567  17.251  0.00  0.00    +0.000 C 
ENDBRANCH   2   7
ENDBRANCH   1   4
BRANCH   1  10
ATOM     10  C   UNL     1       2.970   3.566  17.908  0.00  0.00    +0.000 C 
BRANCH  10  11
ATOM     11  C   UNL     1       2.575   3.246  19.325  0.00  0.00    +0.000 A 
ATOM     12  C   UNL     1       3.363   2.679  20.309  0.00  0.00    +0.000 A 
ATOM     13  C   UNL     1       2.656   2.487  21.535  0.00  0.00    +0.000 A 
ATOM     14  C   UNL     1       1.353   2.915  21.450  0.00  0.00    +0.000 A 
ATOM     15  S   UNL     1       0.986   3.549  19.903  0.00  0.00    +0.000 S 
ENDBRANCH  10  11
BRANCH  10  16
ATOM     16  O   UNL     1       1.862   3.242  17.061  0.00  0.00    +0.000 OA
ATOM     17  H   UNL     1       2.152   3.417  16.147  0.00  0.00    +0.000 HD
ENDBRANCH  10  16
ENDBRANCH   1  10
TORSDOF 5
ENDMDL
MODEL 6
REMARK VINA RESULT:      -6.0      1.095      1.492
REMARK  Name = 
REMARK  8 active torsions:
REMARK  status: ('A' for Active; 'I' for Inactive)
REMARK    1  A    between atoms: C_1  and  C_2
REMARK    2  A    between atoms: C_2  and  C_3
REMARK    3  A    between atoms: C_2  and  C_4
REMARK    4  A    between atoms: C_2  and  C_5
REMARK    5  A    between atoms: N_7  and  C_8
REMARK    6  A    between atoms: C_8  and  C_9
REMARK    7  A    between atoms: C_9  and  O_10
REMARK    8  A    between atoms: C_9  and  C_11
REMARK                            x       y       z     vdW  Elec       q    Type
REMARK                         _______ _______ _______ _____ _____    ______ ____
ROOT
ATOM      1  C   UNL     1       3.372   5.116  17.711  0.00  0.00    +0.000 C 
ENDROOT
BRANCH   1   4
ATOM      2  C   UNL     1       5.662   5.500  18.539  0.00  0.00    +0.000 C 
ATOM      3  O   UNL     1       5.252   5.555  19.697  0.00  0.00    +0.000 OA
ATOM      4  N   UNL     1       4.809   5.239  17.490  0.00  0.00    +0.000 N 
ATOM      5  H   UNL     1       5.131   5.360  16.536  0.00  0.00    +0.000 HD
BRANCH   2   7
ATOM      6  C   UNL     1       7.610   4.561  17.260  0.00  0.00    +0.000 C 
ATOM      7  C   UNL     1       7.144   5.712  18.171  0.00  0.00    +0.000 C 
ATOM      8  C   UNL     1       8.013   5.716  19.438  0.00  0.00    +0.000 C 
ATOM      9  C   UNL     1       7.314   7.036  17.415  0.00  0.00    +0.000 C 
ENDBRANCH   2   7
ENDBRANCH   1   4
BRANCH   1  10
ATOM     10  C   UNL     1       2.936   3.654  17.903  0.00  0.00    +0.000 C 
BRANCH  10  11
ATOM     11  C   UNL     1       2.561   3.306  19.320  0.00  0.00    +0.000 A 
ATOM     12  C   UNL     1       3.362   2.719  20.281  0.00  0.00    +0.000 A 
ATOM     13  C   UNL     1       2.672   2.503  21.512  0.00  0.00    +0.000 A 
ATOM     14  C   UNL     1       1.368   2.933  21.454  0.00  0.00    +0.000 A 
ATOM     15  S   UNL     1       0.980   3.598  19.926  0.00  0.00    +0.000 S 
ENDBRANCH  10  11
BRANCH  10  16
ATOM     16  O   UNL     1       1.809   3.367  17.069  0.00  0.00    +0.000 OA
ATOM     17  H   UNL     1       1.432   2.529  17.393  0.00  0.00    +0.000 HD
ENDBRANCH  10  16
ENDBRANCH   1  10
TORSDOF 5
ENDMDL
MODEL 7
REMARK VINA RESULT:      -5.9      2.508      6.056
REMARK  Name = 
REMARK  8 active torsions:
REMARK  status: ('A' for Active; 'I' for Inactive)
REMARK    1  A    between atoms: C_1  and  C_2
REMARK    2  A    between atoms: C_2  and  C_3
REMARK    3  A    between atoms: C_2  and  C_4
REMARK    4  A    between atoms: C_2  and  C_5
REMARK    5  A    between atoms: N_7  and  C_8
REMARK    6  A    between atoms: C_8  and  C_9
REMARK    7  A    between atoms: C_9  and  O_10
REMARK    8  A    between atoms: C_9  and  C_11
REMARK                            x       y       z     vdW  Elec       q    Type
REMARK                         _______ _______ _______ _____ _____    ______ ____
ROOT
ATOM      1  C   UNL     1       5.230   4.001  18.992  0.00  0.00    +0.000 C 
ENDROOT
BRANCH   1   4
ATOM      2  C   UNL     1       3.225   3.164  20.158  0.00  0.00    +0.000 C 
ATOM      3  O   UNL     1       3.870   2.230  20.631  0.00  0.00    +0.000 OA
ATOM      4  N   UNL     1       3.825   4.120  19.369  0.00  0.00    +0.000 N 
ATOM      5  H   UNL     1       3.254   4.783  18.857  0.00  0.00    +0.000 HD
BRANCH   2   7
ATOM      6  C   UNL     1       1.390   4.842  20.515  0.00  0.00    +0.000 C 
ATOM      7  C   UNL     1       1.714   3.341  20.406  0.00  0.00    +0.000 C 
ATOM      8  C   UNL     1       1.305   2.655  21.718  0.00  0.00    +0.000 C 
ATOM      9  C   UNL     1       0.916   2.750  19.235  0.00  0.00    +0.000 C 
ENDBRANCH   2   7
ENDBRANCH   1   4
BRANCH   1  10
ATOM     10  C   UNL     1       5.543   4.733  17.676  0.00  0.00    +0.000 C 
BRANCH  10  11
ATOM     11  C   UNL     1       6.477   5.904  17.832  0.00  0.00    +0.000 A 
ATOM     12  C   UNL     1       6.500   7.065  17.084  0.00  0.00    +0.000 A 
ATOM     13  C   UNL     1       7.543   7.955  17.485  0.00  0.00    +0.000 A 
ATOM     14  C   UNL     1       8.280   7.448  18.527  0.00  0.00    +0.000 A 
ATOM     15  S   UNL     1       7.716   5.909  19.022  0.00  0.00    +0.000 S 
ENDBRANCH  10  11
BRANCH  10  16
ATOM     16  O   UNL     1       6.133   3.823  16.740  0.00  0.00    +0.000 OA
ATOM     17  H   UNL     1       6.807   4.329  16.253  0.00  0.00    +0.000 HD
ENDBRANCH  10  16
ENDBRANCH   1  10
TORSDOF 5
ENDMDL
MODEL 8
REMARK VINA RESULT:      -5.8      1.404      1.676
REMARK  Name = 
REMARK  8 active torsions:
REMARK  status: ('A' for Active; 'I' for Inactive)
REMARK    1  A    between atoms: C_1  and  C_2
REMARK    2  A    between atoms: C_2  and  C_3
REMARK    3  A    between atoms: C_2  and  C_4
REMARK    4  A    between atoms: C_2  and  C_5
REMARK    5  A    between atoms: N_7  and  C_8
REMARK    6  A    between atoms: C_8  and  C_9
REMARK    7  A    between atoms: C_9  and  O_10
REMARK    8  A    between atoms: C_9  and  C_11
REMARK                            x       y       z     vdW  Elec       q    Type
REMARK                         _______ _______ _______ _____ _____    ______ ____
ROOT
ATOM      1  C   UNL     1       4.274   2.312  17.668  0.00  0.00    +0.000 C 
ENDROOT
BRANCH   1   4
ATOM      2  C   UNL     1       5.666   4.345  17.587  0.00  0.00    +0.000 C 
ATOM      3  O   UNL     1       5.980   4.197  18.766  0.00  0.00    +0.000 OA
ATOM      4  N   UNL     1       4.859   3.435  16.942  0.00  0.00    +0.000 N 
ATOM      5  H   UNL     1       4.479   3.656  16.029  0.00  0.00    +0.000 HD
BRANCH   2   7
ATOM      6  C   UNL     1       7.222   6.317  17.526  0.00  0.00    +0.000 C 
ATOM      7  C   UNL     1       6.143   5.545  16.744  0.00  0.00    +0.000 C 
ATOM      8  C   UNL     1       4.971   6.495  16.458  0.00  0.00    +0.000 C 
ATOM      9  C   UNL     1       6.751   5.051  15.425  0.00  0.00    +0.000 C 
ENDBRANCH   2   7
ENDBRANCH   1   4
BRANCH   1  10
ATOM     10  C   UNL     1       2.746   2.434  17.793  0.00  0.00    +0.000 C 
BRANCH  10  11
ATOM     11  C   UNL     1       2.282   3.019  19.101  0.00  0.00    +0.000 A 
ATOM     12  C   UNL     1       1.193   3.843  19.313  0.00  0.00    +0.000 A 
ATOM     13  C   UNL     1       1.062   4.239  20.679  0.00  0.00    +0.000 A 
ATOM     14  C   UNL     1       2.052   3.703  21.467  0.00  0.00    +0.000 A 
ATOM     15  S   UNL     1       3.130   2.725  20.566  0.00  0.00    +0.000 S 
ENDBRANCH  10  11
BRANCH  10  16
ATOM     16  O   UNL     1       2.234   3.256  16.739  0.00  0.00    +0.000 OA
ATOM     17  H   UNL     1       1.270   3.119  16.726  0.00  0.00    +0.000 HD
ENDBRANCH  10  16
ENDBRANCH   1  10
TORSDOF 5
ENDMDL
MODEL 9
REMARK VINA RESULT:      -5.8      2.289      5.775
REMARK  Name = 
REMARK  8 active torsions:
REMARK  status: ('A' for Active; 'I' for Inactive)
REMARK    1  A    between atoms: C_1  and  C_2
REMARK    2  A    between atoms: C_2  and  C_3
REMARK    3  A    between atoms: C_2  and  C_4
REMARK    4  A    between atoms: C_2  and  C_5
REMARK    5  A    between atoms: N_7  and  C_8
REMARK    6  A    between atoms: C_8  and  C_9
REMARK    7  A    between atoms: C_9  and  O_10
REMARK    8  A    between atoms: C_9  and  C_11
REMARK                            x       y       z     vdW  Elec       q    Type
REMARK                         _______ _______ _______ _____ _____    ______ ____
ROOT
ATOM      1  C   UNL     1       4.932   5.229  19.274  0.00  0.00    +0.000 C 
ENDROOT
BRANCH   1   4
ATOM      2  C   UNL     1       3.161   3.587  19.771  0.00  0.00    +0.000 C 
ATOM      3  O   UNL     1       3.891   2.666  19.412  0.00  0.00    +0.000 OA
ATOM      4  N   UNL     1       3.606   4.890  19.782  0.00  0.00    +0.000 N 
ATOM      5  H   UNL     1       2.947   5.647  19.922  0.00  0.00    +0.000 HD
BRANCH   2   7
ATOM      6  C   UNL     1       1.021   4.728  20.426  0.00  0.00    +0.000 C 
ATOM      7  C   UNL     1       1.708   3.363  20.236  0.00  0.00    +0.000 C 
ATOM      8  C   UNL     1       1.687   2.613  21.575  0.00  0.00    +0.000 C 
ATOM      9  C   UNL     1       0.934   2.567  19.176  0.00  0.00    +0.000 C 
ENDBRANCH   2   7
ENDBRANCH   1   4
BRANCH   1  10
ATOM     10  C   UNL     1       4.866   6.150  18.044  0.00  0.00    +0.000 C 
BRANCH  10  11
ATOM     11  C   UNL     1       5.573   5.606  16.831  0.00  0.00    +0.000 A 
ATOM     12  C   UNL     1       5.195   5.739  15.509  0.00  0.00    +0.000 A 
ATOM     13  C   UNL     1       6.084   5.069  14.614  0.00  0.00    +0.000 A 
ATOM     14  C   UNL     1       7.114   4.449  15.280  0.00  0.00    +0.000 A 
ATOM     15  S   UNL     1       7.012   4.677  16.974  0.00  0.00    +0.000 S 
ENDBRANCH  10  11
BRANCH  10  16
ATOM     16  O   UNL     1       3.500   6.387  17.686  0.00  0.00    +0.000 OA
ATOM     17  H   UNL     1       3.462   6.358  16.713  0.00  0.00    +0.000 HD
ENDBRANCH  10  16
ENDBRANCH   1  10
TORSDOF 5
ENDMDL
