MODEL 1
REMARK VINA RESULT:      -7.9      0.000      0.000
REMARK  Name = 
REMARK  2 active torsions:
REMARK  status: ('A' for Active; 'I' for Inactive)
REMARK    1  A    between atoms: C_2  and  C_3
REMARK    2  A    between atoms: C_13  and  C_14
REMARK                            x       y       z     vdW  Elec       q    Type
REMARK                         _______ _______ _______ _____ _____    ______ ____
ROOT
ATOM      1  C   UNL     1       0.827   9.730  19.524  0.00  0.00    +0.000 A 
ATOM      2  C   UNL     1       1.729   9.008  18.751  0.00  0.00    +0.000 A 
ATOM      3  C   UNL     1       2.142   7.769  19.262  0.00  0.00    +0.000 A 
ATOM      4  C   UNL     1       1.628   7.347  20.490  0.00  0.00    +0.000 A 
ATOM      5  C   UNL     1       0.728   8.115  21.216  0.00  0.00    +0.000 A 
ATOM      6  N   UNL     1       0.336   9.311  20.717  0.00  0.00    +0.000 NA
ATOM      7  N   UNL     1       2.183   6.115  20.761  0.00  0.00    +0.000 N 
ATOM      8  C   UNL     1       3.025   5.745  19.751  0.00  0.00    +0.000 A 
ATOM      9  N   UNL     1       3.717   4.592  19.722  0.00  0.00    +0.000 NA
ATOM     10  C   UNL     1       4.482   4.470  18.607  0.00  0.00    +0.000 A 
ATOM     11  C   UNL     1       4.591   5.393  17.559  0.00  0.00    +0.000 A 
ATOM     12  C   UNL     1       3.836   6.571  17.669  0.00  0.00    +0.000 A 
ATOM     13  C   UNL     1       3.028   6.753  18.800  0.00  0.00    +0.000 A 
ATOM     14  H   UNL     1       2.008   5.548  21.576  0.00  0.00    +0.000 HD
ENDROOT
BRANCH  11  15
ATOM     15  C   UNL     1       5.450   5.152  16.393  0.00  0.00    +0.000 A 
ATOM     16  C   UNL     1       5.053   4.312  15.344  0.00  0.00    +0.000 A 
ATOM     17  C   UNL     1       5.892   4.100  14.254  0.00  0.00    +0.000 A 
ATOM     18  C   UNL     1       7.116   4.742  14.239  0.00  0.00    +0.000 A 
ATOM     19  N   UNL     1       7.550   5.555  15.223  0.00  0.00    +0.000 NA
ATOM     20  C   UNL     1       6.712   5.736  16.270  0.00  0.00    +0.000 A 
ENDBRANCH  11  15
BRANCH   1  22
ATOM     21  N   UNL     1      -0.060  12.042  18.729  0.00  0.00    +0.000 NA
ATOM     22  C   UNL     1       0.361  11.009  19.068  0.00  0.00    +0.000 C 
ENDBRANCH   1  22
TORSDOF 2
ENDMDL
MODEL 2
REMARK VINA RESULT:      -7.7      2.215      7.824
REMARK  Name = 
REMARK  2 active torsions:
REMARK  status: ('A' for Active; 'I' for Inactive)
REMARK    1  A    between atoms: C_2  and  C_3
REMARK    2  A    between atoms: C_13  and  C_14
REMARK                            x       y       z     vdW  Elec       q    Type
REMARK                         _______ _______ _______ _____ _____    ______ ____
ROOT
ATOM      1  C   UNL     1       4.286   3.955  19.104  0.00  0.00    +0.000 A 
ATOM      2  C   UNL     1       3.500   4.950  19.675  0.00  0.00    +0.000 A 
ATOM      3  C   UNL     1       3.255   6.084  18.888  0.00  0.00    +0.000 A 
ATOM      4  C   UNL     1       3.803   6.140  17.604  0.00  0.00    +0.000 A 
ATOM      5  C   UNL     1       4.581   5.111  17.090  0.00  0.00    +0.000 A 
ATOM      6  N   UNL     1       4.815   4.020  17.856  0.00  0.00    +0.000 NA
ATOM      7  N   UNL     1       3.416   7.340  17.049  0.00  0.00    +0.000 N 
ATOM      8  C   UNL     1       2.646   8.042  17.932  0.00  0.00    +0.000 A 
ATOM      9  N   UNL     1       2.114   9.251  17.683  0.00  0.00    +0.000 NA
ATOM     10  C   UNL     1       1.391   9.729  18.729  0.00  0.00    +0.000 A 
ATOM     11  C   UNL     1       1.175   9.095  19.959  0.00  0.00    +0.000 A 
ATOM     12  C   UNL     1       1.767   7.836  20.137  0.00  0.00    +0.000 A 
ATOM     13  C   UNL     1       2.526   7.291  19.091  0.00  0.00    +0.000 A 
ATOM     14  H   UNL     1       3.652   7.675  16.128  0.00  0.00    +0.000 HD
ENDROOT
BRANCH  11  15
ATOM     15  C   UNL     1       0.367   9.708  21.021  0.00  0.00    +0.000 A 
ATOM     16  C   UNL     1       0.315   9.170  22.313  0.00  0.00    +0.000 A 
ATOM     17  C   UNL     1      -0.463   9.772  23.298  0.00  0.00    +0.000 A 
ATOM     18  C   UNL     1      -1.173  10.909  22.962  0.00  0.00    +0.000 A 
ATOM     19  N   UNL     1      -1.164  11.465  21.734  0.00  0.00    +0.000 NA
ATOM     20  C   UNL     1      -0.400  10.853  20.799  0.00  0.00    +0.000 A 
ENDBRANCH  11  15
BRANCH   1  22
ATOM     21  N   UNL     1       4.873   1.816  20.462  0.00  0.00    +0.000 NA
ATOM     22  C   UNL     1       4.583   2.764  19.850  0.00  0.00    +0.000 C 
ENDBRANCH   1  22
TORSDOF 2
ENDMDL
MODEL 3
REMARK VINA RESULT:      -7.7      3.971      7.703
REMARK  Name = 
REMARK  2 active torsions:
REMARK  status: ('A' for Active; 'I' for Inactive)
REMARK    1  A    between atoms: C_2  and  C_3
REMARK    2  A    between atoms: C_13  and  C_14
REMARK                            x       y       z     vdW  Elec       q    Type
REMARK                         _______ _______ _______ _____ _____    ______ ____
ROOT
ATOM      1  C   UNL     1       5.952   3.626  13.072  0.00  0.00    +0.000 A 
ATOM      2  C   UNL     1       5.291   3.516  14.290  0.00  0.00    +0.000 A 
ATOM      3  C   UNL     1       5.810   4.269  15.354  0.00  0.00    +0.000 A 
ATOM      4  C   UNL     1       6.933   5.067  15.125  0.00  0.00    +0.000 A 
ATOM      5  C   UNL     1       7.549   5.133  13.883  0.00  0.00    +0.000 A 
ATOM      6  N   UNL     1       7.044   4.403  12.861  0.00  0.00    +0.000 NA
ATOM      7  N   UNL     1       7.234   5.694  16.314  0.00  0.00    +0.000 N 
ATOM      8  C   UNL     1       6.344   5.324  17.282  0.00  0.00    +0.000 A 
ATOM      9  N   UNL     1       6.372   5.768  18.551  0.00  0.00    +0.000 NA
ATOM     10  C   UNL     1       5.376   5.243  19.310  0.00  0.00    +0.000 A 
ATOM     11  C   UNL     1       4.391   4.338  18.893  0.00  0.00    +0.000 A 
ATOM     12  C   UNL     1       4.435   3.924  17.553  0.00  0.00    +0.000 A 
ATOM     13  C   UNL     1       5.443   4.433  16.721  0.00  0.00    +0.000 A 
ATOM     14  H   UNL     1       7.993   6.339  16.473  0.00  0.00    +0.000 HD
ENDROOT
BRANCH  11  15
ATOM     15  C   UNL     1       3.355   3.839  19.805  0.00  0.00    +0.000 A 
ATOM     16  C   UNL     1       2.011   4.215  19.673  0.00  0.00    +0.000 A 
ATOM     17  C   UNL     1       1.052   3.727  20.555  0.00  0.00    +0.000 A 
ATOM     18  C   UNL     1       1.464   2.867  21.555  0.00  0.00    +0.000 A 
ATOM     19  N   UNL     1       2.742   2.478  21.732  0.00  0.00    +0.000 NA
ATOM     20  C   UNL     1       3.651   2.973  20.859  0.00  0.00    +0.000 A 
ENDBRANCH  11  15
BRANCH   1  22
ATOM     21  N   UNL     1       5.051   2.295  11.027  0.00  0.00    +0.000 NA
ATOM     22  C   UNL     1       5.482   2.883  11.936  0.00  0.00    +0.000 C 
ENDBRANCH   1  22
TORSDOF 2
ENDMDL
MODEL 4
REMARK VINA RESULT:      -7.7      2.251      7.807
REMARK  Name = 
REMARK  2 active torsions:
REMARK  status: ('A' for Active; 'I' for Inactive)
REMARK    1  A    between atoms: C_2  and  C_3
REMARK    2  A    between atoms: C_13  and  C_14
REMARK                            x       y       z     vdW  Elec       q    Type
REMARK                         _______ _______ _______ _____ _____    ______ ____
ROOT
ATOM      1  C   UNL     1       4.262   3.976  19.104  0.00  0.00    +0.000 A 
ATOM      2  C   UNL     1       3.495   4.983  19.679  0.00  0.00    +0.000 A 
ATOM      3  C   UNL     1       3.243   6.110  18.883  0.00  0.00    +0.000 A 
ATOM      4  C   UNL     1       3.766   6.147  17.589  0.00  0.00    +0.000 A 
ATOM      5  C   UNL     1       4.526   5.107  17.072  0.00  0.00    +0.000 A 
ATOM      6  N   UNL     1       4.767   4.023  17.846  0.00  0.00    +0.000 NA
ATOM      7  N   UNL     1       3.377   7.344  17.028  0.00  0.00    +0.000 N 
ATOM      8  C   UNL     1       2.629   8.061  17.917  0.00  0.00    +0.000 A 
ATOM      9  N   UNL     1       2.101   9.271  17.665  0.00  0.00    +0.000 NA
ATOM     10  C   UNL     1       1.402   9.767  18.719  0.00  0.00    +0.000 A 
ATOM     11  C   UNL     1       1.206   9.149  19.961  0.00  0.00    +0.000 A 
ATOM     12  C   UNL     1       1.793   7.887  20.141  0.00  0.00    +0.000 A 
ATOM     13  C   UNL     1       2.527   7.325  19.087  0.00  0.00    +0.000 A 
ATOM     14  H   UNL     1       3.596   7.666  16.098  0.00  0.00    +0.000 HD
ENDROOT
BRANCH  11  15
ATOM     15  C   UNL     1       0.424   9.780  21.031  0.00  0.00    +0.000 A 
ATOM     16  C   UNL     1      -0.515  10.786  20.765  0.00  0.00    +0.000 A 
ATOM     17  C   UNL     1      -1.239  11.367  21.801  0.00  0.00    +0.000 A 
ATOM     18  C   UNL     1      -1.004  10.923  23.089  0.00  0.00    +0.000 A 
ATOM     19  N   UNL     1      -0.110   9.965  23.401  0.00  0.00    +0.000 NA
ATOM     20  C   UNL     1       0.580   9.422  22.371  0.00  0.00    +0.000 A 
ENDBRANCH  11  15
BRANCH   1  22
ATOM     21  N   UNL     1       4.849   1.858  20.494  0.00  0.00    +0.000 NA
ATOM     22  C   UNL     1       4.565   2.792  19.858  0.00  0.00    +0.000 C 
ENDBRANCH   1  22
TORSDOF 2
ENDMDL
MODEL 5
REMARK VINA RESULT:      -7.5      3.297      7.715
REMARK  Name = 
REMARK  2 active torsions:
REMARK  status: ('A' for Active; 'I' for Inactive)
REMARK    1  A    between atoms: C_2  and  C_3
REMARK    2  A    between atoms: C_13  and  C_14
REMARK                            x       y       z     vdW  Elec       q    Type
REMARK                         _______ _______ _______ _____ _____    ______ ____
ROOT
ATOM      1  C   UNL     1       5.319   3.712  12.511  0.00  0.00    +0.000 A 
ATOM      2  C   UNL     1       4.835   3.692  13.814  0.00  0.00    +0.000 A 
ATOM      3  C   UNL     1       5.706   4.147  14.814  0.00  0.00    +0.000 A 
ATOM      4  C   UNL     1       6.979   4.586  14.443  0.00  0.00    +0.000 A 
ATOM      5  C   UNL     1       7.405   4.582  13.122  0.00  0.00    +0.000 A 
ATOM      6  N   UNL     1       6.559   4.139  12.162  0.00  0.00    +0.000 NA
ATOM      7  N   UNL     1       7.625   4.977  15.596  0.00  0.00    +0.000 N 
ATOM      8  C   UNL     1       6.809   4.802  16.677  0.00  0.00    +0.000 A 
ATOM      9  N   UNL     1       7.151   5.094  17.944  0.00  0.00    +0.000 NA
ATOM     10  C   UNL     1       6.157   4.825  18.829  0.00  0.00    +0.000 A 
ATOM     11  C   UNL     1       4.890   4.304  18.536  0.00  0.00    +0.000 A 
ATOM     12  C   UNL     1       4.615   4.026  17.188  0.00  0.00    +0.000 A 
ATOM     13  C   UNL     1       5.605   4.283  16.228  0.00  0.00    +0.000 A 
ATOM     14  H   UNL     1       8.562   5.344  15.660  0.00  0.00    +0.000 HD
ENDROOT
BRANCH  11  15
ATOM     15  C   UNL     1       3.888   4.057  19.579  0.00  0.00    +0.000 A 
ATOM     16  C   UNL     1       3.749   2.802  20.188  0.00  0.00    +0.000 A 
ATOM     17  C   UNL     1       2.787   2.598  21.173  0.00  0.00    +0.000 A 
ATOM     18  C   UNL     1       1.982   3.664  21.527  0.00  0.00    +0.000 A 
ATOM     19  N   UNL     1       2.068   4.889  20.971  0.00  0.00    +0.000 NA
ATOM     20  C   UNL     1       3.012   5.052  20.014  0.00  0.00    +0.000 A 
ENDBRANCH  11  15
BRANCH   1  22
ATOM     21  N   UNL     1       3.780   2.933  10.565  0.00  0.00    +0.000 NA
ATOM     22  C   UNL     1       4.486   3.258  11.433  0.00  0.00    +0.000 C 
ENDBRANCH   1  22
TORSDOF 2
ENDMDL
MODEL 6
REMARK VINA RESULT:      -7.4      1.041      1.197
REMARK  Name = 
REMARK  2 active torsions:
REMARK  status: ('A' for Active; 'I' for Inactive)
REMARK    1  A    between atoms: C_2  and  C_3
REMARK    2  A    between atoms: C_13  and  C_14
REMARK                            x       y       z     vdW  Elec       q    Type
REMARK                         _______ _______ _______ _____ _____    ______ ____
ROOT
ATOM      1  C   UNL     1       0.444  10.736  19.330  0.00  0.00    +0.000 A 
ATOM      2  C   UNL     1       1.283   9.854  18.658  0.00  0.00    +0.000 A 
ATOM      3  C   UNL     1       1.603   8.662  19.325  0.00  0.00    +0.000 A 
ATOM      4  C   UNL     1       1.065   8.440  20.595  0.00  0.00    +0.000 A 
ATOM      5  C   UNL     1       0.232   9.362  21.213  0.00  0.00    +0.000 A 
ATOM      6  N   UNL     1      -0.071  10.511  20.565  0.00  0.00    +0.000 NA
ATOM      7  N   UNL     1       1.526   7.214  21.021  0.00  0.00    +0.000 N 
ATOM      8  C   UNL     1       2.331   6.655  20.071  0.00  0.00    +0.000 A 
ATOM      9  N   UNL     1       2.932   5.458  20.190  0.00  0.00    +0.000 NA
ATOM     10  C   UNL     1       3.678   5.137  19.102  0.00  0.00    +0.000 A 
ATOM     11  C   UNL     1       3.852   5.908  17.946  0.00  0.00    +0.000 A 
ATOM     12  C   UNL     1       3.190   7.145  17.903  0.00  0.00    +0.000 A 
ATOM     13  C   UNL     1       2.405   7.531  18.999  0.00  0.00    +0.000 A 
ATOM     14  H   UNL     1       1.314   6.770  21.901  0.00  0.00    +0.000 HD
ENDROOT
BRANCH  11  15
ATOM     15  C   UNL     1       4.683   5.455  16.824  0.00  0.00    +0.000 A 
ATOM     16  C   UNL     1       4.972   4.100  16.619  0.00  0.00    +0.000 A 
ATOM     17  C   UNL     1       5.765   3.702  15.547  0.00  0.00    +0.000 A 
ATOM     18  C   UNL     1       6.253   4.678  14.699  0.00  0.00    +0.000 A 
ATOM     19  N   UNL     1       6.011   5.995  14.853  0.00  0.00    +0.000 NA
ATOM     20  C   UNL     1       5.239   6.349  15.907  0.00  0.00    +0.000 A 
ENDBRANCH  11  15
BRANCH   1  22
ATOM     21  N   UNL     1      -0.181  13.008  18.230  0.00  0.00    +0.000 NA
ATOM     22  C   UNL     1       0.074  11.979  18.713  0.00  0.00    +0.000 C 
ENDBRANCH   1  22
TORSDOF 2
ENDMDL
MODEL 7
REMARK VINA RESULT:      -7.4      1.293      7.059
REMARK  Name = 
REMARK  2 active torsions:
REMARK  status: ('A' for Active; 'I' for Inactive)
REMARK    1  A    between atoms: C_2  and  C_3
REMARK    2  A    between atoms: C_13  and  C_14
REMARK                            x       y       z     vdW  Elec       q    Type
REMARK                         _______ _______ _______ _____ _____    ______ ____
ROOT
ATOM      1  C   UNL     1       5.145   5.504  16.720  0.00  0.00    +0.000 A 
ATOM      2  C   UNL     1       4.305   6.593  16.922  0.00  0.00    +0.000 A 
ATOM      3  C   UNL     1       3.595   6.621  18.131  0.00  0.00    +0.000 A 
ATOM      4  C   UNL     1       3.776   5.576  19.039  0.00  0.00    +0.000 A 
ATOM      5  C   UNL     1       4.631   4.514  18.778  0.00  0.00    +0.000 A 
ATOM      6  N   UNL     1       5.312   4.492  17.608  0.00  0.00    +0.000 NA
ATOM      7  N   UNL     1       2.977   5.842  20.129  0.00  0.00    +0.000 N 
ATOM      8  C   UNL     1       2.301   7.015  19.945  0.00  0.00    +0.000 A 
ATOM      9  N   UNL     1       1.444   7.547  20.833  0.00  0.00    +0.000 NA
ATOM     10  C   UNL     1       0.906   8.717  20.404  0.00  0.00    +0.000 A 
ATOM     11  C   UNL     1       1.165   9.364  19.188  0.00  0.00    +0.000 A 
ATOM     12  C   UNL     1       2.072   8.740  18.318  0.00  0.00    +0.000 A 
ATOM     13  C   UNL     1       2.659   7.528  18.708  0.00  0.00    +0.000 A 
ATOM     14  H   UNL     1       2.888   5.273  20.957  0.00  0.00    +0.000 HD
ENDROOT
BRANCH  11  15
ATOM     15  C   UNL     1       0.525  10.636  18.830  0.00  0.00    +0.000 A 
ATOM     16  C   UNL     1      -0.810  10.699  18.410  0.00  0.00    +0.000 A 
ATOM     17  C   UNL     1      -1.387  11.920  18.074  0.00  0.00    +0.000 A 
ATOM     18  C   UNL     1      -0.608  13.057  18.169  0.00  0.00    +0.000 A 
ATOM     19  N   UNL     1       0.682  13.053  18.561  0.00  0.00    +0.000 NA
ATOM     20  C   UNL     1       1.214  11.849  18.877  0.00  0.00    +0.000 A 
ENDBRANCH  11  15
BRANCH   1  22
ATOM     21  N   UNL     1       6.556   5.295  14.545  0.00  0.00    +0.000 NA
ATOM     22  C   UNL     1       5.903   5.403  15.505  0.00  0.00    +0.000 C 
ENDBRANCH   1  22
TORSDOF 2
ENDMDL
MODEL 8
REMARK VINA RESULT:      -7.4      3.496      7.909
REMARK  Name = 
REMARK  2 active torsions:
REMARK  status: ('A' for Active; 'I' for Inactive)
REMARK    1  A    between atoms: C_2  and  C_3
REMARK    2  A    between atoms: C_13  and  C_14
REMARK                            x       y       z     vdW  Elec       q    Type
REMARK                         _______ _______ _______ _____ _____    ______ ____
ROOT
ATOM      1  C   UNL     1       6.255   3.297  12.635  0.00  0.00    +0.000 A 
ATOM      2  C   UNL     1       5.490   3.307  13.796  0.00  0.00    +0.000 A 
ATOM      3  C   UNL     1       5.839   4.255  14.769  0.00  0.00    +0.000 A 
ATOM      4  C   UNL     1       6.910   5.114  14.513  0.00  0.00    +0.000 A 
ATOM      5  C   UNL     1       7.636   5.054  13.331  0.00  0.00    +0.000 A 
ATOM      6  N   UNL     1       7.295   4.135  12.398  0.00  0.00    +0.000 NA
ATOM      7  N   UNL     1       7.041   5.937  15.610  0.00  0.00    +0.000 N 
ATOM      8  C   UNL     1       6.094   5.631  16.546  0.00  0.00    +0.000 A 
ATOM      9  N   UNL     1       5.961   6.259  17.727  0.00  0.00    +0.000 NA
ATOM     10  C   UNL     1       4.942   5.760  18.473  0.00  0.00    +0.000 A 
ATOM     11  C   UNL     1       4.080   4.712  18.122  0.00  0.00    +0.000 A 
ATOM     12  C   UNL     1       4.289   4.111  16.872  0.00  0.00    +0.000 A 
ATOM     13  C   UNL     1       5.328   4.584  16.057  0.00  0.00    +0.000 A 
ATOM     14  H   UNL     1       7.725   6.668  15.729  0.00  0.00    +0.000 HD
ENDROOT
BRANCH  11  15
ATOM     15  C   UNL     1       3.005   4.257  19.010  0.00  0.00    +0.000 A 
ATOM     16  C   UNL     1       2.008   3.375  18.572  0.00  0.00    +0.000 A 
ATOM     17  C   UNL     1       0.999   2.964  19.437  0.00  0.00    +0.000 A 
ATOM     18  C   UNL     1       1.013   3.449  20.732  0.00  0.00    +0.000 A 
ATOM     19  N   UNL     1       1.943   4.302  21.204  0.00  0.00    +0.000 NA
ATOM     20  C   UNL     1       2.908   4.685  20.336  0.00  0.00    +0.000 A 
ENDBRANCH  11  15
BRANCH   1  22
ATOM     21  N   UNL     1       5.692   1.558  10.785  0.00  0.00    +0.000 NA
ATOM     22  C   UNL     1       5.960   2.352  11.594  0.00  0.00    +0.000 C 
ENDBRANCH   1  22
TORSDOF 2
ENDMDL
MODEL 9
REMARK VINA RESULT:      -7.3      1.303      7.148
REMARK  Name = 
REMARK  2 active torsions:
REMARK  status: ('A' for Active; 'I' for Inactive)
REMARK    1  A    between atoms: C_2  and  C_3
REMARK    2  A    between atoms: C_13  and  C_14
REMARK                            x       y       z     vdW  Elec       q    Type
REMARK                         _______ _______ _______ _____ _____    ______ ____
ROOT
ATOM      1  C   UNL     1       5.096   5.524  16.734  0.00  0.00    +0.000 A 
ATOM      2  C   UNL     1       4.286   6.635  16.940  0.00  0.00    +0.000 A 
ATOM      3  C   UNL     1       3.560   6.667  18.140  0.00  0.00    +0.000 A 
ATOM      4  C   UNL     1       3.697   5.603  19.034  0.00  0.00    +0.000 A 
ATOM      5  C   UNL     1       4.525   4.520  18.770  0.00  0.00    +0.000 A 
ATOM      6  N   UNL     1       5.221   4.495  17.609  0.00  0.00    +0.000 NA
ATOM      7  N   UNL     1       2.892   5.878  20.118  0.00  0.00    +0.000 N 
ATOM      8  C   UNL     1       2.254   7.072  19.941  0.00  0.00    +0.000 A 
ATOM      9  N   UNL     1       1.400   7.616  20.826  0.00  0.00    +0.000 NA
ATOM     10  C   UNL     1       0.903   8.809  20.407  0.00  0.00    +0.000 A 
ATOM     11  C   UNL     1       1.198   9.465  19.205  0.00  0.00    +0.000 A 
ATOM     12  C   UNL     1       2.098   8.827  18.338  0.00  0.00    +0.000 A 
ATOM     13  C   UNL     1       2.643   7.592  18.717  0.00  0.00    +0.000 A 
ATOM     14  H   UNL     1       2.774   5.299  20.935  0.00  0.00    +0.000 HD
ENDROOT
BRANCH  11  15
ATOM     15  C   UNL     1       0.601  10.760  18.857  0.00  0.00    +0.000 A 
ATOM     16  C   UNL     1       1.345  11.947  18.885  0.00  0.00    +0.000 A 
ATOM     17  C   UNL     1       0.751  13.161  18.553  0.00  0.00    +0.000 A 
ATOM     18  C   UNL     1      -0.585  13.156  18.197  0.00  0.00    +0.000 A 
ATOM     19  N   UNL     1      -1.348  12.046  18.159  0.00  0.00    +0.000 NA
ATOM     20  C   UNL     1      -0.740  10.883  18.491  0.00  0.00    +0.000 A 
ENDBRANCH  11  15
BRANCH   1  22
ATOM     21  N   UNL     1       6.508   5.283  14.562  0.00  0.00    +0.000 NA
ATOM     22  C   UNL     1       5.868   5.418  15.527  0.00  0.00    +0.000 C 
ENDBRANCH   1  22
TORSDOF 2
ENDMDL
