MODEL 1
REMARK VINA RESULT:      -8.3      0.000      0.000
REMARK  Name = 
REMARK  5 active torsions:
REMARK  status: ('A' for Active; 'I' for Inactive)
REMARK    1  A    between atoms: C_2  and  C_4
REMARK    2  A    between atoms: N_10  and  C_11
REMARK    3  A    between atoms: C_14  and  N_15
REMARK    4  A    between atoms: C_16  and  C_18
REMARK    5  A    between atoms: C_18  and  N_19
REMARK                            x       y       z     vdW  Elec       q    Type
REMARK                         _______ _______ _______ _____ _____    ______ ____
ROOT
ATOM      1  C   UNL     1       2.370   7.909  18.551  0.00  0.00    +0.000 A 
ATOM      2  C   UNL     1       1.914   9.005  17.814  0.00  0.00    +0.000 A 
ATOM      3  C   UNL     1       1.090   9.958  18.410  0.00  0.00    +0.000 A 
ATOM      4  C   UNL     1       0.713   9.855  19.747  0.00  0.00    +0.000 A 
ATOM      5  C   UNL     1       1.150   8.744  20.481  0.00  0.00    +0.000 A 
ATOM      6  C   UNL     1       1.975   7.775  19.888  0.00  0.00    +0.000 A 
ENDROOT
BRANCH   1  13
ATOM      7  C   UNL     1       4.173   3.615  17.134  0.00  0.00    +0.000 A 
ATOM      8  C   UNL     1       5.242   3.362  16.235  0.00  0.00    +0.000 A 
ATOM      9  C   UNL     1       6.013   4.394  15.614  0.00  0.00    +0.000 A 
ATOM     10  C   UNL     1       5.789   5.767  15.824  0.00  0.00    +0.000 A 
ATOM     11  C   UNL     1       4.738   5.972  16.708  0.00  0.00    +0.000 A 
ATOM     12  C   UNL     1       4.267   7.195  17.083  0.00  0.00    +0.000 A 
ATOM     13  N   UNL     1       3.217   6.945  17.938  0.00  0.00    +0.000 N 
ATOM     14  N   UNL     1       3.029   5.613  18.154  0.00  0.00    +0.000 NA
ATOM     15  C   UNL     1       3.933   4.985  17.373  0.00  0.00    +0.000 A 
BRANCH   7  17
ATOM     16  N   UNL     1       3.989   1.729  18.640  0.00  0.00    +0.000 N 
ATOM     17  C   UNL     1       3.379   2.521  17.713  0.00  0.00    +0.000 C 
ATOM     18  O   UNL     1       2.212   2.342  17.390  0.00  0.00    +0.000 OA
ATOM     19  H   UNL     1       3.457   0.997  19.089  0.00  0.00    +0.000 HD
ATOM     20  H   UNL     1       4.954   1.895  18.918  0.00  0.00    +0.000 HD
ENDBRANCH   7  17
ENDBRANCH   1  13
BRANCH   4  21
ATOM     21  N   UNL     1      -0.097  10.813  20.389  0.00  0.00    +0.000 N 
ATOM     22  C   UNL     1       0.352  11.952  21.054  0.00  0.00    +0.000 C 
ATOM     23  O   UNL     1       1.527  12.264  21.237  0.00  0.00    +0.000 OA
ATOM     24  H   UNL     1      -1.094  10.639  20.379  0.00  0.00    +0.000 HD
BRANCH  22  25
ATOM     25  C   UNL     1      -0.786  12.843  21.565  0.00  0.00    +0.000 C 
BRANCH  25  26
ATOM     26  N   UNL     1      -0.974  12.665  23.018  0.00  0.00    +0.000 NA
ATOM     27  C   UNL     1      -2.002  11.658  23.308  0.00  0.00    +0.000 C 
ATOM     28  C   UNL     1      -3.303  12.434  23.280  0.00  0.00    +0.000 C 
ATOM     29  C   UNL     1      -2.926  13.762  23.908  0.00  0.00    +0.000 C 
ATOM     30  C   UNL     1      -1.423  13.893  23.695  0.00  0.00    +0.000 C 
ENDBRANCH  25  26
ENDBRANCH  22  25
ENDBRANCH   4  21
TORSDOF 5
ENDMDL
MODEL 2
REMARK VINA RESULT:      -8.1      1.074      1.626
REMARK  Name = 
REMARK  5 active torsions:
REMARK  status: ('A' for Active; 'I' for Inactive)
REMARK    1  A    between atoms: C_2  and  C_4
REMARK    2  A    between atoms: N_10  and  C_11
REMARK    3  A    between atoms: C_14  and  N_15
REMARK    4  A    between atoms: C_16  and  C_18
REMARK    5  A    between atoms: C_18  and  N_19
REMARK                            x       y       z     vdW  Elec       q    Type
REMARK                         _______ _______ _______ _____ _____    ______ ____
ROOT
ATOM      1  C   UNL     1       2.096   7.851  19.090  0.00  0.00    +0.000 A 
ATOM      2  C   UNL     1       1.782   7.525  20.412  0.00  0.00    +0.000 A 
ATOM      3  C   UNL     1       0.927   8.340  21.152  0.00  0.00    +0.000 A 
ATOM      4  C   UNL     1       0.355   9.482  20.597  0.00  0.00    +0.000 A 
ATOM      5  C   UNL     1       0.688   9.823  19.278  0.00  0.00    +0.000 A 
ATOM      6  C   UNL     1       1.554   9.013  18.527  0.00  0.00    +0.000 A 
ENDROOT
BRANCH   1  13
ATOM      7  C   UNL     1       4.081   3.845  17.163  0.00  0.00    +0.000 A 
ATOM      8  C   UNL     1       5.105   3.753  16.185  0.00  0.00    +0.000 A 
ATOM      9  C   UNL     1       5.766   4.890  15.623  0.00  0.00    +0.000 A 
ATOM     10  C   UNL     1       5.468   6.218  15.978  0.00  0.00    +0.000 A 
ATOM     11  C   UNL     1       4.463   6.265  16.936  0.00  0.00    +0.000 A 
ATOM     12  C   UNL     1       3.939   7.411  17.453  0.00  0.00    +0.000 A 
ATOM     13  N   UNL     1       2.964   7.010  18.340  0.00  0.00    +0.000 N 
ATOM     14  N   UNL     1       2.877   5.654  18.435  0.00  0.00    +0.000 NA
ATOM     15  C   UNL     1       3.768   5.166  17.547  0.00  0.00    +0.000 A 
BRANCH   7  17
ATOM     16  N   UNL     1       4.115   1.821  18.491  0.00  0.00    +0.000 N 
ATOM     17  C   UNL     1       3.398   2.648  17.678  0.00  0.00    +0.000 C 
ATOM     18  O   UNL     1       2.229   2.416  17.403  0.00  0.00    +0.000 OA
ATOM     19  H   UNL     1       3.661   1.015  18.896  0.00  0.00    +0.000 HD
ATOM     20  H   UNL     1       5.082   2.030  18.730  0.00  0.00    +0.000 HD
ENDBRANCH   7  17
ENDBRANCH   1  13
BRANCH   4  21
ATOM     21  N   UNL     1      -0.534  10.314  21.305  0.00  0.00    +0.000 N 
ATOM     22  C   UNL     1      -0.534  10.530  22.681  0.00  0.00    +0.000 C 
ATOM     23  O   UNL     1       0.201   9.978  23.498  0.00  0.00    +0.000 OA
ATOM     24  H   UNL     1      -1.248  10.779  20.758  0.00  0.00    +0.000 HD
BRANCH  22  25
ATOM     25  C   UNL     1      -1.570  11.567  23.132  0.00  0.00    +0.000 C 
BRANCH  25  26
ATOM     26  N   UNL     1      -1.262  12.892  22.559  0.00  0.00    +0.000 NA
ATOM     27  C   UNL     1      -1.247  13.935  23.592  0.00  0.00    +0.000 C 
ATOM     28  C   UNL     1      -2.695  14.369  23.704  0.00  0.00    +0.000 C 
ATOM     29  C   UNL     1      -3.183  14.319  22.268  0.00  0.00    +0.000 C 
ATOM     30  C   UNL     1      -2.255  13.334  21.566  0.00  0.00    +0.000 C 
ENDBRANCH  25  26
ENDBRANCH  22  25
ENDBRANCH   4  21
TORSDOF 5
ENDMDL
MODEL 3
REMARK VINA RESULT:      -8.0      1.087      1.395
REMARK  Name = 
REMARK  5 active torsions:
REMARK  status: ('A' for Active; 'I' for Inactive)
REMARK    1  A    between atoms: C_2  and  C_4
REMARK    2  A    between atoms: N_10  and  C_11
REMARK    3  A    between atoms: C_14  and  N_15
REMARK    4  A    between atoms: C_16  and  C_18
REMARK    5  A    between atoms: C_18  and  N_19
REMARK                            x       y       z     vdW  Elec       q    Type
REMARK                         _______ _______ _______ _____ _____    ______ ____
ROOT
ATOM      1  C   UNL     1       2.034   7.860  19.125  0.00  0.00    +0.000 A 
ATOM      2  C   UNL     1       1.528   9.027  18.547  0.00  0.00    +0.000 A 
ATOM      3  C   UNL     1       0.664   9.850  19.267  0.00  0.00    +0.000 A 
ATOM      4  C   UNL     1       0.294   9.544  20.574  0.00  0.00    +0.000 A 
ATOM      5  C   UNL     1       0.781   8.360  21.147  0.00  0.00    +0.000 A 
ATOM      6  C   UNL     1       1.647   7.521  20.428  0.00  0.00    +0.000 A 
ENDROOT
BRANCH   1  13
ATOM      7  C   UNL     1       4.081   3.880  17.209  0.00  0.00    +0.000 A 
ATOM      8  C   UNL     1       5.126   3.801  16.253  0.00  0.00    +0.000 A 
ATOM      9  C   UNL     1       5.793   4.945  15.715  0.00  0.00    +0.000 A 
ATOM     10  C   UNL     1       5.481   6.270  16.075  0.00  0.00    +0.000 A 
ATOM     11  C   UNL     1       4.455   6.304  17.011  0.00  0.00    +0.000 A 
ATOM     12  C   UNL     1       3.914   7.443  17.526  0.00  0.00    +0.000 A 
ATOM     13  N   UNL     1       2.922   7.030  18.387  0.00  0.00    +0.000 N 
ATOM     14  N   UNL     1       2.840   5.672  18.470  0.00  0.00    +0.000 NA
ATOM     15  C   UNL     1       3.752   5.196  17.597  0.00  0.00    +0.000 A 
BRANCH   7  17
ATOM     16  N   UNL     1       4.064   1.891  18.589  0.00  0.00    +0.000 N 
ATOM     17  C   UNL     1       3.392   2.676  17.699  0.00  0.00    +0.000 C 
ATOM     18  O   UNL     1       2.256   2.401  17.338  0.00  0.00    +0.000 OA
ATOM     19  H   UNL     1       3.602   1.082  18.978  0.00  0.00    +0.000 HD
ATOM     20  H   UNL     1       5.002   2.135  18.900  0.00  0.00    +0.000 HD
ENDBRANCH   7  17
ENDBRANCH   1  13
BRANCH   4  21
ATOM     21  N   UNL     1      -0.556  10.365  21.341  0.00  0.00    +0.000 N 
ATOM     22  C   UNL     1      -0.514  10.523  22.724  0.00  0.00    +0.000 C 
ATOM     23  O   UNL     1       0.231   9.922  23.497  0.00  0.00    +0.000 OA
ATOM     24  H   UNL     1      -1.274  10.867  20.834  0.00  0.00    +0.000 HD
BRANCH  22  25
ATOM     25  C   UNL     1      -1.512  11.563  23.246  0.00  0.00    +0.000 C 
BRANCH  25  26
ATOM     26  N   UNL     1      -1.580  12.722  22.335  0.00  0.00    +0.000 NA
ATOM     27  C   UNL     1      -0.601  13.752  22.701  0.00  0.00    +0.000 C 
ATOM     28  C   UNL     1      -1.314  14.589  23.746  0.00  0.00    +0.000 C 
ATOM     29  C   UNL     1      -2.743  14.629  23.239  0.00  0.00    +0.000 C 
ATOM     30  C   UNL     1      -2.889  13.395  22.356  0.00  0.00    +0.000 C 
ENDBRANCH  25  26
ENDBRANCH  22  25
ENDBRANCH   4  21
TORSDOF 5
ENDMDL
MODEL 4
REMARK VINA RESULT:      -8.0      1.420      1.881
REMARK  Name = 
REMARK  5 active torsions:
REMARK  status: ('A' for Active; 'I' for Inactive)
REMARK    1  A    between atoms: C_2  and  C_4
REMARK    2  A    between atoms: N_10  and  C_11
REMARK    3  A    between atoms: C_14  and  N_15
REMARK    4  A    between atoms: C_16  and  C_18
REMARK    5  A    between atoms: C_18  and  N_19
REMARK                            x       y       z     vdW  Elec       q    Type
REMARK                         _______ _______ _______ _____ _____    ______ ____
ROOT
ATOM      1  C   UNL     1       1.855   8.195  19.321  0.00  0.00    +0.000 A 
ATOM      2  C   UNL     1       1.434   7.970  20.634  0.00  0.00    +0.000 A 
ATOM      3  C   UNL     1       0.639   8.909  21.287  0.00  0.00    +0.000 A 
ATOM      4  C   UNL     1       0.233  10.081  20.653  0.00  0.00    +0.000 A 
ATOM      5  C   UNL     1       0.675  10.320  19.343  0.00  0.00    +0.000 A 
ATOM      6  C   UNL     1       1.482   9.382  18.679  0.00  0.00    +0.000 A 
ENDROOT
BRANCH   1  13
ATOM      7  C   UNL     1       3.650   3.892  17.918  0.00  0.00    +0.000 A 
ATOM      8  C   UNL     1       4.609   3.626  16.907  0.00  0.00    +0.000 A 
ATOM      9  C   UNL     1       5.252   4.646  16.139  0.00  0.00    +0.000 A 
ATOM     10  C   UNL     1       4.998   6.021  16.303  0.00  0.00    +0.000 A 
ATOM     11  C   UNL     1       4.057   6.239  17.300  0.00  0.00    +0.000 A 
ATOM     12  C   UNL     1       3.584   7.464  17.665  0.00  0.00    +0.000 A 
ATOM     13  N   UNL     1       2.660   7.227  18.658  0.00  0.00    +0.000 N 
ATOM     14  N   UNL     1       2.557   5.904  18.966  0.00  0.00    +0.000 NA
ATOM     15  C   UNL     1       3.383   5.264  18.112  0.00  0.00    +0.000 A 
BRANCH   7  17
ATOM     16  N   UNL     1       2.277   1.898  17.915  0.00  0.00    +0.000 N 
ATOM     17  C   UNL     1       2.981   2.806  18.650  0.00  0.00    +0.000 C 
ATOM     18  O   UNL     1       3.069   2.710  19.867  0.00  0.00    +0.000 OA
ATOM     19  H   UNL     1       1.843   1.116  18.384  0.00  0.00    +0.000 HD
ATOM     20  H   UNL     1       2.222   1.973  16.902  0.00  0.00    +0.000 HD
ENDBRANCH   7  17
ENDBRANCH   1  13
BRANCH   4  21
ATOM     21  N   UNL     1      -0.592  11.040  21.272  0.00  0.00    +0.000 N 
ATOM     22  C   UNL     1      -0.775  11.201  22.644  0.00  0.00    +0.000 C 
ATOM     23  O   UNL     1      -0.293  10.491  23.524  0.00  0.00    +0.000 OA
ATOM     24  H   UNL     1      -1.112  11.651  20.655  0.00  0.00    +0.000 HD
BRANCH  22  25
ATOM     25  C   UNL     1      -1.663  12.399  23.000  0.00  0.00    +0.000 C 
BRANCH  25  26
ATOM     26  N   UNL     1      -3.089  12.018  22.966  0.00  0.00    +0.000 NA
ATOM     27  C   UNL     1      -3.809  12.723  21.899  0.00  0.00    +0.000 C 
ATOM     28  C   UNL     1      -4.221  14.037  22.533  0.00  0.00    +0.000 C 
ATOM     29  C   UNL     1      -4.574  13.638  23.954  0.00  0.00    +0.000 C 
ATOM     30  C   UNL     1      -3.803  12.349  24.210  0.00  0.00    +0.000 C 
ENDBRANCH  25  26
ENDBRANCH  22  25
ENDBRANCH   4  21
TORSDOF 5
ENDMDL
MODEL 5
REMARK VINA RESULT:      -7.9      1.117      1.694
REMARK  Name = 
REMARK  5 active torsions:
REMARK  status: ('A' for Active; 'I' for Inactive)
REMARK    1  A    between atoms: C_2  and  C_4
REMARK    2  A    between atoms: N_10  and  C_11
REMARK    3  A    between atoms: C_14  and  N_15
REMARK    4  A    between atoms: C_16  and  C_18
REMARK    5  A    between atoms: C_18  and  N_19
REMARK                            x       y       z     vdW  Elec       q    Type
REMARK                         _______ _______ _______ _____ _____    ______ ____
ROOT
ATOM      1  C   UNL     1       2.115   7.833  19.094  0.00  0.00    +0.000 A 
ATOM      2  C   UNL     1       1.849   7.538  20.434  0.00  0.00    +0.000 A 
ATOM      3  C   UNL     1       1.010   8.362  21.181  0.00  0.00    +0.000 A 
ATOM      4  C   UNL     1       0.408   9.484  20.617  0.00  0.00    +0.000 A 
ATOM      5  C   UNL     1       0.693   9.795  19.280  0.00  0.00    +0.000 A 
ATOM      6  C   UNL     1       1.542   8.975  18.521  0.00  0.00    +0.000 A 
ENDROOT
BRANCH   1  13
ATOM      7  C   UNL     1       4.017   3.807  17.125  0.00  0.00    +0.000 A 
ATOM      8  C   UNL     1       5.042   3.704  16.148  0.00  0.00    +0.000 A 
ATOM      9  C   UNL     1       5.728   4.833  15.601  0.00  0.00    +0.000 A 
ATOM     10  C   UNL     1       5.458   6.163  15.970  0.00  0.00    +0.000 A 
ATOM     11  C   UNL     1       4.452   6.221  16.927  0.00  0.00    +0.000 A 
ATOM     12  C   UNL     1       3.951   7.372  17.456  0.00  0.00    +0.000 A 
ATOM     13  N   UNL     1       2.966   6.982  18.336  0.00  0.00    +0.000 N 
ATOM     14  N   UNL     1       2.849   5.627  18.415  0.00  0.00    +0.000 NA
ATOM     15  C   UNL     1       3.732   5.130  17.524  0.00  0.00    +0.000 A 
BRANCH   7  17
ATOM     16  N   UNL     1       4.042   1.691  18.301  0.00  0.00    +0.000 N 
ATOM     17  C   UNL     1       3.307   2.620  17.625  0.00  0.00    +0.000 C 
ATOM     18  O   UNL     1       2.103   2.481  17.457  0.00  0.00    +0.000 OA
ATOM     19  H   UNL     1       3.576   0.887  18.695  0.00  0.00    +0.000 HD
ATOM     20  H   UNL     1       5.040   1.821  18.453  0.00  0.00    +0.000 HD
ENDBRANCH   7  17
ENDBRANCH   1  13
BRANCH   4  21
ATOM     21  N   UNL     1      -0.466  10.325  21.335  0.00  0.00    +0.000 N 
ATOM     22  C   UNL     1      -0.199  11.631  21.738  0.00  0.00    +0.000 C 
ATOM     23  O   UNL     1       0.864  12.231  21.585  0.00  0.00    +0.000 OA
ATOM     24  H   UNL     1      -1.360   9.928  21.594  0.00  0.00    +0.000 HD
BRANCH  22  25
ATOM     25  C   UNL     1      -1.394  12.311  22.417  0.00  0.00    +0.000 C 
BRANCH  25  26
ATOM     26  N   UNL     1      -1.937  13.384  21.562  0.00  0.00    +0.000 NA
ATOM     27  C   UNL     1      -3.146  13.978  22.147  0.00  0.00    +0.000 C 
ATOM     28  C   UNL     1      -4.271  13.084  21.664  0.00  0.00    +0.000 C 
ATOM     29  C   UNL     1      -3.850  12.735  20.249  0.00  0.00    +0.000 C 
ATOM     30  C   UNL     1      -2.336  12.910  20.227  0.00  0.00    +0.000 C 
ENDBRANCH  25  26
ENDBRANCH  22  25
ENDBRANCH   4  21
TORSDOF 5
ENDMDL
MODEL 6
REMARK VINA RESULT:      -7.9      1.947      2.686
REMARK  Name = 
REMARK  5 active torsions:
REMARK  status: ('A' for Active; 'I' for Inactive)
REMARK    1  A    between atoms: C_2  and  C_4
REMARK    2  A    between atoms: N_10  and  C_11
REMARK    3  A    between atoms: C_14  and  N_15
REMARK    4  A    between atoms: C_16  and  C_18
REMARK    5  A    between atoms: C_18  and  N_19
REMARK                            x       y       z     vdW  Elec       q    Type
REMARK                         _______ _______ _______ _____ _____    ______ ____
ROOT
ATOM      1  C   UNL     1       2.101   8.108  18.868  0.00  0.00    +0.000 A 
ATOM      2  C   UNL     1       1.691   8.063  20.203  0.00  0.00    +0.000 A 
ATOM      3  C   UNL     1       1.080   9.170  20.788  0.00  0.00    +0.000 A 
ATOM      4  C   UNL     1       0.852  10.338  20.064  0.00  0.00    +0.000 A 
ATOM      5  C   UNL     1       1.284  10.393  18.731  0.00  0.00    +0.000 A 
ATOM      6  C   UNL     1       1.906   9.285  18.135  0.00  0.00    +0.000 A 
ENDROOT
BRANCH   1  13
ATOM      7  C   UNL     1       5.414   5.295  16.675  0.00  0.00    +0.000 A 
ATOM      8  C   UNL     1       5.363   3.897  16.436  0.00  0.00    +0.000 A 
ATOM      9  C   UNL     1       4.248   3.075  16.792  0.00  0.00    +0.000 A 
ATOM     10  C   UNL     1       3.087   3.565  17.418  0.00  0.00    +0.000 A 
ATOM     11  C   UNL     1       3.176   4.934  17.633  0.00  0.00    +0.000 A 
ATOM     12  C   UNL     1       2.221   5.686  18.248  0.00  0.00    +0.000 A 
ATOM     13  N   UNL     1       2.716   6.971  18.276  0.00  0.00    +0.000 N 
ATOM     14  N   UNL     1       3.931   7.071  17.666  0.00  0.00    +0.000 NA
ATOM     15  C   UNL     1       4.258   5.817  17.293  0.00  0.00    +0.000 A 
BRANCH   7  17
ATOM     16  N   UNL     1       6.786   7.262  17.009  0.00  0.00    +0.000 N 
ATOM     17  C   UNL     1       6.603   6.091  16.333  0.00  0.00    +0.000 C 
ATOM     18  O   UNL     1       7.404   5.709  15.491  0.00  0.00    +0.000 OA
ATOM     19  H   UNL     1       7.615   7.809  16.829  0.00  0.00    +0.000 HD
ATOM     20  H   UNL     1       6.125   7.565  17.721  0.00  0.00    +0.000 HD
ENDBRANCH   7  17
ENDBRANCH   1  13
BRANCH   4  21
ATOM     21  N   UNL     1       0.214  11.467  20.615  0.00  0.00    +0.000 N 
ATOM     22  C   UNL     1      -1.089  11.883  20.349  0.00  0.00    +0.000 C 
ATOM     23  O   UNL     1      -1.862  11.364  19.546  0.00  0.00    +0.000 OA
ATOM     24  H   UNL     1       0.768  12.034  21.244  0.00  0.00    +0.000 HD
BRANCH  22  25
ATOM     25  C   UNL     1      -1.518  13.097  21.182  0.00  0.00    +0.000 C 
BRANCH  25  26
ATOM     26  N   UNL     1      -1.291  12.849  22.619  0.00  0.00    +0.000 NA
ATOM     27  C   UNL     1      -2.217  11.836  23.142  0.00  0.00    +0.000 C 
ATOM     28  C   UNL     1      -3.456  12.623  23.519  0.00  0.00    +0.000 C 
ATOM     29  C   UNL     1      -2.888  13.916  24.075  0.00  0.00    +0.000 C 
ATOM     30  C   UNL     1      -1.504  14.045  23.450  0.00  0.00    +0.000 C 
ENDBRANCH  25  26
ENDBRANCH  22  25
ENDBRANCH   4  21
TORSDOF 5
ENDMDL
MODEL 7
REMARK VINA RESULT:      -7.9      2.697      3.643
REMARK  Name = 
REMARK  5 active torsions:
REMARK  status: ('A' for Active; 'I' for Inactive)
REMARK    1  A    between atoms: C_2  and  C_4
REMARK    2  A    between atoms: N_10  and  C_11
REMARK    3  A    between atoms: C_14  and  N_15
REMARK    4  A    between atoms: C_16  and  C_18
REMARK    5  A    between atoms: C_18  and  N_19
REMARK                            x       y       z     vdW  Elec       q    Type
REMARK                         _______ _______ _______ _____ _____    ______ ____
ROOT
ATOM      1  C   UNL     1       1.990   8.029  19.087  0.00  0.00    +0.000 A 
ATOM      2  C   UNL     1       1.416   8.397  20.306  0.00  0.00    +0.000 A 
ATOM      3  C   UNL     1       0.930   9.689  20.492  0.00  0.00    +0.000 A 
ATOM      4  C   UNL     1       0.989  10.638  19.475  0.00  0.00    +0.000 A 
ATOM      5  C   UNL     1       1.586  10.278  18.258  0.00  0.00    +0.000 A 
ATOM      6  C   UNL     1       2.085   8.981  18.063  0.00  0.00    +0.000 A 
ENDROOT
BRANCH   1  13
ATOM      7  C   UNL     1       2.794   3.284  19.819  0.00  0.00    +0.000 A 
ATOM      8  C   UNL     1       3.446   2.358  18.963  0.00  0.00    +0.000 A 
ATOM      9  C   UNL     1       4.027   2.718  17.707  0.00  0.00    +0.000 A 
ATOM     10  C   UNL     1       4.012   4.026  17.188  0.00  0.00    +0.000 A 
ATOM     11  C   UNL     1       3.368   4.900  18.054  0.00  0.00    +0.000 A 
ATOM     12  C   UNL     1       3.168   6.225  17.811  0.00  0.00    +0.000 A 
ATOM     13  N   UNL     1       2.477   6.705  18.901  0.00  0.00    +0.000 N 
ATOM     14  N   UNL     1       2.265   5.745  19.845  0.00  0.00    +0.000 NA
ATOM     15  C   UNL     1       2.773   4.607  19.329  0.00  0.00    +0.000 A 
BRANCH   7  17
ATOM     16  N   UNL     1       0.811   2.928  21.161  0.00  0.00    +0.000 N 
ATOM     17  C   UNL     1       2.170   2.857  21.081  0.00  0.00    +0.000 C 
ATOM     18  O   UNL     1       2.842   2.438  22.014  0.00  0.00    +0.000 OA
ATOM     19  H   UNL     1       0.349   2.601  21.997  0.00  0.00    +0.000 HD
ATOM     20  H   UNL     1       0.256   3.260  20.375  0.00  0.00    +0.000 HD
ENDBRANCH   7  17
ENDBRANCH   1  13
BRANCH   4  21
ATOM     21  N   UNL     1       0.484  11.946  19.618  0.00  0.00    +0.000 N 
ATOM     22  C   UNL     1       0.992  12.933  20.459  0.00  0.00    +0.000 C 
ATOM     23  O   UNL     1       1.922  12.797  21.252  0.00  0.00    +0.000 OA
ATOM     24  H   UNL     1      -0.337  12.174  19.071  0.00  0.00    +0.000 HD
BRANCH  22  25
ATOM     25  C   UNL     1       0.276  14.281  20.312  0.00  0.00    +0.000 C 
BRANCH  25  26
ATOM     26  N   UNL     1       0.465  14.825  18.953  0.00  0.00    +0.000 NA
ATOM     27  C   UNL     1       1.858  15.225  18.722  0.00  0.00    +0.000 C 
ATOM     28  C   UNL     1       1.931  16.644  19.252  0.00  0.00    +0.000 C 
ATOM     29  C   UNL     1       0.589  17.230  18.854  0.00  0.00    +0.000 C 
ATOM     30  C   UNL     1      -0.340  16.031  18.699  0.00  0.00    +0.000 C 
ENDBRANCH  25  26
ENDBRANCH  22  25
ENDBRANCH   4  21
TORSDOF 5
ENDMDL
MODEL 8
REMARK VINA RESULT:      -7.9      1.064      1.064
REMARK  Name = 
REMARK  5 active torsions:
REMARK  status: ('A' for Active; 'I' for Inactive)
REMARK    1  A    between atoms: C_2  and  C_4
REMARK    2  A    between atoms: N_10  and  C_11
REMARK    3  A    between atoms: C_14  and  N_15
REMARK    4  A    between atoms: C_16  and  C_18
REMARK    5  A    between atoms: C_18  and  N_19
REMARK                            x       y       z     vdW  Elec       q    Type
REMARK                         _______ _______ _______ _____ _____    ______ ____
ROOT
ATOM      1  C   UNL     1       2.214   8.151  18.737  0.00  0.00    +0.000 A 
ATOM      2  C   UNL     1       1.984   9.310  17.991  0.00  0.00    +0.000 A 
ATOM      3  C   UNL     1       1.268  10.371  18.544  0.00  0.00    +0.000 A 
ATOM      4  C   UNL     1       0.778  10.313  19.846  0.00  0.00    +0.000 A 
ATOM      5  C   UNL     1       0.988   9.141  20.588  0.00  0.00    +0.000 A 
ATOM      6  C   UNL     1       1.702   8.065  20.038  0.00  0.00    +0.000 A 
ENDROOT
BRANCH   1  13
ATOM      7  C   UNL     1       3.464   3.647  17.378  0.00  0.00    +0.000 A 
ATOM      8  C   UNL     1       4.546   3.245  16.552  0.00  0.00    +0.000 A 
ATOM      9  C   UNL     1       5.502   4.156  16.003  0.00  0.00    +0.000 A 
ATOM     10  C   UNL     1       5.468   5.546  16.220  0.00  0.00    +0.000 A 
ATOM     11  C   UNL     1       4.398   5.898  17.032  0.00  0.00    +0.000 A 
ATOM     12  C   UNL     1       4.085   7.174  17.393  0.00  0.00    +0.000 A 
ATOM     13  N   UNL     1       2.952   7.077  18.169  0.00  0.00    +0.000 N 
ATOM     14  N   UNL     1       2.556   5.786  18.348  0.00  0.00    +0.000 NA
ATOM     15  C   UNL     1       3.411   5.036  17.622  0.00  0.00    +0.000 A 
BRANCH   7  17
ATOM     16  N   UNL     1       2.957   1.502  18.379  0.00  0.00    +0.000 N 
ATOM     17  C   UNL     1       2.479   2.678  17.882  0.00  0.00    +0.000 C 
ATOM     18  O   UNL     1       1.281   2.927  17.873  0.00  0.00    +0.000 OA
ATOM     19  H   UNL     1       2.309   0.835  18.773  0.00  0.00    +0.000 HD
ATOM     20  H   UNL     1       3.956   1.309  18.400  0.00  0.00    +0.000 HD
ENDBRANCH   7  17
ENDBRANCH   1  13
BRANCH   4  21
ATOM     21  N   UNL     1       0.074  11.375  20.447  0.00  0.00    +0.000 N 
ATOM     22  C   UNL     1      -1.231  11.763  20.153  0.00  0.00    +0.000 C 
ATOM     23  O   UNL     1      -1.948  11.278  19.280  0.00  0.00    +0.000 OA
ATOM     24  H   UNL     1       0.578  11.913  21.140  0.00  0.00    +0.000 HD
BRANCH  22  25
ATOM     25  C   UNL     1      -1.743  12.896  21.050  0.00  0.00    +0.000 C 
BRANCH  25  26
ATOM     26  N   UNL     1      -1.333  12.676  22.451  0.00  0.00    +0.000 NA
ATOM     27  C   UNL     1      -2.265  11.783  23.150  0.00  0.00    +0.000 C 
ATOM     28  C   UNL     1      -3.353  12.707  23.661  0.00  0.00    +0.000 C 
ATOM     29  C   UNL     1      -2.587  13.952  24.065  0.00  0.00    +0.000 C 
ATOM     30  C   UNL     1      -1.303  13.916  23.243  0.00  0.00    +0.000 C 
ENDBRANCH  25  26
ENDBRANCH  22  25
ENDBRANCH   4  21
TORSDOF 5
ENDMDL
MODEL 9
REMARK VINA RESULT:      -7.8      0.959      1.250
REMARK  Name = 
REMARK  5 active torsions:
REMARK  status: ('A' for Active; 'I' for Inactive)
REMARK    1  A    between atoms: C_2  and  C_4
REMARK    2  A    between atoms: N_10  and  C_11
REMARK    3  A    between atoms: C_14  and  N_15
REMARK    4  A    between atoms: C_16  and  C_18
REMARK    5  A    between atoms: C_18  and  N_19
REMARK                            x       y       z     vdW  Elec       q    Type
REMARK                         _______ _______ _______ _____ _____    ______ ____
ROOT
ATOM      1  C   UNL     1       2.110   7.837  19.102  0.00  0.00    +0.000 A 
ATOM      2  C   UNL     1       1.534   8.960  18.503  0.00  0.00    +0.000 A 
ATOM      3  C   UNL     1       0.696   9.796  19.239  0.00  0.00    +0.000 A 
ATOM      4  C   UNL     1       0.421   9.546  20.581  0.00  0.00    +0.000 A 
ATOM      5  C   UNL     1       0.979   8.406  21.177  0.00  0.00    +0.000 A 
ATOM      6  C   UNL     1       1.819   7.554  20.443  0.00  0.00    +0.000 A 
ENDROOT
BRANCH   1  13
ATOM      7  C   UNL     1       4.062   3.826  17.152  0.00  0.00    +0.000 A 
ATOM      8  C   UNL     1       5.087   3.731  16.174  0.00  0.00    +0.000 A 
ATOM      9  C   UNL     1       5.757   4.866  15.620  0.00  0.00    +0.000 A 
ATOM     10  C   UNL     1       5.470   6.195  15.983  0.00  0.00    +0.000 A 
ATOM     11  C   UNL     1       4.465   6.245  16.940  0.00  0.00    +0.000 A 
ATOM     12  C   UNL     1       3.950   7.392  17.464  0.00  0.00    +0.000 A 
ATOM     13  N   UNL     1       2.971   6.993  18.347  0.00  0.00    +0.000 N 
ATOM     14  N   UNL     1       2.872   5.637  18.434  0.00  0.00    +0.000 NA
ATOM     15  C   UNL     1       3.760   5.147  17.544  0.00  0.00    +0.000 A 
BRANCH   7  17
ATOM     16  N   UNL     1       4.090   1.772  18.433  0.00  0.00    +0.000 N 
ATOM     17  C   UNL     1       3.368   2.632  17.658  0.00  0.00    +0.000 C 
ATOM     18  O   UNL     1       2.187   2.430  17.411  0.00  0.00    +0.000 OA
ATOM     19  H   UNL     1       3.630   0.967  18.833  0.00  0.00    +0.000 HD
ATOM     20  H   UNL     1       5.067   1.956  18.651  0.00  0.00    +0.000 HD
ENDBRANCH   7  17
ENDBRANCH   1  13
BRANCH   4  21
ATOM     21  N   UNL     1      -0.400  10.383  21.363  0.00  0.00    +0.000 N 
ATOM     22  C   UNL     1      -0.099  11.682  21.765  0.00  0.00    +0.000 C 
ATOM     23  O   UNL     1       0.957  12.277  21.553  0.00  0.00    +0.000 OA
ATOM     24  H   UNL     1      -1.279   9.989  21.673  0.00  0.00    +0.000 HD
BRANCH  22  25
ATOM     25  C   UNL     1      -1.243  12.361  22.528  0.00  0.00    +0.000 C 
BRANCH  25  26
ATOM     26  N   UNL     1      -1.958  13.312  21.655  0.00  0.00    +0.000 NA
ATOM     27  C   UNL     1      -2.326  14.534  22.380  0.00  0.00    +0.000 C 
ATOM     28  C   UNL     1      -3.656  14.198  23.026  0.00  0.00    +0.000 C 
ATOM     29  C   UNL     1      -4.346  13.351  21.973  0.00  0.00    +0.000 C 
ATOM     30  C   UNL     1      -3.220  12.771  21.125  0.00  0.00    +0.000 C 
ENDBRANCH  25  26
ENDBRANCH  22  25
ENDBRANCH   4  21
TORSDOF 5
ENDMDL
