MODEL 1
REMARK VINA RESULT:      -7.1      0.000      0.000
REMARK  Name = 
REMARK  13 active torsions:
REMARK  status: ('A' for Active; 'I' for Inactive)
REMARK    1  A    between atoms: C_1  and  S_2
REMARK    2  A    between atoms: S_2  and  C_3
REMARK    3  A    between atoms: C_6  and  C_7
REMARK    4  A    between atoms: C_8  and  C_9
REMARK    5  A    between atoms: C_15  and  C_16
REMARK    6  A    between atoms: C_16  and  C_17
REMARK    7  A    between atoms: C_16  and  O_18
REMARK    8  A    between atoms: C_20  and  C_21
REMARK    9  A    between atoms: N_25  and  C_26
REMARK   10  A    between atoms: C_26  and  C_27
REMARK   11  A    between atoms: C_27  and  C_28
REMARK   12  A    between atoms: C_27  and  C_29
REMARK   13  A    between atoms: C_29  and  N_30
REMARK                            x       y       z     vdW  Elec       q    Type
REMARK                         _______ _______ _______ _____ _____    ______ ____
ROOT
ATOM      1  C   UNL     1       2.361   6.499  19.652  0.00  0.00    +0.000 A 
ATOM      2  C   UNL     1       1.718   7.672  19.873  0.00  0.00    +0.000 A 
ATOM      3  S   UNL     1       0.773   8.347  21.129  0.00  0.00    +0.000 S 
ATOM      4  C   UNL     1       0.624   9.819  20.154  0.00  0.00    +0.000 A 
ATOM      5  C   UNL     1       1.295   9.738  18.973  0.00  0.00    +0.000 A 
ATOM      6  N   UNL     1       1.929   8.509  18.821  0.00  0.00    +0.000 N 
ATOM      7  C   UNL     1       2.681   7.882  17.906  0.00  0.00    +0.000 A 
ATOM      8  N   UNL     1       2.983   6.652  18.399  0.00  0.00    +0.000 N 
ENDROOT
BRANCH   4   9
ATOM      9  C   UNL     1      -0.152  10.916  20.725  0.00  0.00    +0.000 C 
ATOM     10  C   UNL     1      -1.030  11.739  20.118  0.00  0.00    +0.000 C 
ATOM     11  N   UNL     1      -1.492  12.728  20.984  0.00  0.00    +0.000 N 
ATOM     12  C   UNL     1      -2.747  12.715  21.532  0.00  0.00    +0.000 C 
ATOM     13  O   UNL     1      -3.856  12.463  21.114  0.00  0.00    +0.000 OA
ATOM     14  C   UNL     1      -2.184  12.864  22.950  0.00  0.00    +0.000 C 
ATOM     15  C   UNL     1      -0.794  12.609  22.283  0.00  0.00    +0.000 C 
ATOM     16  C   UNL     1      -0.066  11.257  22.220  0.00  0.00    +0.000 C 
ATOM     17  C   UNL     1      -0.750  10.274  23.180  0.00  0.00    +0.000 C 
BRANCH  10  18
ATOM     18  C   UNL     1      -1.507  11.662  18.622  0.00  0.00    +0.000 C 
ATOM     19  O   UNL     1      -1.030  12.542  17.853  0.00  0.00    +0.000 OA
ATOM     20  O   UNL     1      -2.220  10.651  18.342  0.00  0.00    +0.000 OA
ENDBRANCH  10  18
BRANCH  14  21
ATOM     21  C   UNL     1      -2.310  14.205  23.650  0.00  0.00    +0.000 C 
ATOM     22  C   UNL     1      -3.415  14.204  24.693  0.00  0.00    +0.000 C 
BRANCH  21  23
ATOM     23  O   UNL     1      -1.063  14.483  24.302  0.00  0.00    +0.000 OA
ATOM     24  H   UNL     1      -1.233  15.116  25.023  0.00  0.00    +0.000 HD
ENDBRANCH  21  23
ENDBRANCH  14  21
ENDBRANCH   4   9
BRANCH   1  26
ATOM     25  C   UNL     1       1.071   4.054  20.169  0.00  0.00    +0.000 C 
ATOM     26  S   UNL     1       2.473   5.071  20.671  0.00  0.00    +0.000 S 
ENDBRANCH   1  26
BRANCH   8  27
ATOM     27  C   UNL     1       3.754   5.576  17.755  0.00  0.00    +0.000 C 
BRANCH  27  28
ATOM     28  C   UNL     1       5.225   5.797  17.386  0.00  0.00    +0.000 C 
ATOM     29  C   UNL     1       5.306   5.850  15.844  0.00  0.00    +0.000 C 
BRANCH  28  30
ATOM     30  C   UNL     1       6.161   4.681  17.870  0.00  0.00    +0.000 C 
BRANCH  30  31
ATOM     31  N   UNL     1       5.504   3.763  18.793  0.00  0.00    +0.000 NA
ATOM     32  H   UNL     1       4.881   4.290  19.407  0.00  0.00    +0.000 HD
ATOM     33  H   UNL     1       6.213   3.382  19.426  0.00  0.00    +0.000 HD
ENDBRANCH  30  31
ENDBRANCH  28  30
ENDBRANCH  27  28
ENDBRANCH   8  27
TORSDOF 9
ENDMDL
MODEL 2
REMARK VINA RESULT:      -7.0      0.827      1.051
REMARK  Name = 
REMARK  13 active torsions:
REMARK  status: ('A' for Active; 'I' for Inactive)
REMARK    1  A    between atoms: C_1  and  S_2
REMARK    2  A    between atoms: S_2  and  C_3
REMARK    3  A    between atoms: C_6  and  C_7
REMARK    4  A    between atoms: C_8  and  C_9
REMARK    5  A    between atoms: C_15  and  C_16
REMARK    6  A    between atoms: C_16  and  C_17
REMARK    7  A    between atoms: C_16  and  O_18
REMARK    8  A    between atoms: C_20  and  C_21
REMARK    9  A    between atoms: N_25  and  C_26
REMARK   10  A    between atoms: C_26  and  C_27
REMARK   11  A    between atoms: C_27  and  C_28
REMARK   12  A    between atoms: C_27  and  C_29
REMARK   13  A    between atoms: C_29  and  N_30
REMARK                            x       y       z     vdW  Elec       q    Type
REMARK                         _______ _______ _______ _____ _____    ______ ____
ROOT
ATOM      1  C   UNL     1       2.480   6.483  19.525  0.00  0.00    +0.000 A 
ATOM      2  C   UNL     1       1.830   7.652  19.756  0.00  0.00    +0.000 A 
ATOM      3  S   UNL     1       0.862   8.302  21.007  0.00  0.00    +0.000 S 
ATOM      4  C   UNL     1       0.727   9.791  20.057  0.00  0.00    +0.000 A 
ATOM      5  C   UNL     1       1.418   9.732  18.887  0.00  0.00    +0.000 A 
ATOM      6  N   UNL     1       2.058   8.508  18.723  0.00  0.00    +0.000 N 
ATOM      7  C   UNL     1       2.827   7.899  17.810  0.00  0.00    +0.000 A 
ATOM      8  N   UNL     1       3.122   6.661  18.286  0.00  0.00    +0.000 N 
ENDROOT
BRANCH   4   9
ATOM      9  C   UNL     1      -0.061  10.876  20.634  0.00  0.00    +0.000 C 
ATOM     10  C   UNL     1      -0.952  11.689  20.033  0.00  0.00    +0.000 C 
ATOM     11  N   UNL     1      -1.423  12.670  20.904  0.00  0.00    +0.000 N 
ATOM     12  C   UNL     1      -2.676  12.638  21.456  0.00  0.00    +0.000 C 
ATOM     13  O   UNL     1      -3.784  12.373  21.041  0.00  0.00    +0.000 OA
ATOM     14  C   UNL     1      -2.110  12.790  22.873  0.00  0.00    +0.000 C 
ATOM     15  C   UNL     1      -0.720  12.555  22.200  0.00  0.00    +0.000 C 
ATOM     16  C   UNL     1       0.025  11.213  22.130  0.00  0.00    +0.000 C 
ATOM     17  C   UNL     1      -0.643  10.218  23.089  0.00  0.00    +0.000 C 
BRANCH  10  18
ATOM     18  C   UNL     1      -1.433  11.611  18.539  0.00  0.00    +0.000 C 
ATOM     19  O   UNL     1      -2.168  10.626  18.254  0.00  0.00    +0.000 OA
ATOM     20  O   UNL     1      -1.124  12.615  17.827  0.00  0.00    +0.000 OA
ENDBRANCH  10  18
BRANCH  14  21
ATOM     21  C   UNL     1      -2.252  14.127  23.578  0.00  0.00    +0.000 C 
ATOM     22  C   UNL     1      -3.415  14.138  24.556  0.00  0.00    +0.000 C 
BRANCH  21  23
ATOM     23  O   UNL     1      -1.039  14.375  24.303  0.00  0.00    +0.000 OA
ATOM     24  H   UNL     1      -0.891  15.338  24.325  0.00  0.00    +0.000 HD
ENDBRANCH  21  23
ENDBRANCH  14  21
ENDBRANCH   4   9
BRANCH   1  26
ATOM     25  C   UNL     1       1.083   4.113  20.109  0.00  0.00    +0.000 C 
ATOM     26  S   UNL     1       2.576   5.037  20.519  0.00  0.00    +0.000 S 
ENDBRANCH   1  26
BRANCH   8  27
ATOM     27  C   UNL     1       3.907   5.598  17.635  0.00  0.00    +0.000 C 
BRANCH  27  28
ATOM     28  C   UNL     1       4.916   5.948  16.536  0.00  0.00    +0.000 C 
ATOM     29  C   UNL     1       5.264   4.636  15.800  0.00  0.00    +0.000 C 
BRANCH  28  30
ATOM     30  C   UNL     1       6.223   6.556  17.063  0.00  0.00    +0.000 C 
BRANCH  30  31
ATOM     31  N   UNL     1       7.381   6.164  16.269  0.00  0.00    +0.000 NA
ATOM     32  H   UNL     1       8.228   6.272  16.830  0.00  0.00    +0.000 HD
ATOM     33  H   UNL     1       7.496   6.843  15.511  0.00  0.00    +0.000 HD
ENDBRANCH  30  31
ENDBRANCH  28  30
ENDBRANCH  27  28
ENDBRANCH   8  27
TORSDOF 9
ENDMDL
MODEL 3
REMARK VINA RESULT:      -6.9      2.988      4.177
REMARK  Name = 
REMARK  13 active torsions:
REMARK  status: ('A' for Active; 'I' for Inactive)
REMARK    1  A    between atoms: C_1  and  S_2
REMARK    2  A    between atoms: S_2  and  C_3
REMARK    3  A    between atoms: C_6  and  C_7
REMARK    4  A    between atoms: C_8  and  C_9
REMARK    5  A    between atoms: C_15  and  C_16
REMARK    6  A    between atoms: C_16  and  C_17
REMARK    7  A    between atoms: C_16  and  O_18
REMARK    8  A    between atoms: C_20  and  C_21
REMARK    9  A    between atoms: N_25  and  C_26
REMARK   10  A    between atoms: C_26  and  C_27
REMARK   11  A    between atoms: C_27  and  C_28
REMARK   12  A    between atoms: C_27  and  C_29
REMARK   13  A    between atoms: C_29  and  N_30
REMARK                            x       y       z     vdW  Elec       q    Type
REMARK                         _______ _______ _______ _____ _____    ______ ____
ROOT
ATOM      1  C   UNL     1       2.397   6.923  19.046  0.00  0.00    +0.000 A 
ATOM      2  C   UNL     1       2.003   8.220  19.114  0.00  0.00    +0.000 A 
ATOM      3  S   UNL     1       2.086   9.592  18.097  0.00  0.00    +0.000 S 
ATOM      4  C   UNL     1       1.235  10.508  19.352  0.00  0.00    +0.000 A 
ATOM      5  C   UNL     1       0.920   9.747  20.436  0.00  0.00    +0.000 A 
ATOM      6  N   UNL     1       1.353   8.433  20.290  0.00  0.00    +0.000 N 
ATOM      7  C   UNL     1       1.344   7.296  20.999  0.00  0.00    +0.000 A 
ATOM      8  N   UNL     1       1.957   6.343  20.250  0.00  0.00    +0.000 N 
ENDROOT
BRANCH   4   9
ATOM      9  C   UNL     1       0.959  11.914  19.074  0.00  0.00    +0.000 C 
ATOM     10  C   UNL     1      -0.210  12.500  18.746  0.00  0.00    +0.000 C 
ATOM     11  N   UNL     1      -0.044  13.853  18.459  0.00  0.00    +0.000 N 
ATOM     12  C   UNL     1      -0.434  14.851  19.313  0.00  0.00    +0.000 C 
ATOM     13  O   UNL     1      -1.406  15.044  20.010  0.00  0.00    +0.000 OA
ATOM     14  C   UNL     1       0.956  15.497  19.272  0.00  0.00    +0.000 C 
ATOM     15  C   UNL     1       1.393  14.197  18.522  0.00  0.00    +0.000 C 
ATOM     16  C   UNL     1       2.066  12.975  19.167  0.00  0.00    +0.000 C 
ATOM     17  C   UNL     1       2.531  13.347  20.581  0.00  0.00    +0.000 C 
BRANCH  10  18
ATOM     18  C   UNL     1      -1.616  11.803  18.661  0.00  0.00    +0.000 C 
ATOM     19  O   UNL     1      -2.291  11.809  19.726  0.00  0.00    +0.000 OA
ATOM     20  O   UNL     1      -1.953  11.424  17.498  0.00  0.00    +0.000 OA
ENDBRANCH  10  18
BRANCH  14  21
ATOM     21  C   UNL     1       1.145  16.777  18.477  0.00  0.00    +0.000 C 
ATOM     22  C   UNL     1       0.676  18.001  19.245  0.00  0.00    +0.000 C 
BRANCH  21  23
ATOM     23  O   UNL     1       2.544  16.919  18.195  0.00  0.00    +0.000 OA
ATOM     24  H   UNL     1       2.648  17.620  17.526  0.00  0.00    +0.000 HD
ENDBRANCH  21  23
ENDBRANCH  14  21
ENDBRANCH   4   9
BRANCH   1  26
ATOM     25  C   UNL     1       4.917   5.864  18.385  0.00  0.00    +0.000 C 
ATOM     26  S   UNL     1       3.239   6.072  17.759  0.00  0.00    +0.000 S 
ENDBRANCH   1  26
BRANCH   8  27
ATOM     27  C   UNL     1       2.228   4.940  20.604  0.00  0.00    +0.000 C 
BRANCH  27  28
ATOM     28  C   UNL     1       1.148   3.871  20.401  0.00  0.00    +0.000 C 
ATOM     29  C   UNL     1       1.398   2.764  21.448  0.00  0.00    +0.000 C 
BRANCH  28  30
ATOM     30  C   UNL     1       1.171   3.222  19.010  0.00  0.00    +0.000 C 
BRANCH  30  31
ATOM     31  N   UNL     1       1.586   1.824  19.054  0.00  0.00    +0.000 NA
ATOM     32  H   UNL     1       0.789   1.228  18.827  0.00  0.00    +0.000 HD
ATOM     33  H   UNL     1       1.807   1.585  20.025  0.00  0.00    +0.000 HD
ENDBRANCH  30  31
ENDBRANCH  28  30
ENDBRANCH  27  28
ENDBRANCH   8  27
TORSDOF 9
ENDMDL
MODEL 4
REMARK VINA RESULT:      -6.6      1.085      1.486
REMARK  Name = 
REMARK  13 active torsions:
REMARK  status: ('A' for Active; 'I' for Inactive)
REMARK    1  A    between atoms: C_1  and  S_2
REMARK    2  A    between atoms: S_2  and  C_3
REMARK    3  A    between atoms: C_6  and  C_7
REMARK    4  A    between atoms: C_8  and  C_9
REMARK    5  A    between atoms: C_15  and  C_16
REMARK    6  A    between atoms: C_16  and  C_17
REMARK    7  A    between atoms: C_16  and  O_18
REMARK    8  A    between atoms: C_20  and  C_21
REMARK    9  A    between atoms: N_25  and  C_26
REMARK   10  A    between atoms: C_26  and  C_27
REMARK   11  A    between atoms: C_27  and  C_28
REMARK   12  A    between atoms: C_27  and  C_29
REMARK   13  A    between atoms: C_29  and  N_30
REMARK                            x       y       z     vdW  Elec       q    Type
REMARK                         _______ _______ _______ _____ _____    ______ ____
ROOT
ATOM      1  C   UNL     1       2.443   6.276  19.855  0.00  0.00    +0.000 A 
ATOM      2  C   UNL     1       1.797   7.459  20.013  0.00  0.00    +0.000 A 
ATOM      3  S   UNL     1       0.879   8.213  21.243  0.00  0.00    +0.000 S 
ATOM      4  C   UNL     1       0.698   9.615  20.176  0.00  0.00    +0.000 A 
ATOM      5  C   UNL     1       1.340   9.457  18.987  0.00  0.00    +0.000 A 
ATOM      6  N   UNL     1       1.978   8.225  18.902  0.00  0.00    +0.000 N 
ATOM      7  C   UNL     1       2.711   7.540  18.013  0.00  0.00    +0.000 A 
ATOM      8  N   UNL     1       3.032   6.348  18.580  0.00  0.00    +0.000 N 
ENDROOT
BRANCH   4   9
ATOM      9  C   UNL     1      -0.071  10.744  20.692  0.00  0.00    +0.000 C 
ATOM     10  C   UNL     1      -0.921  11.561  20.037  0.00  0.00    +0.000 C 
ATOM     11  N   UNL     1      -1.383  12.587  20.858  0.00  0.00    +0.000 N 
ATOM     12  C   UNL     1      -2.650  12.614  21.378  0.00  0.00    +0.000 C 
ATOM     13  O   UNL     1      -3.754  12.367  20.944  0.00  0.00    +0.000 OA
ATOM     14  C   UNL     1      -2.116  12.803  22.803  0.00  0.00    +0.000 C 
ATOM     15  C   UNL     1      -0.717  12.500  22.176  0.00  0.00    +0.000 C 
ATOM     16  C   UNL     1      -0.012  11.135  22.176  0.00  0.00    +0.000 C 
ATOM     17  C   UNL     1      -0.735  10.198  23.153  0.00  0.00    +0.000 C 
BRANCH  10  18
ATOM     18  C   UNL     1      -1.365  11.440  18.535  0.00  0.00    +0.000 C 
ATOM     19  O   UNL     1      -2.036  10.412  18.246  0.00  0.00    +0.000 OA
ATOM     20  O   UNL     1      -1.100  12.453  17.818  0.00  0.00    +0.000 OA
ENDBRANCH  10  18
BRANCH  14  21
ATOM     21  C   UNL     1      -2.234  14.169  23.453  0.00  0.00    +0.000 C 
ATOM     22  C   UNL     1      -3.435  14.260  24.380  0.00  0.00    +0.000 C 
BRANCH  21  23
ATOM     23  O   UNL     1      -1.043  14.397  24.219  0.00  0.00    +0.000 OA
ATOM     24  H   UNL     1      -1.292  14.879  25.029  0.00  0.00    +0.000 HD
ENDBRANCH  21  23
ENDBRANCH  14  21
ENDBRANCH   4   9
BRANCH   1  26
ATOM     25  C   UNL     1       1.083   3.965  20.699  0.00  0.00    +0.000 C 
ATOM     26  S   UNL     1       2.588   4.920  20.964  0.00  0.00    +0.000 S 
ENDBRANCH   1  26
BRANCH   8  27
ATOM     27  C   UNL     1       3.794   5.235  17.989  0.00  0.00    +0.000 C 
BRANCH  27  28
ATOM     28  C   UNL     1       3.060   4.075  17.307  0.00  0.00    +0.000 C 
ATOM     29  C   UNL     1       1.546   4.344  17.452  0.00  0.00    +0.000 C 
BRANCH  28  30
ATOM     30  C   UNL     1       3.358   2.702  17.925  0.00  0.00    +0.000 C 
BRANCH  30  31
ATOM     31  N   UNL     1       2.200   1.817  17.903  0.00  0.00    +0.000 NA
ATOM     32  H   UNL     1       1.426   2.286  17.429  0.00  0.00    +0.000 HD
ATOM     33  H   UNL     1       1.868   1.698  18.864  0.00  0.00    +0.000 HD
ENDBRANCH  30  31
ENDBRANCH  28  30
ENDBRANCH  27  28
ENDBRANCH   8  27
TORSDOF 9
ENDMDL
MODEL 5
REMARK VINA RESULT:      -6.6      3.770      9.466
REMARK  Name = 
REMARK  13 active torsions:
REMARK  status: ('A' for Active; 'I' for Inactive)
REMARK    1  A    between atoms: C_1  and  S_2
REMARK    2  A    between atoms: S_2  and  C_3
REMARK    3  A    between atoms: C_6  and  C_7
REMARK    4  A    between atoms: C_8  and  C_9
REMARK    5  A    between atoms: C_15  and  C_16
REMARK    6  A    between atoms: C_16  and  C_17
REMARK    7  A    between atoms: C_16  and  O_18
REMARK    8  A    between atoms: C_20  and  C_21
REMARK    9  A    between atoms: N_25  and  C_26
REMARK   10  A    between atoms: C_26  and  C_27
REMARK   11  A    between atoms: C_27  and  C_28
REMARK   12  A    between atoms: C_27  and  C_29
REMARK   13  A    between atoms: C_29  and  N_30
REMARK                            x       y       z     vdW  Elec       q    Type
REMARK                         _______ _______ _______ _____ _____    ______ ____
ROOT
ATOM      1  C   UNL     1      -0.217  10.746  19.919  0.00  0.00    +0.000 A 
ATOM      2  C   UNL     1       0.585   9.660  19.781  0.00  0.00    +0.000 A 
ATOM      3  S   UNL     1       1.440   8.909  18.504  0.00  0.00    +0.000 S 
ATOM      4  C   UNL     1       2.016   7.705  19.669  0.00  0.00    +0.000 A 
ATOM      5  C   UNL     1       1.566   7.937  20.931  0.00  0.00    +0.000 A 
ATOM      6  N   UNL     1       0.755   9.066  20.993  0.00  0.00    +0.000 N 
ATOM      7  C   UNL     1       0.049   9.737  21.913  0.00  0.00    +0.000 A 
ATOM      8  N   UNL     1      -0.540  10.790  21.287  0.00  0.00    +0.000 N 
ENDROOT
BRANCH   4   9
ATOM      9  C   UNL     1       2.897   6.658  19.158  0.00  0.00    +0.000 C 
ATOM     10  C   UNL     1       2.847   5.329  19.375  0.00  0.00    +0.000 C 
ATOM     11  N   UNL     1       3.928   4.671  18.791  0.00  0.00    +0.000 N 
ATOM     12  C   UNL     1       3.819   3.919  17.652  0.00  0.00    +0.000 C 
ATOM     13  O   UNL     1       3.013   3.115  17.237  0.00  0.00    +0.000 OA
ATOM     14  C   UNL     1       4.954   4.693  16.972  0.00  0.00    +0.000 C 
ATOM     15  C   UNL     1       4.841   5.667  18.189  0.00  0.00    +0.000 C 
ATOM     16  C   UNL     1       4.057   6.988  18.208  0.00  0.00    +0.000 C 
ATOM     17  C   UNL     1       3.671   7.363  16.771  0.00  0.00    +0.000 C 
BRANCH  10  18
ATOM     18  C   UNL     1       1.748   4.552  20.186  0.00  0.00    +0.000 C 
ATOM     19  O   UNL     1       0.841   4.012  19.496  0.00  0.00    +0.000 OA
ATOM     20  O   UNL     1       1.972   4.459  21.432  0.00  0.00    +0.000 OA
ENDBRANCH  10  18
BRANCH  14  21
ATOM     21  C   UNL     1       6.309   4.024  16.823  0.00  0.00    +0.000 C 
ATOM     22  C   UNL     1       7.060   4.519  15.599  0.00  0.00    +0.000 C 
BRANCH  21  23
ATOM     23  O   UNL     1       7.082   4.328  17.992  0.00  0.00    +0.000 OA
ATOM     24  H   UNL     1       7.984   4.563  17.706  0.00  0.00    +0.000 HD
ENDBRANCH  21  23
ENDBRANCH  14  21
ENDBRANCH   4   9
BRANCH   1  26
ATOM     25  C   UNL     1       0.621  13.074  18.583  0.00  0.00    +0.000 C 
ATOM     26  S   UNL     1      -0.749  11.909  18.714  0.00  0.00    +0.000 S 
ENDBRANCH   1  26
BRANCH   8  27
ATOM     27  C   UNL     1      -1.444  11.800  21.861  0.00  0.00    +0.000 C 
BRANCH  27  28
ATOM     28  C   UNL     1      -0.889  12.910  22.760  0.00  0.00    +0.000 C 
ATOM     29  C   UNL     1      -2.076  13.482  23.566  0.00  0.00    +0.000 C 
BRANCH  28  30
ATOM     30  C   UNL     1      -0.239  14.068  21.989  0.00  0.00    +0.000 C 
BRANCH  30  31
ATOM     31  N   UNL     1       1.217  13.995  21.996  0.00  0.00    +0.000 NA
ATOM     32  H   UNL     1       1.602  14.939  21.942  0.00  0.00    +0.000 HD
ATOM     33  H   UNL     1       1.521  13.552  21.124  0.00  0.00    +0.000 HD
ENDBRANCH  30  31
ENDBRANCH  28  30
ENDBRANCH  27  28
ENDBRANCH   8  27
TORSDOF 9
ENDMDL
MODEL 6
REMARK VINA RESULT:      -6.5      2.021      2.710
REMARK  Name = 
REMARK  13 active torsions:
REMARK  status: ('A' for Active; 'I' for Inactive)
REMARK    1  A    between atoms: C_1  and  S_2
REMARK    2  A    between atoms: S_2  and  C_3
REMARK    3  A    between atoms: C_6  and  C_7
REMARK    4  A    between atoms: C_8  and  C_9
REMARK    5  A    between atoms: C_15  and  C_16
REMARK    6  A    between atoms: C_16  and  C_17
REMARK    7  A    between atoms: C_16  and  O_18
REMARK    8  A    between atoms: C_20  and  C_21
REMARK    9  A    between atoms: N_25  and  C_26
REMARK   10  A    between atoms: C_26  and  C_27
REMARK   11  A    between atoms: C_27  and  C_28
REMARK   12  A    between atoms: C_27  and  C_29
REMARK   13  A    between atoms: C_29  and  N_30
REMARK                            x       y       z     vdW  Elec       q    Type
REMARK                         _______ _______ _______ _____ _____    ______ ____
ROOT
ATOM      1  C   UNL     1       2.918   6.507  19.000  0.00  0.00    +0.000 A 
ATOM      2  C   UNL     1       2.246   7.676  19.161  0.00  0.00    +0.000 A 
ATOM      3  S   UNL     1       1.253   8.376  20.364  0.00  0.00    +0.000 S 
ATOM      4  C   UNL     1       1.106   9.809  19.333  0.00  0.00    +0.000 A 
ATOM      5  C   UNL     1       1.812   9.699  18.176  0.00  0.00    +0.000 A 
ATOM      6  N   UNL     1       2.473   8.479  18.086  0.00  0.00    +0.000 N 
ATOM      7  C   UNL     1       3.263   7.834  17.216  0.00  0.00    +0.000 A 
ATOM      8  N   UNL     1       3.573   6.629  17.761  0.00  0.00    +0.000 N 
ENDROOT
BRANCH   4   9
ATOM      9  C   UNL     1       0.293  10.910  19.843  0.00  0.00    +0.000 C 
ATOM     10  C   UNL     1       0.682  12.141  20.232  0.00  0.00    +0.000 C 
ATOM     11  N   UNL     1      -0.382  12.875  20.754  0.00  0.00    +0.000 N 
ATOM     12  C   UNL     1      -0.988  13.898  20.074  0.00  0.00    +0.000 C 
ATOM     13  O   UNL     1      -0.593  14.818  19.391  0.00  0.00    +0.000 OA
ATOM     14  C   UNL     1      -2.374  13.272  20.268  0.00  0.00    +0.000 C 
ATOM     15  C   UNL     1      -1.592  12.026  20.794  0.00  0.00    +0.000 C 
ATOM     16  C   UNL     1      -1.232  10.781  19.968  0.00  0.00    +0.000 C 
ATOM     17  C   UNL     1      -2.025  10.805  18.654  0.00  0.00    +0.000 C 
BRANCH  10  18
ATOM     18  C   UNL     1       2.135  12.733  20.153  0.00  0.00    +0.000 C 
ATOM     19  O   UNL     1       2.568  12.958  18.989  0.00  0.00    +0.000 OA
ATOM     20  O   UNL     1       2.651  13.028  21.273  0.00  0.00    +0.000 OA
ENDBRANCH  10  18
BRANCH  14  21
ATOM     21  C   UNL     1      -3.322  13.894  21.277  0.00  0.00    +0.000 C 
ATOM     22  C   UNL     1      -3.822  15.257  20.828  0.00  0.00    +0.000 C 
BRANCH  21  23
ATOM     23  O   UNL     1      -4.448  13.017  21.424  0.00  0.00    +0.000 OA
ATOM     24  H   UNL     1      -4.202  12.146  21.061  0.00  0.00    +0.000 HD
ENDBRANCH  21  23
ENDBRANCH  14  21
ENDBRANCH   4   9
BRANCH   1  26
ATOM     25  C   UNL     1       1.403   4.342  19.961  0.00  0.00    +0.000 C 
ATOM     26  S   UNL     1       3.026   5.119  20.072  0.00  0.00    +0.000 S 
ENDBRANCH   1  26
BRANCH   8  27
ATOM     27  C   UNL     1       4.382   5.546  17.178  0.00  0.00    +0.000 C 
BRANCH  27  28
ATOM     28  C   UNL     1       5.509   5.872  16.191  0.00  0.00    +0.000 C 
ATOM     29  C   UNL     1       5.619   4.681  15.214  0.00  0.00    +0.000 C 
BRANCH  28  30
ATOM     30  C   UNL     1       6.879   6.069  16.854  0.00  0.00    +0.000 C 
BRANCH  30  31
ATOM     31  N   UNL     1       7.291   7.467  16.879  0.00  0.00    +0.000 NA
ATOM     32  H   UNL     1       8.088   7.595  16.253  0.00  0.00    +0.000 HD
ATOM     33  H   UNL     1       7.670   7.674  17.809  0.00  0.00    +0.000 HD
ENDBRANCH  30  31
ENDBRANCH  28  30
ENDBRANCH  27  28
ENDBRANCH   8  27
TORSDOF 9
ENDMDL
MODEL 7
REMARK VINA RESULT:      -6.5      3.748      9.576
REMARK  Name = 
REMARK  13 active torsions:
REMARK  status: ('A' for Active; 'I' for Inactive)
REMARK    1  A    between atoms: C_1  and  S_2
REMARK    2  A    between atoms: S_2  and  C_3
REMARK    3  A    between atoms: C_6  and  C_7
REMARK    4  A    between atoms: C_8  and  C_9
REMARK    5  A    between atoms: C_15  and  C_16
REMARK    6  A    between atoms: C_16  and  C_17
REMARK    7  A    between atoms: C_16  and  O_18
REMARK    8  A    between atoms: C_20  and  C_21
REMARK    9  A    between atoms: N_25  and  C_26
REMARK   10  A    between atoms: C_26  and  C_27
REMARK   11  A    between atoms: C_27  and  C_28
REMARK   12  A    between atoms: C_27  and  C_29
REMARK   13  A    between atoms: C_29  and  N_30
REMARK                            x       y       z     vdW  Elec       q    Type
REMARK                         _______ _______ _______ _____ _____    ______ ____
ROOT
ATOM      1  C   UNL     1      -0.192  10.857  19.670  0.00  0.00    +0.000 A 
ATOM      2  C   UNL     1       0.607   9.764  19.578  0.00  0.00    +0.000 A 
ATOM      3  S   UNL     1       1.536   9.010  18.357  0.00  0.00    +0.000 S 
ATOM      4  C   UNL     1       2.023   7.795  19.551  0.00  0.00    +0.000 A 
ATOM      5  C   UNL     1       1.492   8.026  20.782  0.00  0.00    +0.000 A 
ATOM      6  N   UNL     1       0.690   9.162  20.796  0.00  0.00    +0.000 N 
ATOM      7  C   UNL     1      -0.068   9.837  21.671  0.00  0.00    +0.000 A 
ATOM      8  N   UNL     1      -0.603  10.898  21.014  0.00  0.00    +0.000 N 
ENDROOT
BRANCH   4   9
ATOM      9  C   UNL     1       2.924   6.741  19.093  0.00  0.00    +0.000 C 
ATOM     10  C   UNL     1       2.910   5.426  19.390  0.00  0.00    +0.000 C 
ATOM     11  N   UNL     1       4.002   4.762  18.834  0.00  0.00    +0.000 N 
ATOM     12  C   UNL     1       3.900   3.940  17.743  0.00  0.00    +0.000 C 
ATOM     13  O   UNL     1       3.112   3.092  17.386  0.00  0.00    +0.000 OA
ATOM     14  C   UNL     1       5.009   4.700  17.005  0.00  0.00    +0.000 C 
ATOM     15  C   UNL     1       4.884   5.742  18.162  0.00  0.00    +0.000 C 
ATOM     16  C   UNL     1       4.067   7.042  18.112  0.00  0.00    +0.000 C 
ATOM     17  C   UNL     1       3.656   7.321  16.659  0.00  0.00    +0.000 C 
BRANCH  10  18
ATOM     18  C   UNL     1       1.840   4.673  20.259  0.00  0.00    +0.000 C 
ATOM     19  O   UNL     1       0.859   4.199  19.624  0.00  0.00    +0.000 OA
ATOM     20  O   UNL     1       2.153   4.527  21.480  0.00  0.00    +0.000 OA
ENDBRANCH  10  18
BRANCH  14  21
ATOM     21  C   UNL     1       6.378   4.057  16.880  0.00  0.00    +0.000 C 
ATOM     22  C   UNL     1       7.161   4.601  15.697  0.00  0.00    +0.000 C 
BRANCH  21  23
ATOM     23  O   UNL     1       7.108   4.337  18.083  0.00  0.00    +0.000 OA
ATOM     24  H   UNL     1       7.718   3.594  18.246  0.00  0.00    +0.000 HD
ENDBRANCH  21  23
ENDBRANCH  14  21
ENDBRANCH   4   9
BRANCH   1  26
ATOM     25  C   UNL     1      -1.996  11.256  17.551  0.00  0.00    +0.000 C 
ATOM     26  S   UNL     1      -0.632  12.031  18.438  0.00  0.00    +0.000 S 
ENDBRANCH   1  26
BRANCH   8  27
ATOM     27  C   UNL     1      -1.534  11.915  21.532  0.00  0.00    +0.000 C 
BRANCH  27  28
ATOM     28  C   UNL     1      -1.532  12.274  23.022  0.00  0.00    +0.000 C 
ATOM     29  C   UNL     1      -2.976  12.091  23.539  0.00  0.00    +0.000 C 
BRANCH  28  30
ATOM     30  C   UNL     1      -1.105  13.720  23.313  0.00  0.00    +0.000 C 
BRANCH  30  31
ATOM     31  N   UNL     1      -2.243  14.604  23.535  0.00  0.00    +0.000 NA
ATOM     32  H   UNL     1      -2.853  14.197  24.246  0.00  0.00    +0.000 HD
ATOM     33  H   UNL     1      -2.818  14.606  22.687  0.00  0.00    +0.000 HD
ENDBRANCH  30  31
ENDBRANCH  28  30
ENDBRANCH  27  28
ENDBRANCH   8  27
TORSDOF 9
ENDMDL
MODEL 8
REMARK VINA RESULT:      -6.5      1.896      2.877
REMARK  Name = 
REMARK  13 active torsions:
REMARK  status: ('A' for Active; 'I' for Inactive)
REMARK    1  A    between atoms: C_1  and  S_2
REMARK    2  A    between atoms: S_2  and  C_3
REMARK    3  A    between atoms: C_6  and  C_7
REMARK    4  A    between atoms: C_8  and  C_9
REMARK    5  A    between atoms: C_15  and  C_16
REMARK    6  A    between atoms: C_16  and  C_17
REMARK    7  A    between atoms: C_16  and  O_18
REMARK    8  A    between atoms: C_20  and  C_21
REMARK    9  A    between atoms: N_25  and  C_26
REMARK   10  A    between atoms: C_26  and  C_27
REMARK   11  A    between atoms: C_27  and  C_28
REMARK   12  A    between atoms: C_27  and  C_29
REMARK   13  A    between atoms: C_29  and  N_30
REMARK                            x       y       z     vdW  Elec       q    Type
REMARK                         _______ _______ _______ _____ _____    ______ ____
ROOT
ATOM      1  C   UNL     1       2.975   5.821  19.178  0.00  0.00    +0.000 A 
ATOM      2  C   UNL     1       2.270   6.954  19.426  0.00  0.00    +0.000 A 
ATOM      3  S   UNL     1       1.151   7.481  20.606  0.00  0.00    +0.000 S 
ATOM      4  C   UNL     1       1.080   9.039  19.768  0.00  0.00    +0.000 A 
ATOM      5  C   UNL     1       1.899   9.090  18.682  0.00  0.00    +0.000 A 
ATOM      6  N   UNL     1       2.588   7.896  18.496  0.00  0.00    +0.000 N 
ATOM      7  C   UNL     1       3.470   7.378  17.631  0.00  0.00    +0.000 A 
ATOM      8  N   UNL     1       3.746   6.112  18.038  0.00  0.00    +0.000 N 
ENDROOT
BRANCH   4   9
ATOM      9  C   UNL     1       0.202  10.058  20.336  0.00  0.00    +0.000 C 
ATOM     10  C   UNL     1      -0.001  10.376  21.630  0.00  0.00    +0.000 C 
ATOM     11  N   UNL     1      -0.996  11.341  21.773  0.00  0.00    +0.000 N 
ATOM     12  C   UNL     1      -0.729  12.649  22.080  0.00  0.00    +0.000 C 
ATOM     13  O   UNL     1       0.023  13.206  22.850  0.00  0.00    +0.000 OA
ATOM     14  C   UNL     1      -1.539  13.148  20.878  0.00  0.00    +0.000 C 
ATOM     15  C   UNL     1      -1.578  11.646  20.448  0.00  0.00    +0.000 C 
ATOM     16  C   UNL     1      -0.633  10.981  19.436  0.00  0.00    +0.000 C 
ATOM     17  C   UNL     1       0.139  12.070  18.679  0.00  0.00    +0.000 C 
BRANCH  10  18
ATOM     18  C   UNL     1       0.742   9.764  22.873  0.00  0.00    +0.000 C 
ATOM     19  O   UNL     1      -0.002   9.376  23.815  0.00  0.00    +0.000 OA
ATOM     20  O   UNL     1       1.994   9.623  22.729  0.00  0.00    +0.000 OA
ENDBRANCH  10  18
BRANCH  14  21
ATOM     21  C   UNL     1      -2.902  13.770  21.123  0.00  0.00    +0.000 C 
ATOM     22  C   UNL     1      -2.801  15.236  21.508  0.00  0.00    +0.000 C 
BRANCH  21  23
ATOM     23  O   UNL     1      -3.659  13.665  19.908  0.00  0.00    +0.000 OA
ATOM     24  H   UNL     1      -4.166  12.833  19.939  0.00  0.00    +0.000 HD
ENDBRANCH  21  23
ENDBRANCH  14  21
ENDBRANCH   4   9
BRANCH   1  26
ATOM     25  C   UNL     1       1.300   3.711  19.984  0.00  0.00    +0.000 C 
ATOM     26  S   UNL     1       3.002   4.301  20.059  0.00  0.00    +0.000 S 
ENDBRANCH   1  26
BRANCH   8  27
ATOM     27  C   UNL     1       4.628   5.121  17.398  0.00  0.00    +0.000 C 
BRANCH  27  28
ATOM     28  C   UNL     1       5.886   5.578  16.651  0.00  0.00    +0.000 C 
ATOM     29  C   UNL     1       5.575   5.499  15.140  0.00  0.00    +0.000 C 
BRANCH  28  30
ATOM     30  C   UNL     1       7.122   4.710  16.926  0.00  0.00    +0.000 C 
BRANCH  30  31
ATOM     31  N   UNL     1       7.243   4.339  18.331  0.00  0.00    +0.000 NA
ATOM     32  H   UNL     1       6.585   3.587  18.539  0.00  0.00    +0.000 HD
ATOM     33  H   UNL     1       6.911   5.124  18.900  0.00  0.00    +0.000 HD
ENDBRANCH  30  31
ENDBRANCH  28  30
ENDBRANCH  27  28
ENDBRANCH   8  27
TORSDOF 9
ENDMDL
MODEL 9
REMARK VINA RESULT:      -6.5      3.718      9.566
REMARK  Name = 
REMARK  13 active torsions:
REMARK  status: ('A' for Active; 'I' for Inactive)
REMARK    1  A    between atoms: C_1  and  S_2
REMARK    2  A    between atoms: S_2  and  C_3
REMARK    3  A    between atoms: C_6  and  C_7
REMARK    4  A    between atoms: C_8  and  C_9
REMARK    5  A    between atoms: C_15  and  C_16
REMARK    6  A    between atoms: C_16  and  C_17
REMARK    7  A    between atoms: C_16  and  O_18
REMARK    8  A    between atoms: C_20  and  C_21
REMARK    9  A    between atoms: N_25  and  C_26
REMARK   10  A    between atoms: C_26  and  C_27
REMARK   11  A    between atoms: C_27  and  C_28
REMARK   12  A    between atoms: C_27  and  C_29
REMARK   13  A    between atoms: C_29  and  N_30
REMARK                            x       y       z     vdW  Elec       q    Type
REMARK                         _______ _______ _______ _____ _____    ______ ____
ROOT
ATOM      1  C   UNL     1       0.237  10.995  20.380  0.00  0.00    +0.000 A 
ATOM      2  C   UNL     1       0.886   9.826  20.149  0.00  0.00    +0.000 A 
ATOM      3  S   UNL     1       1.695   9.101  18.828  0.00  0.00    +0.000 S 
ATOM      4  C   UNL     1       2.033   7.708  19.868  0.00  0.00    +0.000 A 
ATOM      5  C   UNL     1       1.552   7.865  21.130  0.00  0.00    +0.000 A 
ATOM      6  N   UNL     1       0.905   9.085  21.290  0.00  0.00    +0.000 N 
ATOM      7  C   UNL     1       0.251   9.749  22.253  0.00  0.00    +0.000 A 
ATOM      8  N   UNL     1      -0.150  10.937  21.731  0.00  0.00    +0.000 N 
ENDROOT
BRANCH   4   9
ATOM      9  C   UNL     1       2.785   6.605  19.274  0.00  0.00    +0.000 C 
ATOM     10  C   UNL     1       2.696   5.285  19.529  0.00  0.00    +0.000 C 
ATOM     11  N   UNL     1       3.657   4.559  18.827  0.00  0.00    +0.000 N 
ATOM     12  C   UNL     1       3.361   3.794  17.731  0.00  0.00    +0.000 C 
ATOM     13  O   UNL     1       2.469   3.026  17.444  0.00  0.00    +0.000 OA
ATOM     14  C   UNL     1       4.437   4.492  16.891  0.00  0.00    +0.000 C 
ATOM     15  C   UNL     1       4.533   5.493  18.087  0.00  0.00    +0.000 C 
ATOM     16  C   UNL     1       3.827   6.855  18.174  0.00  0.00    +0.000 C 
ATOM     17  C   UNL     1       3.276   7.224  16.790  0.00  0.00    +0.000 C 
BRANCH  10  18
ATOM     18  C   UNL     1       1.675   4.584  20.495  0.00  0.00    +0.000 C 
ATOM     19  O   UNL     1       0.561   4.283  19.985  0.00  0.00    +0.000 OA
ATOM     20  O   UNL     1       2.138   4.294  21.641  0.00  0.00    +0.000 OA
ENDBRANCH  10  18
BRANCH  14  21
ATOM     21  C   UNL     1       5.724   3.748  16.584  0.00  0.00    +0.000 C 
ATOM     22  C   UNL     1       6.161   3.931  15.141  0.00  0.00    +0.000 C 
BRANCH  21  23
ATOM     23  O   UNL     1       6.748   4.267  17.445  0.00  0.00    +0.000 OA
ATOM     24  H   UNL     1       6.787   3.705  18.241  0.00  0.00    +0.000 HD
ENDBRANCH  21  23
ENDBRANCH  14  21
ENDBRANCH   4   9
BRANCH   1  26
ATOM     25  C   UNL     1      -1.397  11.776  18.230  0.00  0.00    +0.000 C 
ATOM     26  S   UNL     1      -0.061  12.347  19.297  0.00  0.00    +0.000 S 
ENDBRANCH   1  26
BRANCH   8  27
ATOM     27  C   UNL     1      -0.934  12.000  22.382  0.00  0.00    +0.000 C 
BRANCH  27  28
ATOM     28  C   UNL     1      -2.466  11.940  22.379  0.00  0.00    +0.000 C 
ATOM     29  C   UNL     1      -2.965  13.023  21.398  0.00  0.00    +0.000 C 
BRANCH  28  30
ATOM     30  C   UNL     1      -3.101  12.214  23.750  0.00  0.00    +0.000 C 
BRANCH  30  31
ATOM     31  N   UNL     1      -4.556  12.274  23.688  0.00  0.00    +0.000 NA
ATOM     32  H   UNL     1      -4.839  13.139  23.225  0.00  0.00    +0.000 HD
ATOM     33  H   UNL     1      -4.914  12.375  24.643  0.00  0.00    +0.000 HD
ENDBRANCH  30  31
ENDBRANCH  28  30
ENDBRANCH  27  28
ENDBRANCH   8  27
TORSDOF 9
ENDMDL
