MODEL 1
REMARK VINA RESULT:      -6.4      0.000      0.000
REMARK  Name = 
REMARK  2 active torsions:
REMARK  status: ('A' for Active; 'I' for Inactive)
REMARK    1  A    between atoms: C_2  and  C_3
REMARK    2  A    between atoms: C_7  and  S_8
REMARK                            x       y       z     vdW  Elec       q    Type
REMARK                         _______ _______ _______ _____ _____    ______ ____
ROOT
ATOM      1  C   UNL     1       3.283   6.793  18.172  0.00  0.00    +0.000 A 
ATOM      2  C   UNL     1       4.424   6.307  17.561  0.00  0.00    +0.000 A 
ATOM      3  N   UNL     1       4.701   5.070  18.130  0.00  0.00    +0.000 N 
ATOM      4  C   UNL     1       3.732   4.727  19.063  0.00  0.00    +0.000 A 
ATOM      5  C   UNL     1       3.447   3.649  19.912  0.00  0.00    +0.000 A 
ATOM      6  N   UNL     1       2.347   3.723  20.697  0.00  0.00    +0.000 NA
ATOM      7  C   UNL     1       1.575   4.809  20.647  0.00  0.00    +0.000 A 
ATOM      8  N   UNL     1       1.756   5.882  19.886  0.00  0.00    +0.000 NA
ATOM      9  C   UNL     1       2.846   5.820  19.093  0.00  0.00    +0.000 A 
ATOM     10  C   UNL     1       5.845   4.295  17.682  0.00  0.00    +0.000 C 
ATOM     11  C   UNL     1       5.656   3.782  16.255  0.00  0.00    +0.000 C 
ATOM     12  C   UNL     1       6.080   4.822  15.215  0.00  0.00    +0.000 C 
ATOM     13  C   UNL     1       5.197   6.073  15.181  0.00  0.00    +0.000 C 
ATOM     14  C   UNL     1       5.257   6.904  16.465  0.00  0.00    +0.000 C 
ENDROOT
BRANCH   1  16
ATOM     15  N   UNL     1       2.179   9.080  17.649  0.00  0.00    +0.000 NA
ATOM     16  C   UNL     1       2.648   8.042  17.891  0.00  0.00    +0.000 C 
ENDBRANCH   1  16
BRANCH   5  17
ATOM     17  S   UNL     1       4.373   2.162  20.152  0.00  0.00    +0.000 S 
ATOM     18  H   UNL     1       5.576   2.634  20.461  0.00  0.00    +0.000 HD
ENDBRANCH   5  17
TORSDOF 2
ENDMDL
MODEL 2
REMARK VINA RESULT:      -6.1      2.213      4.738
REMARK  Name = 
REMARK  2 active torsions:
REMARK  status: ('A' for Active; 'I' for Inactive)
REMARK    1  A    between atoms: C_2  and  C_3
REMARK    2  A    between atoms: C_7  and  S_8
REMARK                            x       y       z     vdW  Elec       q    Type
REMARK                         _______ _______ _______ _____ _____    ______ ____
ROOT
ATOM      1  C   UNL     1       3.812   5.428  17.923  0.00  0.00    +0.000 A 
ATOM      2  C   UNL     1       3.495   4.603  18.985  0.00  0.00    +0.000 A 
ATOM      3  N   UNL     1       2.738   5.351  19.878  0.00  0.00    +0.000 N 
ATOM      4  C   UNL     1       2.519   6.631  19.387  0.00  0.00    +0.000 A 
ATOM      5  C   UNL     1       1.840   7.791  19.785  0.00  0.00    +0.000 A 
ATOM      6  N   UNL     1       1.883   8.872  18.971  0.00  0.00    +0.000 NA
ATOM      7  C   UNL     1       2.567   8.808  17.828  0.00  0.00    +0.000 A 
ATOM      8  N   UNL     1       3.245   7.766  17.362  0.00  0.00    +0.000 NA
ATOM      9  C   UNL     1       3.207   6.678  18.160  0.00  0.00    +0.000 A 
ATOM     10  C   UNL     1       2.237   4.749  21.101  0.00  0.00    +0.000 C 
ATOM     11  C   UNL     1       1.166   3.698  20.816  0.00  0.00    +0.000 C 
ATOM     12  C   UNL     1       1.778   2.329  20.513  0.00  0.00    +0.000 C 
ATOM     13  C   UNL     1       2.576   2.274  19.207  0.00  0.00    +0.000 C 
ATOM     14  C   UNL     1       3.827   3.156  19.212  0.00  0.00    +0.000 C 
ENDROOT
BRANCH   1  16
ATOM     15  N   UNL     1       5.209   4.714  15.857  0.00  0.00    +0.000 NA
ATOM     16  C   UNL     1       4.586   5.063  16.778  0.00  0.00    +0.000 C 
ENDBRANCH   1  16
BRANCH   5  17
ATOM     17  S   UNL     1       0.933   8.079  21.276  0.00  0.00    +0.000 S 
ATOM     18  H   UNL     1      -0.198   8.600  20.813  0.00  0.00    +0.000 HD
ENDBRANCH   5  17
TORSDOF 2
ENDMDL
MODEL 3
REMARK VINA RESULT:      -6.1      1.142      1.188
REMARK  Name = 
REMARK  2 active torsions:
REMARK  status: ('A' for Active; 'I' for Inactive)
REMARK    1  A    between atoms: C_2  and  C_3
REMARK    2  A    between atoms: C_7  and  S_8
REMARK                            x       y       z     vdW  Elec       q    Type
REMARK                         _______ _______ _______ _____ _____    ______ ____
ROOT
ATOM      1  C   UNL     1       2.880   6.243  18.891  0.00  0.00    +0.000 A 
ATOM      2  C   UNL     1       4.012   6.008  18.134  0.00  0.00    +0.000 A 
ATOM      3  N   UNL     1       4.234   4.636  18.138  0.00  0.00    +0.000 N 
ATOM      4  C   UNL     1       3.236   3.977  18.843  0.00  0.00    +0.000 A 
ATOM      5  C   UNL     1       2.897   2.656  19.167  0.00  0.00    +0.000 A 
ATOM      6  N   UNL     1       1.787   2.442  19.912  0.00  0.00    +0.000 NA
ATOM      7  C   UNL     1       1.057   3.482  20.317  0.00  0.00    +0.000 A 
ATOM      8  N   UNL     1       1.290   4.765  20.071  0.00  0.00    +0.000 NA
ATOM      9  C   UNL     1       2.391   4.994  19.325  0.00  0.00    +0.000 A 
ATOM     10  C   UNL     1       5.356   4.071  17.409  0.00  0.00    +0.000 C 
ATOM     11  C   UNL     1       5.174   4.205  15.898  0.00  0.00    +0.000 C 
ATOM     12  C   UNL     1       5.654   5.565  15.385  0.00  0.00    +0.000 C 
ATOM     13  C   UNL     1       4.818   6.751  15.873  0.00  0.00    +0.000 C 
ATOM     14  C   UNL     1       4.887   6.972  17.386  0.00  0.00    +0.000 C 
ENDROOT
BRANCH   1  16
ATOM     15  N   UNL     1       1.809   8.566  19.317  0.00  0.00    +0.000 NA
ATOM     16  C   UNL     1       2.297   7.520  19.154  0.00  0.00    +0.000 C 
ENDBRANCH   1  16
BRANCH   5  17
ATOM     17  S   UNL     1       3.764   1.167  18.769  0.00  0.00    +0.000 S 
ATOM     18  H   UNL     1       4.855   1.635  18.173  0.00  0.00    +0.000 HD
ENDBRANCH   5  17
TORSDOF 2
ENDMDL
MODEL 4
REMARK VINA RESULT:      -6.1      2.487      4.675
REMARK  Name = 
REMARK  2 active torsions:
REMARK  status: ('A' for Active; 'I' for Inactive)
REMARK    1  A    between atoms: C_2  and  C_3
REMARK    2  A    between atoms: C_7  and  S_8
REMARK                            x       y       z     vdW  Elec       q    Type
REMARK                         _______ _______ _______ _____ _____    ______ ____
ROOT
ATOM      1  C   UNL     1       3.651   6.718  17.813  0.00  0.00    +0.000 A 
ATOM      2  C   UNL     1       3.429   5.736  18.760  0.00  0.00    +0.000 A 
ATOM      3  N   UNL     1       2.547   6.259  19.698  0.00  0.00    +0.000 N 
ATOM      4  C   UNL     1       2.157   7.544  19.347  0.00  0.00    +0.000 A 
ATOM      5  C   UNL     1       1.306   8.540  19.843  0.00  0.00    +0.000 A 
ATOM      6  N   UNL     1       1.213   9.705  19.160  0.00  0.00    +0.000 NA
ATOM      7  C   UNL     1       1.930   9.874  18.048  0.00  0.00    +0.000 A 
ATOM      8  N   UNL     1       2.764   9.002  17.496  0.00  0.00    +0.000 NA
ATOM      9  C   UNL     1       2.864   7.833  18.164  0.00  0.00    +0.000 A 
ATOM     10  C   UNL     1       2.107   5.451  20.823  0.00  0.00    +0.000 C 
ATOM     11  C   UNL     1       1.208   4.300  20.374  0.00  0.00    +0.000 C 
ATOM     12  C   UNL     1       2.022   3.077  19.944  0.00  0.00    +0.000 C 
ATOM     13  C   UNL     1       2.854   3.291  18.677  0.00  0.00    +0.000 C 
ATOM     14  C   UNL     1       3.962   4.335  18.837  0.00  0.00    +0.000 C 
ENDROOT
BRANCH   1  16
ATOM     15  N   UNL     1       5.159   6.542  15.711  0.00  0.00    +0.000 NA
ATOM     16  C   UNL     1       4.500   6.604  16.670  0.00  0.00    +0.000 C 
ENDBRANCH   1  16
BRANCH   5  17
ATOM     17  S   UNL     1       0.327   8.519  21.316  0.00  0.00    +0.000 S 
ATOM     18  H   UNL     1       0.832   7.477  21.967  0.00  0.00    +0.000 HD
ENDBRANCH   5  17
TORSDOF 2
ENDMDL
MODEL 5
REMARK VINA RESULT:      -6.1      2.206      3.811
REMARK  Name = 
REMARK  2 active torsions:
REMARK  status: ('A' for Active; 'I' for Inactive)
REMARK    1  A    between atoms: C_2  and  C_3
REMARK    2  A    between atoms: C_7  and  S_8
REMARK                            x       y       z     vdW  Elec       q    Type
REMARK                         _______ _______ _______ _____ _____    ______ ____
ROOT
ATOM      1  C   UNL     1       4.282   4.038  19.249  0.00  0.00    +0.000 A 
ATOM      2  C   UNL     1       4.943   4.582  18.164  0.00  0.00    +0.000 A 
ATOM      3  N   UNL     1       4.353   5.812  17.897  0.00  0.00    +0.000 N 
ATOM      4  C   UNL     1       3.356   6.093  18.821  0.00  0.00    +0.000 A 
ATOM      5  C   UNL     1       2.460   7.135  19.093  0.00  0.00    +0.000 A 
ATOM      6  N   UNL     1       1.614   6.998  20.141  0.00  0.00    +0.000 NA
ATOM      7  C   UNL     1       1.652   5.886  20.876  0.00  0.00    +0.000 A 
ATOM      8  N   UNL     1       2.454   4.843  20.703  0.00  0.00    +0.000 NA
ATOM      9  C   UNL     1       3.307   4.967  19.664  0.00  0.00    +0.000 A 
ATOM     10  C   UNL     1       4.844   6.642  16.810  0.00  0.00    +0.000 C 
ATOM     11  C   UNL     1       6.241   7.187  17.101  0.00  0.00    +0.000 C 
ATOM     12  C   UNL     1       7.335   6.193  16.702  0.00  0.00    +0.000 C 
ATOM     13  C   UNL     1       7.355   4.913  17.542  0.00  0.00    +0.000 C 
ATOM     14  C   UNL     1       6.103   4.048  17.376  0.00  0.00    +0.000 C 
ENDROOT
BRANCH   1  16
ATOM     15  N   UNL     1       4.843   1.749  20.333  0.00  0.00    +0.000 NA
ATOM     16  C   UNL     1       4.563   2.774  19.855  0.00  0.00    +0.000 C 
ENDBRANCH   1  16
BRANCH   5  17
ATOM     17  S   UNL     1       2.228   8.648  18.207  0.00  0.00    +0.000 S 
ATOM     18  H   UNL     1       3.451   9.166  18.223  0.00  0.00    +0.000 HD
ENDBRANCH   5  17
TORSDOF 2
ENDMDL
MODEL 6
REMARK VINA RESULT:      -5.9      2.198      4.293
REMARK  Name = 
REMARK  2 active torsions:
REMARK  status: ('A' for Active; 'I' for Inactive)
REMARK    1  A    between atoms: C_2  and  C_3
REMARK    2  A    between atoms: C_7  and  S_8
REMARK                            x       y       z     vdW  Elec       q    Type
REMARK                         _______ _______ _______ _____ _____    ______ ____
ROOT
ATOM      1  C   UNL     1       2.864   6.138  18.662  0.00  0.00    +0.000 A 
ATOM      2  C   UNL     1       2.384   4.854  18.483  0.00  0.00    +0.000 A 
ATOM      3  N   UNL     1       3.211   4.230  17.558  0.00  0.00    +0.000 N 
ATOM      4  C   UNL     1       4.245   5.072  17.173  0.00  0.00    +0.000 A 
ATOM      5  C   UNL     1       5.365   5.019  16.332  0.00  0.00    +0.000 A 
ATOM      6  N   UNL     1       6.152   6.117  16.239  0.00  0.00    +0.000 NA
ATOM      7  C   UNL     1       5.840   7.209  16.938  0.00  0.00    +0.000 A 
ATOM      8  N   UNL     1       4.807   7.365  17.756  0.00  0.00    +0.000 NA
ATOM      9  C   UNL     1       4.016   6.277  17.862  0.00  0.00    +0.000 A 
ATOM     10  C   UNL     1       2.970   2.851  17.169  0.00  0.00    +0.000 C 
ATOM     11  C   UNL     1       3.247   1.883  18.319  0.00  0.00    +0.000 C 
ATOM     12  C   UNL     1       2.033   1.731  19.240  0.00  0.00    +0.000 C 
ATOM     13  C   UNL     1       1.676   2.998  20.022  0.00  0.00    +0.000 C 
ATOM     14  C   UNL     1       1.224   4.161  19.136  0.00  0.00    +0.000 C 
ENDROOT
BRANCH   1  16
ATOM     15  N   UNL     1       1.864   7.907  20.273  0.00  0.00    +0.000 NA
ATOM     16  C   UNL     1       2.306   7.130  19.526  0.00  0.00    +0.000 C 
ENDBRANCH   1  16
BRANCH   5  17
ATOM     17  S   UNL     1       5.903   3.690  15.296  0.00  0.00    +0.000 S 
ATOM     18  H   UNL     1       7.204   3.936  15.186  0.00  0.00    +0.000 HD
ENDBRANCH   5  17
TORSDOF 2
ENDMDL
MODEL 7
REMARK VINA RESULT:      -5.7      1.897      4.349
REMARK  Name = 
REMARK  2 active torsions:
REMARK  status: ('A' for Active; 'I' for Inactive)
REMARK    1  A    between atoms: C_2  and  C_3
REMARK    2  A    between atoms: C_7  and  S_8
REMARK                            x       y       z     vdW  Elec       q    Type
REMARK                         _______ _______ _______ _____ _____    ______ ____
ROOT
ATOM      1  C   UNL     1       2.496   6.431  19.183  0.00  0.00    +0.000 A 
ATOM      2  C   UNL     1       2.285   5.105  19.506  0.00  0.00    +0.000 A 
ATOM      3  N   UNL     1       3.061   4.341  18.642  0.00  0.00    +0.000 N 
ATOM      4  C   UNL     1       3.806   5.154  17.799  0.00  0.00    +0.000 A 
ATOM      5  C   UNL     1       4.753   4.995  16.778  0.00  0.00    +0.000 A 
ATOM      6  N   UNL     1       5.254   6.106  16.188  0.00  0.00    +0.000 NA
ATOM      7  C   UNL     1       4.834   7.308  16.585  0.00  0.00    +0.000 A 
ATOM      8  N   UNL     1       3.944   7.568  17.535  0.00  0.00    +0.000 NA
ATOM      9  C   UNL     1       3.439   6.470  18.136  0.00  0.00    +0.000 A 
ATOM     10  C   UNL     1       3.064   2.892  18.744  0.00  0.00    +0.000 C 
ATOM     11  C   UNL     1       3.735   2.418  20.032  0.00  0.00    +0.000 C 
ATOM     12  C   UNL     1       2.757   2.397  21.210  0.00  0.00    +0.000 C 
ATOM     13  C   UNL     1       2.269   3.783  21.644  0.00  0.00    +0.000 C 
ATOM     14  C   UNL     1       1.431   4.500  20.583  0.00  0.00    +0.000 C 
ENDROOT
BRANCH   1  16
ATOM     15  N   UNL     1       1.438   8.480  20.370  0.00  0.00    +0.000 NA
ATOM     16  C   UNL     1       1.889   7.557  19.820  0.00  0.00    +0.000 C 
ENDBRANCH   1  16
BRANCH   5  17
ATOM     17  S   UNL     1       5.385   3.496  16.086  0.00  0.00    +0.000 S 
ATOM     18  H   UNL     1       4.492   2.603  16.500  0.00  0.00    +0.000 HD
ENDBRANCH   5  17
TORSDOF 2
ENDMDL
MODEL 8
REMARK VINA RESULT:      -5.6      2.167      3.700
REMARK  Name = 
REMARK  2 active torsions:
REMARK  status: ('A' for Active; 'I' for Inactive)
REMARK    1  A    between atoms: C_2  and  C_3
REMARK    2  A    between atoms: C_7  and  S_8
REMARK                            x       y       z     vdW  Elec       q    Type
REMARK                         _______ _______ _______ _____ _____    ______ ____
ROOT
ATOM      1  C   UNL     1       3.656   3.437  18.290  0.00  0.00    +0.000 A 
ATOM      2  C   UNL     1       4.329   4.240  17.389  0.00  0.00    +0.000 A 
ATOM      3  N   UNL     1       3.913   5.547  17.611  0.00  0.00    +0.000 N 
ATOM      4  C   UNL     1       3.021   5.608  18.673  0.00  0.00    +0.000 A 
ATOM      5  C   UNL     1       2.305   6.591  19.369  0.00  0.00    +0.000 A 
ATOM      6  N   UNL     1       1.508   6.202  20.391  0.00  0.00    +0.000 NA
ATOM      7  C   UNL     1       1.422   4.908  20.703  0.00  0.00    +0.000 A 
ATOM      8  N   UNL     1       2.051   3.901  20.109  0.00  0.00    +0.000 NA
ATOM      9  C   UNL     1       2.854   4.274  19.090  0.00  0.00    +0.000 A 
ATOM     10  C   UNL     1       4.460   6.637  16.820  0.00  0.00    +0.000 C 
ATOM     11  C   UNL     1       5.936   6.877  17.132  0.00  0.00    +0.000 C 
ATOM     12  C   UNL     1       6.848   5.959  16.314  0.00  0.00    +0.000 C 
ATOM     13  C   UNL     1       6.725   4.474  16.669  0.00  0.00    +0.000 C 
ATOM     14  C   UNL     1       5.352   3.877  16.352  0.00  0.00    +0.000 C 
ENDROOT
BRANCH   1  16
ATOM     15  N   UNL     1       3.934   0.866  18.483  0.00  0.00    +0.000 NA
ATOM     16  C   UNL     1       3.781   2.018  18.405  0.00  0.00    +0.000 C 
ENDBRANCH   1  16
BRANCH   5  17
ATOM     17  S   UNL     1       2.250   8.333  19.070  0.00  0.00    +0.000 S 
ATOM     18  H   UNL     1       1.512   8.400  17.967  0.00  0.00    +0.000 HD
ENDBRANCH   5  17
TORSDOF 2
ENDMDL
MODEL 9
REMARK VINA RESULT:      -5.6      1.944      3.799
REMARK  Name = 
REMARK  2 active torsions:
REMARK  status: ('A' for Active; 'I' for Inactive)
REMARK    1  A    between atoms: C_2  and  C_3
REMARK    2  A    between atoms: C_7  and  S_8
REMARK                            x       y       z     vdW  Elec       q    Type
REMARK                         _______ _______ _______ _____ _____    ______ ____
ROOT
ATOM      1  C   UNL     1       5.375   4.528  18.046  0.00  0.00    +0.000 A 
ATOM      2  C   UNL     1       4.437   5.444  17.608  0.00  0.00    +0.000 A 
ATOM      3  N   UNL     1       3.241   5.148  18.251  0.00  0.00    +0.000 N 
ATOM      4  C   UNL     1       3.403   4.089  19.133  0.00  0.00    +0.000 A 
ATOM      5  C   UNL     1       2.619   3.375  20.050  0.00  0.00    +0.000 A 
ATOM      6  N   UNL     1       3.197   2.364  20.739  0.00  0.00    +0.000 NA
ATOM      7  C   UNL     1       4.481   2.073  20.526  0.00  0.00    +0.000 A 
ATOM      8  N   UNL     1       5.307   2.679  19.684  0.00  0.00    +0.000 NA
ATOM      9  C   UNL     1       4.747   3.694  18.993  0.00  0.00    +0.000 A 
ATOM     10  C   UNL     1       2.057   5.954  18.006  0.00  0.00    +0.000 C 
ATOM     11  C   UNL     1       2.206   7.365  18.572  0.00  0.00    +0.000 C 
ATOM     12  C   UNL     1       2.921   8.299  17.593  0.00  0.00    +0.000 C 
ATOM     13  C   UNL     1       4.389   7.942  17.344  0.00  0.00    +0.000 C 
ATOM     14  C   UNL     1       4.586   6.591  16.652  0.00  0.00    +0.000 C 
ENDROOT
BRANCH   1  16
ATOM     15  N   UNL     1       7.841   4.427  17.249  0.00  0.00    +0.000 NA
ATOM     16  C   UNL     1       6.742   4.464  17.634  0.00  0.00    +0.000 C 
ENDBRANCH   1  16
BRANCH   5  17
ATOM     17  S   UNL     1       0.902   3.579  20.424  0.00  0.00    +0.000 S 
ATOM     18  H   UNL     1       0.935   3.858  21.722  0.00  0.00    +0.000 HD
ENDBRANCH   5  17
TORSDOF 2
ENDMDL
