MODEL 1
REMARK VINA RESULT:      -9.0      0.000      0.000
REMARK  Name = 
REMARK  8 active torsions:
REMARK  status: ('A' for Active; 'I' for Inactive)
REMARK    1  A    between atoms: C_1  and  O_2
REMARK    2  A    between atoms: O_2  and  C_3
REMARK    3  A    between atoms: C_6  and  C_7
REMARK    4  A    between atoms: C_13  and  N_14
REMARK    5  A    between atoms: C_15  and  C_17
REMARK    6  A    between atoms: C_17  and  C_18
REMARK    7  A    between atoms: C_27  and  O_28
REMARK    8  A    between atoms: O_28  and  C_29
REMARK                            x       y       z     vdW  Elec       q    Type
REMARK                         _______ _______ _______ _____ _____    ______ ____
ROOT
ATOM      1  C   UNL     1       2.232   6.425  20.020  0.00  0.00    +0.000 A 
ATOM      2  C   UNL     1       1.494   5.515  20.785  0.00  0.00    +0.000 A 
ATOM      3  N   UNL     1       1.765   4.200  20.974  0.00  0.00    +0.000 NA
ATOM      4  C   UNL     1       2.868   3.799  20.322  0.00  0.00    +0.000 A 
ATOM      5  N   UNL     1       3.354   2.524  20.361  0.00  0.00    +0.000 N 
ATOM      6  C   UNL     1       4.495   2.443  19.610  0.00  0.00    +0.000 A 
ATOM      7  C   UNL     1       4.756   3.688  19.073  0.00  0.00    +0.000 A 
ATOM      8  C   UNL     1       3.711   4.559  19.518  0.00  0.00    +0.000 A 
ATOM      9  C   UNL     1       3.379   5.919  19.372  0.00  0.00    +0.000 A 
ATOM     10  H   UNL     1       2.922   1.779  20.886  0.00  0.00    +0.000 HD
ENDROOT
BRANCH   1  14
ATOM     11  C   UNL     1       0.929  10.534  19.709  0.00  0.00    +0.000 A 
ATOM     12  C   UNL     1       1.440   9.860  18.591  0.00  0.00    +0.000 A 
ATOM     13  C   UNL     1       1.868   8.530  18.681  0.00  0.00    +0.000 A 
ATOM     14  C   UNL     1       1.842   7.845  19.902  0.00  0.00    +0.000 A 
ATOM     15  C   UNL     1       1.412   8.567  21.027  0.00  0.00    +0.000 A 
ATOM     16  C   UNL     1       0.951   9.892  20.952  0.00  0.00    +0.000 A 
BRANCH  11  18
ATOM     17  C   UNL     1      -0.988  11.904  19.484  0.00  0.00    +0.000 C 
ATOM     18  O   UNL     1       0.430  11.805  19.610  0.00  0.00    +0.000 OA
ENDBRANCH  11  18
BRANCH  16  19
ATOM     19  O   UNL     1       0.543  10.346  22.177  0.00  0.00    +0.000 OA
ATOM     20  C   UNL     1      -0.207   9.491  23.021  0.00  0.00    +0.000 C 
ENDBRANCH  16  19
ENDBRANCH   1  14
BRANCH   7  21
ATOM     21  N   UNL     1       5.833   4.031  18.265  0.00  0.00    +0.000 N 
ATOM     22  C   UNL     1       5.716   4.657  17.030  0.00  0.00    +0.000 C 
ATOM     23  O   UNL     1       4.669   4.988  16.479  0.00  0.00    +0.000 OA
ATOM     24  H   UNL     1       6.739   3.676  18.542  0.00  0.00    +0.000 HD
BRANCH  22  25
ATOM     25  C   UNL     1       7.052   4.878  16.335  0.00  0.00    +0.000 C 
BRANCH  25  26
ATOM     26  C   UNL     1       6.947   4.669  14.844  0.00  0.00    +0.000 A 
ATOM     27  C   UNL     1       6.076   3.697  14.329  0.00  0.00    +0.000 A 
ATOM     28  C   UNL     1       6.045   3.428  12.961  0.00  0.00    +0.000 A 
ATOM     29  C   UNL     1       6.869   4.141  12.094  0.00  0.00    +0.000 A 
ATOM     30  C   UNL     1       7.705   5.140  12.591  0.00  0.00    +0.000 A 
ATOM     31  C   UNL     1       7.741   5.409  13.960  0.00  0.00    +0.000 A 
ENDBRANCH  25  26
ENDBRANCH  22  25
ENDBRANCH   7  21
TORSDOF 6
ENDMDL
MODEL 2
REMARK VINA RESULT:      -8.9      0.439      1.012
REMARK  Name = 
REMARK  8 active torsions:
REMARK  status: ('A' for Active; 'I' for Inactive)
REMARK    1  A    between atoms: C_1  and  O_2
REMARK    2  A    between atoms: O_2  and  C_3
REMARK    3  A    between atoms: C_6  and  C_7
REMARK    4  A    between atoms: C_13  and  N_14
REMARK    5  A    between atoms: C_15  and  C_17
REMARK    6  A    between atoms: C_17  and  C_18
REMARK    7  A    between atoms: C_27  and  O_28
REMARK    8  A    between atoms: O_28  and  C_29
REMARK                            x       y       z     vdW  Elec       q    Type
REMARK                         _______ _______ _______ _____ _____    ______ ____
ROOT
ATOM      1  C   UNL     1       2.210   6.418  19.993  0.00  0.00    +0.000 A 
ATOM      2  C   UNL     1       1.475   5.499  20.750  0.00  0.00    +0.000 A 
ATOM      3  N   UNL     1       1.756   4.185  20.934  0.00  0.00    +0.000 NA
ATOM      4  C   UNL     1       2.866   3.796  20.285  0.00  0.00    +0.000 A 
ATOM      5  N   UNL     1       3.361   2.524  20.322  0.00  0.00    +0.000 N 
ATOM      6  C   UNL     1       4.507   2.457  19.576  0.00  0.00    +0.000 A 
ATOM      7  C   UNL     1       4.761   3.707  19.046  0.00  0.00    +0.000 A 
ATOM      8  C   UNL     1       3.706   4.567  19.490  0.00  0.00    +0.000 A 
ATOM      9  C   UNL     1       3.364   5.925  19.348  0.00  0.00    +0.000 A 
ATOM     10  H   UNL     1       2.933   1.774  20.841  0.00  0.00    +0.000 HD
ENDROOT
BRANCH   1  14
ATOM     11  C   UNL     1       0.876  10.519  19.700  0.00  0.00    +0.000 A 
ATOM     12  C   UNL     1       1.360   9.843  18.571  0.00  0.00    +0.000 A 
ATOM     13  C   UNL     1       1.797   8.516  18.655  0.00  0.00    +0.000 A 
ATOM     14  C   UNL     1       1.809   7.836  19.879  0.00  0.00    +0.000 A 
ATOM     15  C   UNL     1       1.406   8.560  21.012  0.00  0.00    +0.000 A 
ATOM     16  C   UNL     1       0.936   9.882  20.945  0.00  0.00    +0.000 A 
BRANCH  11  18
ATOM     17  C   UNL     1       1.324  12.843  19.690  0.00  0.00    +0.000 C 
ATOM     18  O   UNL     1       0.368  11.787  19.609  0.00  0.00    +0.000 OA
ENDBRANCH  11  18
BRANCH  16  19
ATOM     19  O   UNL     1       0.559  10.340  22.178  0.00  0.00    +0.000 OA
ATOM     20  C   UNL     1      -0.096   9.461  23.075  0.00  0.00    +0.000 C 
ENDBRANCH  16  19
ENDBRANCH   1  14
BRANCH   7  21
ATOM     21  N   UNL     1       5.839   4.061  18.245  0.00  0.00    +0.000 N 
ATOM     22  C   UNL     1       5.722   4.639  16.987  0.00  0.00    +0.000 C 
ATOM     23  O   UNL     1       4.673   4.910  16.405  0.00  0.00    +0.000 OA
ATOM     24  H   UNL     1       6.752   3.751  18.551  0.00  0.00    +0.000 HD
BRANCH  22  25
ATOM     25  C   UNL     1       7.061   4.886  16.307  0.00  0.00    +0.000 C 
BRANCH  25  26
ATOM     26  C   UNL     1       7.000   4.594  14.828  0.00  0.00    +0.000 A 
ATOM     27  C   UNL     1       7.809   5.312  13.935  0.00  0.00    +0.000 A 
ATOM     28  C   UNL     1       7.689   5.119  12.559  0.00  0.00    +0.000 A 
ATOM     29  C   UNL     1       6.774   4.193  12.065  0.00  0.00    +0.000 A 
ATOM     30  C   UNL     1       5.997   3.442  12.947  0.00  0.00    +0.000 A 
ATOM     31  C   UNL     1       6.113   3.636  14.324  0.00  0.00    +0.000 A 
ENDBRANCH  25  26
ENDBRANCH  22  25
ENDBRANCH   7  21
TORSDOF 6
ENDMDL
MODEL 3
REMARK VINA RESULT:      -8.6      1.148      1.500
REMARK  Name = 
REMARK  8 active torsions:
REMARK  status: ('A' for Active; 'I' for Inactive)
REMARK    1  A    between atoms: C_1  and  O_2
REMARK    2  A    between atoms: O_2  and  C_3
REMARK    3  A    between atoms: C_6  and  C_7
REMARK    4  A    between atoms: C_13  and  N_14
REMARK    5  A    between atoms: C_15  and  C_17
REMARK    6  A    between atoms: C_17  and  C_18
REMARK    7  A    between atoms: C_27  and  O_28
REMARK    8  A    between atoms: O_28  and  C_29
REMARK                            x       y       z     vdW  Elec       q    Type
REMARK                         _______ _______ _______ _____ _____    ______ ____
ROOT
ATOM      1  C   UNL     1       2.112   6.442  20.172  0.00  0.00    +0.000 A 
ATOM      2  C   UNL     1       1.370   5.623  21.030  0.00  0.00    +0.000 A 
ATOM      3  N   UNL     1       1.605   4.319  21.318  0.00  0.00    +0.000 NA
ATOM      4  C   UNL     1       2.673   3.828  20.668  0.00  0.00    +0.000 A 
ATOM      5  N   UNL     1       3.118   2.545  20.798  0.00  0.00    +0.000 N 
ATOM      6  C   UNL     1       4.232   2.365  20.023  0.00  0.00    +0.000 A 
ATOM      7  C   UNL     1       4.515   3.552  19.378  0.00  0.00    +0.000 A 
ATOM      8  C   UNL     1       3.513   4.492  19.781  0.00  0.00    +0.000 A 
ATOM      9  C   UNL     1       3.220   5.846  19.533  0.00  0.00    +0.000 A 
ATOM     10  H   UNL     1       2.681   1.861  21.395  0.00  0.00    +0.000 HD
ENDROOT
BRANCH   1  14
ATOM     11  C   UNL     1       0.931  10.555  19.563  0.00  0.00    +0.000 A 
ATOM     12  C   UNL     1       1.389   9.777  18.490  0.00  0.00    +0.000 A 
ATOM     13  C   UNL     1       1.777   8.445  18.677  0.00  0.00    +0.000 A 
ATOM     14  C   UNL     1       1.764   7.861  19.949  0.00  0.00    +0.000 A 
ATOM     15  C   UNL     1       1.389   8.684  21.022  0.00  0.00    +0.000 A 
ATOM     16  C   UNL     1       0.968  10.013  20.853  0.00  0.00    +0.000 A 
BRANCH  11  18
ATOM     17  C   UNL     1      -0.745  11.944  18.634  0.00  0.00    +0.000 C 
ATOM     18  O   UNL     1       0.470  11.830  19.374  0.00  0.00    +0.000 OA
ENDBRANCH  11  18
BRANCH  16  19
ATOM     19  O   UNL     1       0.609  10.578  22.047  0.00  0.00    +0.000 OA
ATOM     20  C   UNL     1      -0.763  10.727  22.361  0.00  0.00    +0.000 C 
ENDBRANCH  16  19
ENDBRANCH   1  14
BRANCH   7  21
ATOM     21  N   UNL     1       5.575   3.790  18.512  0.00  0.00    +0.000 N 
ATOM     22  C   UNL     1       6.663   4.601  18.811  0.00  0.00    +0.000 C 
ATOM     23  O   UNL     1       6.843   5.220  19.859  0.00  0.00    +0.000 OA
ATOM     24  H   UNL     1       5.469   3.456  17.563  0.00  0.00    +0.000 HD
BRANCH  22  25
ATOM     25  C   UNL     1       7.660   4.724  17.668  0.00  0.00    +0.000 C 
BRANCH  25  26
ATOM     26  C   UNL     1       6.968   4.931  16.343  0.00  0.00    +0.000 A 
ATOM     27  C   UNL     1       6.077   6.001  16.174  0.00  0.00    +0.000 A 
ATOM     28  C   UNL     1       5.359   6.144  14.987  0.00  0.00    +0.000 A 
ATOM     29  C   UNL     1       5.540   5.230  13.952  0.00  0.00    +0.000 A 
ATOM     30  C   UNL     1       6.457   4.189  14.093  0.00  0.00    +0.000 A 
ATOM     31  C   UNL     1       7.175   4.042  15.282  0.00  0.00    +0.000 A 
ENDBRANCH  25  26
ENDBRANCH  22  25
ENDBRANCH   7  21
TORSDOF 6
ENDMDL
MODEL 4
REMARK VINA RESULT:      -8.4      2.047      8.661
REMARK  Name = 
REMARK  8 active torsions:
REMARK  status: ('A' for Active; 'I' for Inactive)
REMARK    1  A    between atoms: C_1  and  O_2
REMARK    2  A    between atoms: O_2  and  C_3
REMARK    3  A    between atoms: C_6  and  C_7
REMARK    4  A    between atoms: C_13  and  N_14
REMARK    5  A    between atoms: C_15  and  C_17
REMARK    6  A    between atoms: C_17  and  C_18
REMARK    7  A    between atoms: C_27  and  O_28
REMARK    8  A    between atoms: O_28  and  C_29
REMARK                            x       y       z     vdW  Elec       q    Type
REMARK                         _______ _______ _______ _____ _____    ______ ____
ROOT
ATOM      1  C   UNL     1       3.863   4.111  17.416  0.00  0.00    +0.000 A 
ATOM      2  C   UNL     1       3.110   2.938  17.293  0.00  0.00    +0.000 A 
ATOM      3  N   UNL     1       2.057   2.560  18.059  0.00  0.00    +0.000 NA
ATOM      4  C   UNL     1       1.770   3.452  19.022  0.00  0.00    +0.000 A 
ATOM      5  N   UNL     1       0.749   3.303  19.916  0.00  0.00    +0.000 N 
ATOM      6  C   UNL     1       0.710   4.387  20.751  0.00  0.00    +0.000 A 
ATOM      7  C   UNL     1       1.722   5.255  20.394  0.00  0.00    +0.000 A 
ATOM      8  C   UNL     1       2.412   4.655  19.291  0.00  0.00    +0.000 A 
ATOM      9  C   UNL     1       3.490   4.993  18.453  0.00  0.00    +0.000 A 
ATOM     10  H   UNL     1       0.126   2.511  19.924  0.00  0.00    +0.000 HD
ENDROOT
BRANCH   1  14
ATOM     11  C   UNL     1       7.083   5.176  14.738  0.00  0.00    +0.000 A 
ATOM     12  C   UNL     1       6.135   4.213  14.367  0.00  0.00    +0.000 A 
ATOM     13  C   UNL     1       5.090   3.858  15.228  0.00  0.00    +0.000 A 
ATOM     14  C   UNL     1       4.985   4.420  16.506  0.00  0.00    +0.000 A 
ATOM     15  C   UNL     1       5.996   5.314  16.892  0.00  0.00    +0.000 A 
ATOM     16  C   UNL     1       7.036   5.706  16.032  0.00  0.00    +0.000 A 
BRANCH  11  18
ATOM     17  C   UNL     1       7.832   5.281  12.495  0.00  0.00    +0.000 C 
ATOM     18  O   UNL     1       8.057   5.590  13.870  0.00  0.00    +0.000 OA
ENDBRANCH  11  18
BRANCH  16  19
ATOM     19  O   UNL     1       7.857   6.623  16.631  0.00  0.00    +0.000 OA
ATOM     20  C   UNL     1       7.288   7.681  17.380  0.00  0.00    +0.000 C 
ENDBRANCH  16  19
ENDBRANCH   1  14
BRANCH   7  21
ATOM     21  N   UNL     1       2.009   6.478  20.985  0.00  0.00    +0.000 N 
ATOM     22  C   UNL     1       1.077   7.489  21.184  0.00  0.00    +0.000 C 
ATOM     23  O   UNL     1      -0.110   7.456  20.868  0.00  0.00    +0.000 OA
ATOM     24  H   UNL     1       2.986   6.683  21.153  0.00  0.00    +0.000 HD
BRANCH  22  25
ATOM     25  C   UNL     1       1.668   8.742  21.814  0.00  0.00    +0.000 C 
BRANCH  25  26
ATOM     26  C   UNL     1       0.634   9.830  21.971  0.00  0.00    +0.000 A 
ATOM     27  C   UNL     1      -0.226   9.830  23.080  0.00  0.00    +0.000 A 
ATOM     28  C   UNL     1      -1.248  10.772  23.184  0.00  0.00    +0.000 A 
ATOM     29  C   UNL     1      -1.408  11.735  22.190  0.00  0.00    +0.000 A 
ATOM     30  C   UNL     1      -0.532  11.771  21.106  0.00  0.00    +0.000 A 
ATOM     31  C   UNL     1       0.491  10.827  20.999  0.00  0.00    +0.000 A 
ENDBRANCH  25  26
ENDBRANCH  22  25
ENDBRANCH   7  21
TORSDOF 6
ENDMDL
MODEL 5
REMARK VINA RESULT:      -8.4      1.999      8.485
REMARK  Name = 
REMARK  8 active torsions:
REMARK  status: ('A' for Active; 'I' for Inactive)
REMARK    1  A    between atoms: C_1  and  O_2
REMARK    2  A    between atoms: O_2  and  C_3
REMARK    3  A    between atoms: C_6  and  C_7
REMARK    4  A    between atoms: C_13  and  N_14
REMARK    5  A    between atoms: C_15  and  C_17
REMARK    6  A    between atoms: C_17  and  C_18
REMARK    7  A    between atoms: C_27  and  O_28
REMARK    8  A    between atoms: O_28  and  C_29
REMARK                            x       y       z     vdW  Elec       q    Type
REMARK                         _______ _______ _______ _____ _____    ______ ____
ROOT
ATOM      1  C   UNL     1       3.871   4.025  17.382  0.00  0.00    +0.000 A 
ATOM      2  C   UNL     1       3.137   2.839  17.258  0.00  0.00    +0.000 A 
ATOM      3  N   UNL     1       2.077   2.454  18.010  0.00  0.00    +0.000 NA
ATOM      4  C   UNL     1       1.760   3.351  18.959  0.00  0.00    +0.000 A 
ATOM      5  N   UNL     1       0.726   3.197  19.836  0.00  0.00    +0.000 N 
ATOM      6  C   UNL     1       0.657   4.288  20.659  0.00  0.00    +0.000 A 
ATOM      7  C   UNL     1       1.663   5.167  20.310  0.00  0.00    +0.000 A 
ATOM      8  C   UNL     1       2.380   4.567  19.226  0.00  0.00    +0.000 A 
ATOM      9  C   UNL     1       3.468   4.912  18.403  0.00  0.00    +0.000 A 
ATOM     10  H   UNL     1       0.115   2.396  19.842  0.00  0.00    +0.000 HD
ENDROOT
BRANCH   1  14
ATOM     11  C   UNL     1       7.113   5.104  14.735  0.00  0.00    +0.000 A 
ATOM     12  C   UNL     1       6.255   4.042  14.417  0.00  0.00    +0.000 A 
ATOM     13  C   UNL     1       5.203   3.682  15.269  0.00  0.00    +0.000 A 
ATOM     14  C   UNL     1       5.004   4.341  16.488  0.00  0.00    +0.000 A 
ATOM     15  C   UNL     1       5.929   5.340  16.829  0.00  0.00    +0.000 A 
ATOM     16  C   UNL     1       6.972   5.737  15.975  0.00  0.00    +0.000 A 
BRANCH  11  18
ATOM     17  C   UNL     1       7.823   5.287  12.485  0.00  0.00    +0.000 C 
ATOM     18  O   UNL     1       8.089   5.516  13.868  0.00  0.00    +0.000 OA
ENDBRANCH  11  18
BRANCH  16  19
ATOM     19  O   UNL     1       7.697   6.762  16.519  0.00  0.00    +0.000 OA
ATOM     20  C   UNL     1       7.365   7.241  17.809  0.00  0.00    +0.000 C 
ENDBRANCH  16  19
ENDBRANCH   1  14
BRANCH   7  21
ATOM     21  N   UNL     1       1.922   6.401  20.894  0.00  0.00    +0.000 N 
ATOM     22  C   UNL     1       1.766   7.621  20.247  0.00  0.00    +0.000 C 
ATOM     23  O   UNL     1       1.392   7.787  19.088  0.00  0.00    +0.000 OA
ATOM     24  H   UNL     1       2.378   6.389  21.797  0.00  0.00    +0.000 HD
BRANCH  22  25
ATOM     25  C   UNL     1       2.161   8.815  21.103  0.00  0.00    +0.000 C 
BRANCH  25  26
ATOM     26  C   UNL     1       0.957   9.617  21.533  0.00  0.00    +0.000 A 
ATOM     27  C   UNL     1       0.525  10.707  20.762  0.00  0.00    +0.000 A 
ATOM     28  C   UNL     1      -0.525  11.514  21.201  0.00  0.00    +0.000 A 
ATOM     29  C   UNL     1      -1.164  11.226  22.404  0.00  0.00    +0.000 A 
ATOM     30  C   UNL     1      -0.772  10.119  23.155  0.00  0.00    +0.000 A 
ATOM     31  C   UNL     1       0.280   9.312  22.720  0.00  0.00    +0.000 A 
ENDBRANCH  25  26
ENDBRANCH  22  25
ENDBRANCH   7  21
TORSDOF 6
ENDMDL
MODEL 6
REMARK VINA RESULT:      -8.4      0.987      1.329
REMARK  Name = 
REMARK  8 active torsions:
REMARK  status: ('A' for Active; 'I' for Inactive)
REMARK    1  A    between atoms: C_1  and  O_2
REMARK    2  A    between atoms: O_2  and  C_3
REMARK    3  A    between atoms: C_6  and  C_7
REMARK    4  A    between atoms: C_13  and  N_14
REMARK    5  A    between atoms: C_15  and  C_17
REMARK    6  A    between atoms: C_17  and  C_18
REMARK    7  A    between atoms: C_27  and  O_28
REMARK    8  A    between atoms: O_28  and  C_29
REMARK                            x       y       z     vdW  Elec       q    Type
REMARK                         _______ _______ _______ _____ _____    ______ ____
ROOT
ATOM      1  C   UNL     1       2.089   6.676  19.797  0.00  0.00    +0.000 A 
ATOM      2  C   UNL     1       1.569   5.618  20.552  0.00  0.00    +0.000 A 
ATOM      3  N   UNL     1       1.901   4.307  20.456  0.00  0.00    +0.000 NA
ATOM      4  C   UNL     1       2.826   4.074  19.510  0.00  0.00    +0.000 A 
ATOM      5  N   UNL     1       3.331   2.837  19.229  0.00  0.00    +0.000 N 
ATOM      6  C   UNL     1       4.264   2.939  18.232  0.00  0.00    +0.000 A 
ATOM      7  C   UNL     1       4.368   4.264  17.861  0.00  0.00    +0.000 A 
ATOM      8  C   UNL     1       3.441   4.996  18.671  0.00  0.00    +0.000 A 
ATOM      9  C   UNL     1       3.060   6.342  18.828  0.00  0.00    +0.000 A 
ATOM     10  H   UNL     1       3.049   1.998  19.710  0.00  0.00    +0.000 HD
ENDROOT
BRANCH   1  14
ATOM     11  C   UNL     1       0.666  10.705  20.448  0.00  0.00    +0.000 A 
ATOM     12  C   UNL     1       1.069  10.287  19.171  0.00  0.00    +0.000 A 
ATOM     13  C   UNL     1       1.534   8.985  18.950  0.00  0.00    +0.000 A 
ATOM     14  C   UNL     1       1.656   8.073  20.005  0.00  0.00    +0.000 A 
ATOM     15  C   UNL     1       1.335   8.540  21.289  0.00  0.00    +0.000 A 
ATOM     16  C   UNL     1       0.838   9.832  21.528  0.00  0.00    +0.000 A 
BRANCH  11  18
ATOM     17  C   UNL     1      -1.212  12.124  20.206  0.00  0.00    +0.000 C 
ATOM     18  O   UNL     1       0.131  11.947  20.656  0.00  0.00    +0.000 OA
ENDBRANCH  11  18
BRANCH  16  19
ATOM     19  O   UNL     1       0.554  10.018  22.854  0.00  0.00    +0.000 OA
ATOM     20  C   UNL     1      -0.780   9.881  23.306  0.00  0.00    +0.000 C 
ENDBRANCH  16  19
ENDBRANCH   1  14
BRANCH   7  21
ATOM     21  N   UNL     1       5.217   4.787  16.894  0.00  0.00    +0.000 N 
ATOM     22  C   UNL     1       6.600   4.838  17.011  0.00  0.00    +0.000 C 
ATOM     23  O   UNL     1       7.264   4.444  17.968  0.00  0.00    +0.000 OA
ATOM     24  H   UNL     1       4.780   5.278  16.124  0.00  0.00    +0.000 HD
BRANCH  22  25
ATOM     25  C   UNL     1       7.285   5.501  15.825  0.00  0.00    +0.000 C 
BRANCH  25  26
ATOM     26  C   UNL     1       6.970   4.792  14.530  0.00  0.00    +0.000 A 
ATOM     27  C   UNL     1       7.681   5.109  13.363  0.00  0.00    +0.000 A 
ATOM     28  C   UNL     1       7.332   4.532  12.142  0.00  0.00    +0.000 A 
ATOM     29  C   UNL     1       6.282   3.620  12.081  0.00  0.00    +0.000 A 
ATOM     30  C   UNL     1       5.598   3.264  13.243  0.00  0.00    +0.000 A 
ATOM     31  C   UNL     1       5.944   3.842  14.466  0.00  0.00    +0.000 A 
ENDBRANCH  25  26
ENDBRANCH  22  25
ENDBRANCH   7  21
TORSDOF 6
ENDMDL
MODEL 7
REMARK VINA RESULT:      -8.3      1.071      1.177
REMARK  Name = 
REMARK  8 active torsions:
REMARK  status: ('A' for Active; 'I' for Inactive)
REMARK    1  A    between atoms: C_1  and  O_2
REMARK    2  A    between atoms: O_2  and  C_3
REMARK    3  A    between atoms: C_6  and  C_7
REMARK    4  A    between atoms: C_13  and  N_14
REMARK    5  A    between atoms: C_15  and  C_17
REMARK    6  A    between atoms: C_17  and  C_18
REMARK    7  A    between atoms: C_27  and  O_28
REMARK    8  A    between atoms: O_28  and  C_29
REMARK                            x       y       z     vdW  Elec       q    Type
REMARK                         _______ _______ _______ _____ _____    ______ ____
ROOT
ATOM      1  C   UNL     1       2.028   7.273  19.886  0.00  0.00    +0.000 A 
ATOM      2  C   UNL     1       1.661   6.278  20.799  0.00  0.00    +0.000 A 
ATOM      3  N   UNL     1       2.133   5.008  20.854  0.00  0.00    +0.000 NA
ATOM      4  C   UNL     1       3.037   4.748  19.894  0.00  0.00    +0.000 A 
ATOM      5  N   UNL     1       3.663   3.545  19.745  0.00  0.00    +0.000 N 
ATOM      6  C   UNL     1       4.535   3.609  18.693  0.00  0.00    +0.000 A 
ATOM      7  C   UNL     1       4.475   4.876  18.148  0.00  0.00    +0.000 A 
ATOM      8  C   UNL     1       3.508   5.608  18.909  0.00  0.00    +0.000 A 
ATOM      9  C   UNL     1       2.986   6.916  18.914  0.00  0.00    +0.000 A 
ATOM     10  H   UNL     1       3.497   2.753  20.346  0.00  0.00    +0.000 HD
ENDROOT
BRANCH   1  14
ATOM     11  C   UNL     1       0.195  11.182  20.093  0.00  0.00    +0.000 A 
ATOM     12  C   UNL     1       0.590  10.643  18.861  0.00  0.00    +0.000 A 
ATOM     13  C   UNL     1       1.187   9.379  18.782  0.00  0.00    +0.000 A 
ATOM     14  C   UNL     1       1.451   8.633  19.937  0.00  0.00    +0.000 A 
ATOM     15  C   UNL     1       1.131   9.230  21.167  0.00  0.00    +0.000 A 
ATOM     16  C   UNL     1       0.504  10.483  21.265  0.00  0.00    +0.000 A 
BRANCH  11  18
ATOM     17  C   UNL     1      -1.888  12.306  20.068  0.00  0.00    +0.000 C 
ATOM     18  O   UNL     1      -0.467  12.378  20.169  0.00  0.00    +0.000 OA
ENDBRANCH  11  18
BRANCH  16  19
ATOM     19  O   UNL     1       0.253  10.812  22.570  0.00  0.00    +0.000 OA
ATOM     20  C   UNL     1      -0.961  10.401  23.170  0.00  0.00    +0.000 C 
ENDBRANCH  16  19
ENDBRANCH   1  14
BRANCH   7  21
ATOM     21  N   UNL     1       5.218   5.350  17.074  0.00  0.00    +0.000 N 
ATOM     22  C   UNL     1       6.550   5.033  16.844  0.00  0.00    +0.000 C 
ATOM     23  O   UNL     1       7.257   4.308  17.541  0.00  0.00    +0.000 OA
ATOM     24  H   UNL     1       4.789   6.074  16.512  0.00  0.00    +0.000 HD
BRANCH  22  25
ATOM     25  C   UNL     1       7.134   5.723  15.619  0.00  0.00    +0.000 C 
BRANCH  25  26
ATOM     26  C   UNL     1       6.800   4.983  14.348  0.00  0.00    +0.000 A 
ATOM     27  C   UNL     1       5.677   4.143  14.296  0.00  0.00    +0.000 A 
ATOM     28  C   UNL     1       5.416   3.378  13.160  0.00  0.00    +0.000 A 
ATOM     29  C   UNL     1       6.263   3.462  12.057  0.00  0.00    +0.000 A 
ATOM     30  C   UNL     1       7.355   4.328  12.081  0.00  0.00    +0.000 A 
ATOM     31  C   UNL     1       7.621   5.092  13.219  0.00  0.00    +0.000 A 
ENDBRANCH  25  26
ENDBRANCH  22  25
ENDBRANCH   7  21
TORSDOF 6
ENDMDL
MODEL 8
REMARK VINA RESULT:      -8.3      1.688      2.616
REMARK  Name = 
REMARK  8 active torsions:
REMARK  status: ('A' for Active; 'I' for Inactive)
REMARK    1  A    between atoms: C_1  and  O_2
REMARK    2  A    between atoms: O_2  and  C_3
REMARK    3  A    between atoms: C_6  and  C_7
REMARK    4  A    between atoms: C_13  and  N_14
REMARK    5  A    between atoms: C_15  and  C_17
REMARK    6  A    between atoms: C_17  and  C_18
REMARK    7  A    between atoms: C_27  and  O_28
REMARK    8  A    between atoms: O_28  and  C_29
REMARK                            x       y       z     vdW  Elec       q    Type
REMARK                         _______ _______ _______ _____ _____    ______ ____
ROOT
ATOM      1  C   UNL     1       1.826   6.271  20.217  0.00  0.00    +0.000 A 
ATOM      2  C   UNL     1       0.941   5.335  20.763  0.00  0.00    +0.000 A 
ATOM      3  N   UNL     1       1.083   3.986  20.770  0.00  0.00    +0.000 NA
ATOM      4  C   UNL     1       2.211   3.580  20.165  0.00  0.00    +0.000 A 
ATOM      5  N   UNL     1       2.584   2.272  20.051  0.00  0.00    +0.000 N 
ATOM      6  C   UNL     1       3.786   2.193  19.402  0.00  0.00    +0.000 A 
ATOM      7  C   UNL     1       4.202   3.472  19.089  0.00  0.00    +0.000 A 
ATOM      8  C   UNL     1       3.191   4.365  19.568  0.00  0.00    +0.000 A 
ATOM      9  C   UNL     1       2.988   5.758  19.604  0.00  0.00    +0.000 A 
ATOM     10  H   UNL     1       2.041   1.504  20.414  0.00  0.00    +0.000 HD
ENDROOT
BRANCH   1  14
ATOM     11  C   UNL     1       0.905  10.488  20.449  0.00  0.00    +0.000 A 
ATOM     12  C   UNL     1       1.332   9.915  19.243  0.00  0.00    +0.000 A 
ATOM     13  C   UNL     1       1.636   8.551  19.157  0.00  0.00    +0.000 A 
ATOM     14  C   UNL     1       1.568   7.725  20.285  0.00  0.00    +0.000 A 
ATOM     15  C   UNL     1       1.225   8.336  21.501  0.00  0.00    +0.000 A 
ATOM     16  C   UNL     1       0.888   9.696  21.602  0.00  0.00    +0.000 A 
BRANCH  11  18
ATOM     17  C   UNL     1      -0.598  12.163  19.716  0.00  0.00    +0.000 C 
ATOM     18  O   UNL     1       0.524  11.801  20.520  0.00  0.00    +0.000 OA
ENDBRANCH  11  18
BRANCH  16  19
ATOM     19  O   UNL     1       0.544  10.028  22.885  0.00  0.00    +0.000 OA
ATOM     20  C   UNL     1      -0.815  10.274  23.199  0.00  0.00    +0.000 C 
ENDBRANCH  16  19
ENDBRANCH   1  14
BRANCH   7  21
ATOM     21  N   UNL     1       5.381   3.823  18.443  0.00  0.00    +0.000 N 
ATOM     22  C   UNL     1       5.479   4.088  17.083  0.00  0.00    +0.000 C 
ATOM     23  O   UNL     1       4.561   4.046  16.266  0.00  0.00    +0.000 OA
ATOM     24  H   UNL     1       6.234   3.745  18.983  0.00  0.00    +0.000 HD
BRANCH  22  25
ATOM     25  C   UNL     1       6.896   4.407  16.628  0.00  0.00    +0.000 C 
BRANCH  25  26
ATOM     26  C   UNL     1       7.426   5.657  17.286  0.00  0.00    +0.000 A 
ATOM     27  C   UNL     1       7.991   5.592  18.569  0.00  0.00    +0.000 A 
ATOM     28  C   UNL     1       8.393   6.756  19.225  0.00  0.00    +0.000 A 
ATOM     29  C   UNL     1       8.252   7.990  18.597  0.00  0.00    +0.000 A 
ATOM     30  C   UNL     1       7.734   8.061  17.305  0.00  0.00    +0.000 A 
ATOM     31  C   UNL     1       7.328   6.898  16.647  0.00  0.00    +0.000 A 
ENDBRANCH  25  26
ENDBRANCH  22  25
ENDBRANCH   7  21
TORSDOF 6
ENDMDL
MODEL 9
REMARK VINA RESULT:      -8.2      1.199      2.134
REMARK  Name = 
REMARK  8 active torsions:
REMARK  status: ('A' for Active; 'I' for Inactive)
REMARK    1  A    between atoms: C_1  and  O_2
REMARK    2  A    between atoms: O_2  and  C_3
REMARK    3  A    between atoms: C_6  and  C_7
REMARK    4  A    between atoms: C_13  and  N_14
REMARK    5  A    between atoms: C_15  and  C_17
REMARK    6  A    between atoms: C_17  and  C_18
REMARK    7  A    between atoms: C_27  and  O_28
REMARK    8  A    between atoms: O_28  and  C_29
REMARK                            x       y       z     vdW  Elec       q    Type
REMARK                         _______ _______ _______ _____ _____    ______ ____
ROOT
ATOM      1  C   UNL     1       2.015   6.661  20.133  0.00  0.00    +0.000 A 
ATOM      2  C   UNL     1       1.614   5.565  20.906  0.00  0.00    +0.000 A 
ATOM      3  N   UNL     1       2.011   4.277  20.763  0.00  0.00    +0.000 NA
ATOM      4  C   UNL     1       2.874   4.110  19.747  0.00  0.00    +0.000 A 
ATOM      5  N   UNL     1       3.424   2.908  19.407  0.00  0.00    +0.000 N 
ATOM      6  C   UNL     1       4.272   3.076  18.345  0.00  0.00    +0.000 A 
ATOM      7  C   UNL     1       4.273   4.410  17.990  0.00  0.00    +0.000 A 
ATOM      8  C   UNL     1       3.371   5.076  18.879  0.00  0.00    +0.000 A 
ATOM      9  C   UNL     1       2.927   6.396  19.089  0.00  0.00    +0.000 A 
ATOM     10  H   UNL     1       3.228   2.047  19.893  0.00  0.00    +0.000 HD
ENDROOT
BRANCH   1  14
ATOM     11  C   UNL     1       0.730  10.720  20.877  0.00  0.00    +0.000 A 
ATOM     12  C   UNL     1       0.702   9.762  21.901  0.00  0.00    +0.000 A 
ATOM     13  C   UNL     1       1.113   8.444  21.670  0.00  0.00    +0.000 A 
ATOM     14  C   UNL     1       1.522   8.028  20.398  0.00  0.00    +0.000 A 
ATOM     15  C   UNL     1       1.456   8.978  19.366  0.00  0.00    +0.000 A 
ATOM     16  C   UNL     1       1.075  10.313  19.583  0.00  0.00    +0.000 A 
BRANCH  11  18
ATOM     17  C   UNL     1      -0.558  12.253  22.139  0.00  0.00    +0.000 C 
ATOM     18  O   UNL     1       0.412  12.029  21.116  0.00  0.00    +0.000 OA
ENDBRANCH  11  18
BRANCH  16  19
ATOM     19  O   UNL     1       1.145  11.044  18.428  0.00  0.00    +0.000 OA
ATOM     20  C   UNL     1       2.311  11.798  18.151  0.00  0.00    +0.000 C 
ENDBRANCH  16  19
ENDBRANCH   1  14
BRANCH   7  21
ATOM     21  N   UNL     1       5.015   4.993  16.971  0.00  0.00    +0.000 N 
ATOM     22  C   UNL     1       6.400   4.937  16.881  0.00  0.00    +0.000 C 
ATOM     23  O   UNL     1       7.159   4.381  17.673  0.00  0.00    +0.000 OA
ATOM     24  H   UNL     1       4.515   5.606  16.339  0.00  0.00    +0.000 HD
BRANCH  22  25
ATOM     25  C   UNL     1       6.961   5.697  15.688  0.00  0.00    +0.000 C 
BRANCH  25  26
ATOM     26  C   UNL     1       6.798   4.921  14.403  0.00  0.00    +0.000 A 
ATOM     27  C   UNL     1       7.684   5.132  13.336  0.00  0.00    +0.000 A 
ATOM     28  C   UNL     1       7.482   4.494  12.112  0.00  0.00    +0.000 A 
ATOM     29  C   UNL     1       6.406   3.626  11.951  0.00  0.00    +0.000 A 
ATOM     30  C   UNL     1       5.546   3.375  13.020  0.00  0.00    +0.000 A 
ATOM     31  C   UNL     1       5.743   4.015  14.245  0.00  0.00    +0.000 A 
ENDBRANCH  25  26
ENDBRANCH  22  25
ENDBRANCH   7  21
TORSDOF 6
ENDMDL
