MODEL 1
REMARK VINA RESULT:      -8.3      0.000      0.000
REMARK  Name = 
REMARK  7 active torsions:
REMARK  status: ('A' for Active; 'I' for Inactive)
REMARK    1  A    between atoms: C_1  and  C_2
REMARK    2  A    between atoms: C_4  and  C_5
REMARK    3  A    between atoms: N_7  and  C_8
REMARK    4  A    between atoms: C_15  and  C_16
REMARK    5  A    between atoms: C_16  and  C_17
REMARK    6  A    between atoms: C_19  and  C_20
REMARK    7  A    between atoms: C_24  and  N_25
REMARK                            x       y       z     vdW  Elec       q    Type
REMARK                         _______ _______ _______ _____ _____    ______ ____
ROOT
ATOM      1  C   UNL     1       0.232   8.967  21.788  0.00  0.00    +0.000 C 
ATOM      2  C   UNL     1       1.046   8.440  20.661  0.00  0.00    +0.000 A 
ATOM      3  N   UNL     1       1.705   7.216  20.803  0.00  0.00    +0.000 NA
ATOM      4  C   UNL     1       2.364   6.911  19.695  0.00  0.00    +0.000 A 
ATOM      5  S   UNL     1       2.169   8.027  18.413  0.00  0.00    +0.000 S 
ATOM      6  C   UNL     1       1.234   9.075  19.447  0.00  0.00    +0.000 A 
ENDROOT
BRANCH   6   7
ATOM      7  C   UNL     1       0.741  10.426  18.930  0.00  0.00    +0.000 C 
ATOM      8  C   UNL     1       1.925  11.135  18.250  0.00  0.00    +0.000 C 
ATOM      9  C   UNL     1      -0.636  10.238  18.285  0.00  0.00    +0.000 C 
ATOM     10  C   UNL     1      -1.362  11.457  18.766  0.00  0.00    +0.000 C 
ATOM     11  N   UNL     1      -0.710  12.129  19.658  0.00  0.00    +0.000 NA
ATOM     12  O   UNL     1       0.419  11.332  20.022  0.00  0.00    +0.000 OA
BRANCH  10  13
ATOM     13  C   UNL     1      -2.801  11.734  18.454  0.00  0.00    +0.000 A 
ATOM     14  C   UNL     1      -3.263  11.430  17.162  0.00  0.00    +0.000 A 
ATOM     15  C   UNL     1      -4.632  11.398  16.871  0.00  0.00    +0.000 A 
ATOM     16  C   UNL     1      -5.562  11.705  17.855  0.00  0.00    +0.000 A 
ATOM     17  C   UNL     1      -5.113  12.049  19.131  0.00  0.00    +0.000 A 
ATOM     18  C   UNL     1      -3.736  12.050  19.453  0.00  0.00    +0.000 A 
BRANCH  17  19
ATOM     19  N   UNL     1      -6.127  12.361  20.165  0.00  0.00    +0.000 N 
ATOM     20  O   UNL     1      -7.082  13.083  19.834  0.00  0.00    +0.000 OA
ATOM     21  O   UNL     1      -5.949  11.905  21.292  0.00  0.00    +0.000 OA
ENDBRANCH  17  19
ENDBRANCH  10  13
ENDBRANCH   6   7
BRANCH   4  22
ATOM     22  C   UNL     1       3.225   5.711  19.571  0.00  0.00    +0.000 C 
ATOM     23  O   UNL     1       3.137   4.701  20.268  0.00  0.00    +0.000 OA
ATOM     24  N   UNL     1       4.164   5.843  18.568  0.00  0.00    +0.000 N 
ATOM     25  H   UNL     1       4.139   6.755  18.122  0.00  0.00    +0.000 HD
BRANCH  24  26
ATOM     26  C   UNL     1       5.238   4.944  18.156  0.00  0.00    +0.000 C 
ATOM     27  C   UNL     1       4.854   4.047  16.970  0.00  0.00    +0.000 C 
ATOM     28  C   UNL     1       5.394   4.505  15.621  0.00  0.00    +0.000 C 
ATOM     29  C   UNL     1       6.896   4.725  15.693  0.00  0.00    +0.000 C 
ATOM     30  C   UNL     1       7.213   5.833  16.686  0.00  0.00    +0.000 C 
ATOM     31  C   UNL     1       6.649   5.564  18.081  0.00  0.00    +0.000 C 
ENDBRANCH  24  26
ENDBRANCH   4  22
TORSDOF 5
ENDMDL
MODEL 2
REMARK VINA RESULT:      -8.2      3.482     10.588
REMARK  Name = 
REMARK  7 active torsions:
REMARK  status: ('A' for Active; 'I' for Inactive)
REMARK    1  A    between atoms: C_1  and  C_2
REMARK    2  A    between atoms: C_4  and  C_5
REMARK    3  A    between atoms: N_7  and  C_8
REMARK    4  A    between atoms: C_15  and  C_16
REMARK    5  A    between atoms: C_16  and  C_17
REMARK    6  A    between atoms: C_19  and  C_20
REMARK    7  A    between atoms: C_24  and  N_25
REMARK                            x       y       z     vdW  Elec       q    Type
REMARK                         _______ _______ _______ _____ _____    ______ ____
ROOT
ATOM      1  C   UNL     1       2.574   4.646  20.600  0.00  0.00    +0.000 C 
ATOM      2  C   UNL     1       2.715   5.809  19.684  0.00  0.00    +0.000 A 
ATOM      3  N   UNL     1       1.899   6.928  19.863  0.00  0.00    +0.000 NA
ATOM      4  C   UNL     1       2.180   7.859  18.963  0.00  0.00    +0.000 A 
ATOM      5  S   UNL     1       3.475   7.475  17.915  0.00  0.00    +0.000 S 
ATOM      6  C   UNL     1       3.599   5.886  18.623  0.00  0.00    +0.000 A 
ENDROOT
BRANCH   6   7
ATOM      7  C   UNL     1       4.601   4.873  18.072  0.00  0.00    +0.000 C 
ATOM      8  C   UNL     1       4.695   3.705  19.068  0.00  0.00    +0.000 C 
ATOM      9  C   UNL     1       4.360   4.705  16.568  0.00  0.00    +0.000 C 
ATOM     10  C   UNL     1       5.763   4.646  16.044  0.00  0.00    +0.000 C 
ATOM     11  N   UNL     1       6.660   4.926  16.932  0.00  0.00    +0.000 NA
ATOM     12  O   UNL     1       5.957   5.402  18.082  0.00  0.00    +0.000 OA
BRANCH  10  13
ATOM     13  C   UNL     1       6.093   4.537  14.587  0.00  0.00    +0.000 A 
ATOM     14  C   UNL     1       7.262   5.169  14.129  0.00  0.00    +0.000 A 
ATOM     15  C   UNL     1       7.786   4.893  12.861  0.00  0.00    +0.000 A 
ATOM     16  C   UNL     1       7.132   4.009  12.012  0.00  0.00    +0.000 A 
ATOM     17  C   UNL     1       5.948   3.407  12.440  0.00  0.00    +0.000 A 
ATOM     18  C   UNL     1       5.424   3.645  13.732  0.00  0.00    +0.000 A 
BRANCH  17  19
ATOM     19  N   UNL     1       5.277   2.460  11.520  0.00  0.00    +0.000 N 
ATOM     20  O   UNL     1       5.898   1.433  11.199  0.00  0.00    +0.000 OA
ATOM     21  O   UNL     1       4.157   2.759  11.112  0.00  0.00    +0.000 OA
ENDBRANCH  17  19
ENDBRANCH  10  13
ENDBRANCH   6   7
BRANCH   4  22
ATOM     22  C   UNL     1       1.423   9.128  18.850  0.00  0.00    +0.000 C 
ATOM     23  O   UNL     1       1.172   9.711  17.797  0.00  0.00    +0.000 OA
ATOM     24  N   UNL     1       1.017   9.605  20.080  0.00  0.00    +0.000 N 
ATOM     25  H   UNL     1       1.348   9.036  20.853  0.00  0.00    +0.000 HD
BRANCH  24  26
ATOM     26  C   UNL     1       0.318  10.838  20.430  0.00  0.00    +0.000 C 
ATOM     27  C   UNL     1       1.193  12.091  20.285  0.00  0.00    +0.000 C 
ATOM     28  C   UNL     1       0.947  12.900  19.018  0.00  0.00    +0.000 C 
ATOM     29  C   UNL     1      -0.530  13.229  18.871  0.00  0.00    +0.000 C 
ATOM     30  C   UNL     1      -1.338  11.947  18.732  0.00  0.00    +0.000 C 
ATOM     31  C   UNL     1      -1.122  10.977  19.895  0.00  0.00    +0.000 C 
ENDBRANCH  24  26
ENDBRANCH   4  22
TORSDOF 5
ENDMDL
MODEL 3
REMARK VINA RESULT:      -8.0      3.607      4.414
REMARK  Name = 
REMARK  7 active torsions:
REMARK  status: ('A' for Active; 'I' for Inactive)
REMARK    1  A    between atoms: C_1  and  C_2
REMARK    2  A    between atoms: C_4  and  C_5
REMARK    3  A    between atoms: N_7  and  C_8
REMARK    4  A    between atoms: C_15  and  C_16
REMARK    5  A    between atoms: C_16  and  C_17
REMARK    6  A    between atoms: C_19  and  C_20
REMARK    7  A    between atoms: C_24  and  N_25
REMARK                            x       y       z     vdW  Elec       q    Type
REMARK                         _______ _______ _______ _____ _____    ______ ____
ROOT
ATOM      1  C   UNL     1       0.648   9.136  22.094  0.00  0.00    +0.000 C 
ATOM      2  C   UNL     1       1.149   9.134  20.694  0.00  0.00    +0.000 A 
ATOM      3  N   UNL     1       1.707   7.968  20.165  0.00  0.00    +0.000 NA
ATOM      4  C   UNL     1       2.082   8.160  18.909  0.00  0.00    +0.000 A 
ATOM      5  S   UNL     1       1.719   9.708  18.279  0.00  0.00    +0.000 S 
ATOM      6  C   UNL     1       1.129  10.221  19.838  0.00  0.00    +0.000 A 
ENDROOT
BRANCH   6   7
ATOM      7  C   UNL     1       0.662  11.661  20.049  0.00  0.00    +0.000 C 
ATOM      8  C   UNL     1       1.044  12.472  18.799  0.00  0.00    +0.000 C 
ATOM      9  C   UNL     1      -0.738  11.643  20.669  0.00  0.00    +0.000 C 
ATOM     10  C   UNL     1      -0.635  12.749  21.676  0.00  0.00    +0.000 C 
ATOM     11  N   UNL     1       0.567  13.203  21.824  0.00  0.00    +0.000 NA
ATOM     12  O   UNL     1       1.426  12.322  21.096  0.00  0.00    +0.000 OA
BRANCH  10  13
ATOM     13  C   UNL     1      -1.746  13.117  22.610  0.00  0.00    +0.000 A 
ATOM     14  C   UNL     1      -2.757  12.167  22.835  0.00  0.00    +0.000 A 
ATOM     15  C   UNL     1      -3.670  12.315  23.885  0.00  0.00    +0.000 A 
ATOM     16  C   UNL     1      -3.613  13.433  24.708  0.00  0.00    +0.000 A 
ATOM     17  C   UNL     1      -2.639  14.403  24.468  0.00  0.00    +0.000 A 
ATOM     18  C   UNL     1      -1.686  14.252  23.435  0.00  0.00    +0.000 A 
BRANCH  17  19
ATOM     19  N   UNL     1      -2.594  15.580  25.367  0.00  0.00    +0.000 N 
ATOM     20  O   UNL     1      -3.417  16.488  25.167  0.00  0.00    +0.000 OA
ATOM     21  O   UNL     1      -1.730  15.595  26.241  0.00  0.00    +0.000 OA
ENDBRANCH  17  19
ENDBRANCH  10  13
ENDBRANCH   6   7
BRANCH   4  22
ATOM     22  C   UNL     1       2.782   7.128  18.108  0.00  0.00    +0.000 C 
ATOM     23  O   UNL     1       3.658   7.351  17.274  0.00  0.00    +0.000 OA
ATOM     24  N   UNL     1       2.340   5.853  18.399  0.00  0.00    +0.000 N 
ATOM     25  H   UNL     1       1.578   5.843  19.070  0.00  0.00    +0.000 HD
BRANCH  24  26
ATOM     26  C   UNL     1       2.702   4.569  17.805  0.00  0.00    +0.000 C 
ATOM     27  C   UNL     1       4.096   4.081  18.225  0.00  0.00    +0.000 C 
ATOM     28  C   UNL     1       4.099   3.014  19.312  0.00  0.00    +0.000 C 
ATOM     29  C   UNL     1       3.193   1.856  18.928  0.00  0.00    +0.000 C 
ATOM     30  C   UNL     1       1.756   2.340  18.798  0.00  0.00    +0.000 C 
ATOM     31  C   UNL     1       1.601   3.489  17.801  0.00  0.00    +0.000 C 
ENDBRANCH  24  26
ENDBRANCH   4  22
TORSDOF 5
ENDMDL
MODEL 4
REMARK VINA RESULT:      -8.0      2.475      3.372
REMARK  Name = 
REMARK  7 active torsions:
REMARK  status: ('A' for Active; 'I' for Inactive)
REMARK    1  A    between atoms: C_1  and  C_2
REMARK    2  A    between atoms: C_4  and  C_5
REMARK    3  A    between atoms: N_7  and  C_8
REMARK    4  A    between atoms: C_15  and  C_16
REMARK    5  A    between atoms: C_16  and  C_17
REMARK    6  A    between atoms: C_19  and  C_20
REMARK    7  A    between atoms: C_24  and  N_25
REMARK                            x       y       z     vdW  Elec       q    Type
REMARK                         _______ _______ _______ _____ _____    ______ ____
ROOT
ATOM      1  C   UNL     1       0.643   8.721  21.896  0.00  0.00    +0.000 C 
ATOM      2  C   UNL     1       1.237   8.803  20.535  0.00  0.00    +0.000 A 
ATOM      3  N   UNL     1       1.900   7.693  20.006  0.00  0.00    +0.000 NA
ATOM      4  C   UNL     1       2.346   7.954  18.787  0.00  0.00    +0.000 A 
ATOM      5  S   UNL     1       1.933   9.502  18.188  0.00  0.00    +0.000 S 
ATOM      6  C   UNL     1       1.208   9.918  19.718  0.00  0.00    +0.000 A 
ENDROOT
BRANCH   6   7
ATOM      7  C   UNL     1       0.642  11.319  19.945  0.00  0.00    +0.000 C 
ATOM      8  C   UNL     1       1.200  12.242  18.848  0.00  0.00    +0.000 C 
ATOM      9  C   UNL     1      -0.844  11.203  20.298  0.00  0.00    +0.000 C 
ATOM     10  C   UNL     1      -0.976  12.227  21.385  0.00  0.00    +0.000 C 
ATOM     11  N   UNL     1       0.157  12.709  21.781  0.00  0.00    +0.000 NA
ATOM     12  O   UNL     1       1.174  11.921  21.159  0.00  0.00    +0.000 OA
BRANCH  10  13
ATOM     13  C   UNL     1      -2.252  12.480  22.126  0.00  0.00    +0.000 A 
ATOM     14  C   UNL     1      -2.167  13.071  23.399  0.00  0.00    +0.000 A 
ATOM     15  C   UNL     1      -3.301  13.588  24.036  0.00  0.00    +0.000 A 
ATOM     16  C   UNL     1      -4.547  13.490  23.430  0.00  0.00    +0.000 A 
ATOM     17  C   UNL     1      -4.650  12.868  22.185  0.00  0.00    +0.000 A 
ATOM     18  C   UNL     1      -3.510  12.374  21.511  0.00  0.00    +0.000 A 
BRANCH  17  19
ATOM     19  N   UNL     1      -5.990  12.788  21.557  0.00  0.00    +0.000 N 
ATOM     20  O   UNL     1      -6.457  13.828  21.065  0.00  0.00    +0.000 OA
ATOM     21  O   UNL     1      -6.566  11.703  21.582  0.00  0.00    +0.000 OA
ENDBRANCH  17  19
ENDBRANCH  10  13
ENDBRANCH   6   7
BRANCH   4  22
ATOM     22  C   UNL     1       3.160   6.996  18.002  0.00  0.00    +0.000 C 
ATOM     23  O   UNL     1       3.739   7.256  16.948  0.00  0.00    +0.000 OA
ATOM     24  N   UNL     1       3.205   5.747  18.587  0.00  0.00    +0.000 N 
ATOM     25  H   UNL     1       2.632   5.682  19.423  0.00  0.00    +0.000 HD
BRANCH  24  26
ATOM     26  C   UNL     1       3.824   4.508  18.123  0.00  0.00    +0.000 C 
ATOM     27  C   UNL     1       4.564   3.750  19.235  0.00  0.00    +0.000 C 
ATOM     28  C   UNL     1       3.803   2.567  19.817  0.00  0.00    +0.000 C 
ATOM     29  C   UNL     1       3.343   1.630  18.712  0.00  0.00    +0.000 C 
ATOM     30  C   UNL     1       2.378   2.354  17.784  0.00  0.00    +0.000 C 
ATOM     31  C   UNL     1       2.968   3.631  17.187  0.00  0.00    +0.000 C 
ENDBRANCH  24  26
ENDBRANCH   4  22
TORSDOF 5
ENDMDL
MODEL 5
REMARK VINA RESULT:      -8.0      3.128      3.936
REMARK  Name = 
REMARK  7 active torsions:
REMARK  status: ('A' for Active; 'I' for Inactive)
REMARK    1  A    between atoms: C_1  and  C_2
REMARK    2  A    between atoms: C_4  and  C_5
REMARK    3  A    between atoms: N_7  and  C_8
REMARK    4  A    between atoms: C_15  and  C_16
REMARK    5  A    between atoms: C_16  and  C_17
REMARK    6  A    between atoms: C_19  and  C_20
REMARK    7  A    between atoms: C_24  and  N_25
REMARK                            x       y       z     vdW  Elec       q    Type
REMARK                         _______ _______ _______ _____ _____    ______ ____
ROOT
ATOM      1  C   UNL     1       0.327   9.392  22.887  0.00  0.00    +0.000 C 
ATOM      2  C   UNL     1       0.825   9.238  21.495  0.00  0.00    +0.000 A 
ATOM      3  N   UNL     1       1.386   8.021  21.097  0.00  0.00    +0.000 NA
ATOM      4  C   UNL     1       1.758   8.074  19.826  0.00  0.00    +0.000 A 
ATOM      5  S   UNL     1       1.392   9.543  19.031  0.00  0.00    +0.000 S 
ATOM      6  C   UNL     1       0.802  10.223  20.525  0.00  0.00    +0.000 A 
ENDROOT
BRANCH   6   7
ATOM      7  C   UNL     1       0.333  11.677  20.576  0.00  0.00    +0.000 C 
ATOM      8  C   UNL     1       0.506  12.282  19.172  0.00  0.00    +0.000 C 
ATOM      9  C   UNL     1      -0.960  11.753  21.393  0.00  0.00    +0.000 C 
ATOM     10  C   UNL     1      -0.740  13.004  22.189  0.00  0.00    +0.000 C 
ATOM     11  N   UNL     1       0.459  13.479  22.083  0.00  0.00    +0.000 NA
ATOM     12  O   UNL     1       1.225  12.498  21.381  0.00  0.00    +0.000 OA
BRANCH  10  13
ATOM     13  C   UNL     1      -1.711  13.511  23.210  0.00  0.00    +0.000 A 
ATOM     14  C   UNL     1      -1.321  14.608  23.999  0.00  0.00    +0.000 A 
ATOM     15  C   UNL     1      -2.252  15.310  24.773  0.00  0.00    +0.000 A 
ATOM     16  C   UNL     1      -3.581  14.909  24.802  0.00  0.00    +0.000 A 
ATOM     17  C   UNL     1      -3.971  13.797  24.054  0.00  0.00    +0.000 A 
ATOM     18  C   UNL     1      -3.053  13.097  23.238  0.00  0.00    +0.000 A 
BRANCH  17  19
ATOM     19  N   UNL     1      -5.397  13.397  24.094  0.00  0.00    +0.000 N 
ATOM     20  O   UNL     1      -5.658  12.228  24.421  0.00  0.00    +0.000 OA
ATOM     21  O   UNL     1      -6.233  14.241  23.778  0.00  0.00    +0.000 OA
ENDBRANCH  17  19
ENDBRANCH  10  13
ENDBRANCH   6   7
BRANCH   4  22
ATOM     22  C   UNL     1       2.459   6.961  19.143  0.00  0.00    +0.000 C 
ATOM     23  O   UNL     1       2.839   6.975  17.974  0.00  0.00    +0.000 OA
ATOM     24  N   UNL     1       2.648   5.875  19.974  0.00  0.00    +0.000 N 
ATOM     25  H   UNL     1       2.230   6.002  20.891  0.00  0.00    +0.000 HD
BRANCH  24  26
ATOM     26  C   UNL     1       3.222   4.561  19.695  0.00  0.00    +0.000 C 
ATOM     27  C   UNL     1       2.269   3.635  18.927  0.00  0.00    +0.000 C 
ATOM     28  C   UNL     1       2.551   3.523  17.435  0.00  0.00    +0.000 C 
ATOM     29  C   UNL     1       4.006   3.156  17.191  0.00  0.00    +0.000 C 
ATOM     30  C   UNL     1       4.916   4.252  17.724  0.00  0.00    +0.000 C 
ATOM     31  C   UNL     1       4.685   4.552  19.206  0.00  0.00    +0.000 C 
ENDBRANCH  24  26
ENDBRANCH   4  22
TORSDOF 5
ENDMDL
MODEL 6
REMARK VINA RESULT:      -8.0      2.414      2.944
REMARK  Name = 
REMARK  7 active torsions:
REMARK  status: ('A' for Active; 'I' for Inactive)
REMARK    1  A    between atoms: C_1  and  C_2
REMARK    2  A    between atoms: C_4  and  C_5
REMARK    3  A    between atoms: N_7  and  C_8
REMARK    4  A    between atoms: C_15  and  C_16
REMARK    5  A    between atoms: C_16  and  C_17
REMARK    6  A    between atoms: C_19  and  C_20
REMARK    7  A    between atoms: C_24  and  N_25
REMARK                            x       y       z     vdW  Elec       q    Type
REMARK                         _______ _______ _______ _____ _____    ______ ____
ROOT
ATOM      1  C   UNL     1      -0.020   9.365  22.743  0.00  0.00    +0.000 C 
ATOM      2  C   UNL     1       0.595   9.293  21.392  0.00  0.00    +0.000 A 
ATOM      3  N   UNL     1       1.210   8.109  20.979  0.00  0.00    +0.000 NA
ATOM      4  C   UNL     1       1.686   8.236  19.749  0.00  0.00    +0.000 A 
ATOM      5  S   UNL     1       1.358   9.740  19.004  0.00  0.00    +0.000 S 
ATOM      6  C   UNL     1       0.633  10.329  20.477  0.00  0.00    +0.000 A 
ENDROOT
BRANCH   6   7
ATOM      7  C   UNL     1       0.134  11.771  20.565  0.00  0.00    +0.000 C 
ATOM      8  C   UNL     1       1.141  12.670  19.827  0.00  0.00    +0.000 C 
ATOM      9  C   UNL     1      -1.378  11.788  20.317  0.00  0.00    +0.000 C 
ATOM     10  C   UNL     1      -1.838  12.784  21.338  0.00  0.00    +0.000 C 
ATOM     11  N   UNL     1      -0.912  13.141  22.168  0.00  0.00    +0.000 NA
ATOM     12  O   UNL     1       0.202  12.278  21.927  0.00  0.00    +0.000 OA
BRANCH  10  13
ATOM     13  C   UNL     1      -3.278  13.136  21.554  0.00  0.00    +0.000 A 
ATOM     14  C   UNL     1      -4.031  13.537  20.436  0.00  0.00    +0.000 A 
ATOM     15  C   UNL     1      -5.427  13.617  20.493  0.00  0.00    +0.000 A 
ATOM     16  C   UNL     1      -6.095  13.332  21.677  0.00  0.00    +0.000 A 
ATOM     17  C   UNL     1      -5.355  12.972  22.805  0.00  0.00    +0.000 A 
ATOM     18  C   UNL     1      -3.947  12.851  22.756  0.00  0.00    +0.000 A 
BRANCH  17  19
ATOM     19  N   UNL     1      -6.093  12.663  24.051  0.00  0.00    +0.000 N 
ATOM     20  O   UNL     1      -5.516  11.969  24.905  0.00  0.00    +0.000 OA
ATOM     21  O   UNL     1      -7.240  13.091  24.155  0.00  0.00    +0.000 OA
ENDBRANCH  17  19
ENDBRANCH  10  13
ENDBRANCH   6   7
BRANCH   4  22
ATOM     22  C   UNL     1       2.462   7.172  19.069  0.00  0.00    +0.000 C 
ATOM     23  O   UNL     1       2.761   7.166  17.876  0.00  0.00    +0.000 OA
ATOM     24  N   UNL     1       2.827   6.159  19.933  0.00  0.00    +0.000 N 
ATOM     25  H   UNL     1       2.459   6.288  20.871  0.00  0.00    +0.000 HD
BRANCH  24  26
ATOM     26  C   UNL     1       3.528   4.904  19.675  0.00  0.00    +0.000 C 
ATOM     27  C   UNL     1       2.655   3.859  18.966  0.00  0.00    +0.000 C 
ATOM     28  C   UNL     1       2.903   3.729  17.469  0.00  0.00    +0.000 C 
ATOM     29  C   UNL     1       4.380   3.506  17.188  0.00  0.00    +0.000 C 
ATOM     30  C   UNL     1       5.186   4.708  17.659  0.00  0.00    +0.000 C 
ATOM     31  C   UNL     1       4.968   5.031  19.137  0.00  0.00    +0.000 C 
ENDBRANCH  24  26
ENDBRANCH   4  22
TORSDOF 5
ENDMDL
MODEL 7
REMARK VINA RESULT:      -7.9      3.101      3.547
REMARK  Name = 
REMARK  7 active torsions:
REMARK  status: ('A' for Active; 'I' for Inactive)
REMARK    1  A    between atoms: C_1  and  C_2
REMARK    2  A    between atoms: C_4  and  C_5
REMARK    3  A    between atoms: N_7  and  C_8
REMARK    4  A    between atoms: C_15  and  C_16
REMARK    5  A    between atoms: C_16  and  C_17
REMARK    6  A    between atoms: C_19  and  C_20
REMARK    7  A    between atoms: C_24  and  N_25
REMARK                            x       y       z     vdW  Elec       q    Type
REMARK                         _______ _______ _______ _____ _____    ______ ____
ROOT
ATOM      1  C   UNL     1       0.156   9.429  22.897  0.00  0.00    +0.000 C 
ATOM      2  C   UNL     1       0.763   9.038  21.597  0.00  0.00    +0.000 A 
ATOM      3  N   UNL     1       1.203   7.726  21.412  0.00  0.00    +0.000 NA
ATOM      4  C   UNL     1       1.700   7.568  20.194  0.00  0.00    +0.000 A 
ATOM      5  S   UNL     1       1.597   8.951  19.193  0.00  0.00    +0.000 S 
ATOM      6  C   UNL     1       0.956   9.884  20.520  0.00  0.00    +0.000 A 
ENDROOT
BRANCH   6   7
ATOM      7  C   UNL     1       0.669  11.374  20.345  0.00  0.00    +0.000 C 
ATOM      8  C   UNL     1       1.393  11.852  19.074  0.00  0.00    +0.000 C 
ATOM      9  C   UNL     1      -0.812  11.633  20.641  0.00  0.00    +0.000 C 
ATOM     10  C   UNL     1      -0.745  12.914  21.415  0.00  0.00    +0.000 C 
ATOM     11  N   UNL     1       0.459  13.267  21.728  0.00  0.00    +0.000 NA
ATOM     12  O   UNL     1       1.306  12.168  21.385  0.00  0.00    +0.000 OA
BRANCH  10  13
ATOM     13  C   UNL     1      -1.949  13.586  22.000  0.00  0.00    +0.000 A 
ATOM     14  C   UNL     1      -2.295  14.858  21.509  0.00  0.00    +0.000 A 
ATOM     15  C   UNL     1      -3.539  15.431  21.795  0.00  0.00    +0.000 A 
ATOM     16  C   UNL     1      -4.447  14.761  22.605  0.00  0.00    +0.000 A 
ATOM     17  C   UNL     1      -4.098  13.516  23.131  0.00  0.00    +0.000 A 
ATOM     18  C   UNL     1      -2.861  12.905  22.823  0.00  0.00    +0.000 A 
BRANCH  17  19
ATOM     19  N   UNL     1      -5.090  12.818  23.983  0.00  0.00    +0.000 N 
ATOM     20  O   UNL     1      -4.676  11.904  24.715  0.00  0.00    +0.000 OA
ATOM     21  O   UNL     1      -6.264  13.170  23.894  0.00  0.00    +0.000 OA
ENDBRANCH  17  19
ENDBRANCH  10  13
ENDBRANCH   6   7
BRANCH   4  22
ATOM     22  C   UNL     1       2.319   6.305  19.731  0.00  0.00    +0.000 C 
ATOM     23  O   UNL     1       3.360   6.222  19.080  0.00  0.00    +0.000 OA
ATOM     24  N   UNL     1       1.591   5.196  20.111  0.00  0.00    +0.000 N 
ATOM     25  H   UNL     1       0.731   5.436  20.596  0.00  0.00    +0.000 HD
BRANCH  24  26
ATOM     26  C   UNL     1       1.798   3.781  19.813  0.00  0.00    +0.000 C 
ATOM     27  C   UNL     1       1.376   3.396  18.388  0.00  0.00    +0.000 C 
ATOM     28  C   UNL     1       2.523   3.261  17.396  0.00  0.00    +0.000 C 
ATOM     29  C   UNL     1       3.590   2.323  17.936  0.00  0.00    +0.000 C 
ATOM     30  C   UNL     1       4.186   2.894  19.214  0.00  0.00    +0.000 C 
ATOM     31  C   UNL     1       3.135   3.178  20.288  0.00  0.00    +0.000 C 
ENDBRANCH  24  26
ENDBRANCH   4  22
TORSDOF 5
ENDMDL
MODEL 8
REMARK VINA RESULT:      -7.9      1.121      1.561
REMARK  Name = 
REMARK  7 active torsions:
REMARK  status: ('A' for Active; 'I' for Inactive)
REMARK    1  A    between atoms: C_1  and  C_2
REMARK    2  A    between atoms: C_4  and  C_5
REMARK    3  A    between atoms: N_7  and  C_8
REMARK    4  A    between atoms: C_15  and  C_16
REMARK    5  A    between atoms: C_16  and  C_17
REMARK    6  A    between atoms: C_19  and  C_20
REMARK    7  A    between atoms: C_24  and  N_25
REMARK                            x       y       z     vdW  Elec       q    Type
REMARK                         _______ _______ _______ _____ _____    ______ ____
ROOT
ATOM      1  C   UNL     1       0.740   8.360  21.633  0.00  0.00    +0.000 C 
ATOM      2  C   UNL     1       1.365   8.399  20.284  0.00  0.00    +0.000 A 
ATOM      3  N   UNL     1       2.158   7.329  19.863  0.00  0.00    +0.000 NA
ATOM      4  C   UNL     1       2.614   7.540  18.637  0.00  0.00    +0.000 A 
ATOM      5  S   UNL     1       2.060   8.983  17.905  0.00  0.00    +0.000 S 
ATOM      6  C   UNL     1       1.246   9.438  19.379  0.00  0.00    +0.000 A 
ENDROOT
BRANCH   6   7
ATOM      7  C   UNL     1       0.529  10.784  19.479  0.00  0.00    +0.000 C 
ATOM      8  C   UNL     1       1.595  11.879  19.653  0.00  0.00    +0.000 C 
ATOM      9  C   UNL     1      -0.589  10.829  18.432  0.00  0.00    +0.000 C 
ATOM     10  C   UNL     1      -1.694  11.488  19.201  0.00  0.00    +0.000 C 
ATOM     11  N   UNL     1      -1.437  11.624  20.462  0.00  0.00    +0.000 NA
ATOM     12  O   UNL     1      -0.235  10.892  20.712  0.00  0.00    +0.000 OA
BRANCH  10  13
ATOM     13  C   UNL     1      -3.060  11.727  18.636  0.00  0.00    +0.000 A 
ATOM     14  C   UNL     1      -3.327  11.252  17.340  0.00  0.00    +0.000 A 
ATOM     15  C   UNL     1      -4.635  11.187  16.848  0.00  0.00    +0.000 A 
ATOM     16  C   UNL     1      -5.697  11.628  17.626  0.00  0.00    +0.000 A 
ATOM     17  C   UNL     1      -5.440  12.139  18.899  0.00  0.00    +0.000 A 
ATOM     18  C   UNL     1      -4.130  12.178  19.427  0.00  0.00    +0.000 A 
BRANCH  17  19
ATOM     19  N   UNL     1      -6.593  12.591  19.713  0.00  0.00    +0.000 N 
ATOM     20  O   UNL     1      -6.350  13.254  20.735  0.00  0.00    +0.000 OA
ATOM     21  O   UNL     1      -7.716  12.263  19.340  0.00  0.00    +0.000 OA
ENDBRANCH  17  19
ENDBRANCH  10  13
ENDBRANCH   6   7
BRANCH   4  22
ATOM     22  C   UNL     1       3.548   6.617  17.952  0.00  0.00    +0.000 C 
ATOM     23  O   UNL     1       3.508   5.390  18.018  0.00  0.00    +0.000 OA
ATOM     24  N   UNL     1       4.499   7.291  17.211  0.00  0.00    +0.000 N 
ATOM     25  H   UNL     1       4.428   8.300  17.303  0.00  0.00    +0.000 HD
BRANCH  24  26
ATOM     26  C   UNL     1       5.634   6.784  16.446  0.00  0.00    +0.000 C 
ATOM     27  C   UNL     1       6.849   6.444  17.322  0.00  0.00    +0.000 C 
ATOM     28  C   UNL     1       7.026   4.962  17.622  0.00  0.00    +0.000 C 
ATOM     29  C   UNL     1       7.020   4.151  16.337  0.00  0.00    +0.000 C 
ATOM     30  C   UNL     1       5.676   4.295  15.637  0.00  0.00    +0.000 C 
ATOM     31  C   UNL     1       5.306   5.751  15.350  0.00  0.00    +0.000 C 
ENDBRANCH  24  26
ENDBRANCH   4  22
TORSDOF 5
ENDMDL
MODEL 9
REMARK VINA RESULT:      -7.9      1.644      2.002
REMARK  Name = 
REMARK  7 active torsions:
REMARK  status: ('A' for Active; 'I' for Inactive)
REMARK    1  A    between atoms: C_1  and  C_2
REMARK    2  A    between atoms: C_4  and  C_5
REMARK    3  A    between atoms: N_7  and  C_8
REMARK    4  A    between atoms: C_15  and  C_16
REMARK    5  A    between atoms: C_16  and  C_17
REMARK    6  A    between atoms: C_19  and  C_20
REMARK    7  A    between atoms: C_24  and  N_25
REMARK                            x       y       z     vdW  Elec       q    Type
REMARK                         _______ _______ _______ _____ _____    ______ ____
ROOT
ATOM      1  C   UNL     1       0.307   8.801  22.309  0.00  0.00    +0.000 C 
ATOM      2  C   UNL     1       1.027   8.401  21.071  0.00  0.00    +0.000 A 
ATOM      3  N   UNL     1       1.642   7.149  21.008  0.00  0.00    +0.000 NA
ATOM      4  C   UNL     1       2.218   6.972  19.827  0.00  0.00    +0.000 A 
ATOM      5  S   UNL     1       1.988   8.253  18.718  0.00  0.00    +0.000 S 
ATOM      6  C   UNL     1       1.164   9.185  19.940  0.00  0.00    +0.000 A 
ENDROOT
BRANCH   6   7
ATOM      7  C   UNL     1       0.696  10.608  19.637  0.00  0.00    +0.000 C 
ATOM      8  C   UNL     1       1.539  11.148  18.469  0.00  0.00    +0.000 C 
ATOM      9  C   UNL     1      -0.835  10.647  19.684  0.00  0.00    +0.000 C 
ATOM     10  C   UNL     1      -1.080  11.950  20.384  0.00  0.00    +0.000 C 
ATOM     11  N   UNL     1      -0.007  12.492  20.860  0.00  0.00    +0.000 NA
ATOM     12  O   UNL     1       1.035  11.524  20.716  0.00  0.00    +0.000 OA
BRANCH  10  13
ATOM     13  C   UNL     1      -2.448  12.450  20.736  0.00  0.00    +0.000 A 
ATOM     14  C   UNL     1      -3.410  12.504  19.712  0.00  0.00    +0.000 A 
ATOM     15  C   UNL     1      -4.766  12.693  20.002  0.00  0.00    +0.000 A 
ATOM     16  C   UNL     1      -5.182  12.866  21.316  0.00  0.00    +0.000 A 
ATOM     17  C   UNL     1      -4.230  12.855  22.337  0.00  0.00    +0.000 A 
ATOM     18  C   UNL     1      -2.861  12.629  22.066  0.00  0.00    +0.000 A 
BRANCH  17  19
ATOM     19  N   UNL     1      -4.702  13.031  23.730  0.00  0.00    +0.000 N 
ATOM     20  O   UNL     1      -5.929  13.054  23.923  0.00  0.00    +0.000 OA
ATOM     21  O   UNL     1      -3.851  13.166  24.606  0.00  0.00    +0.000 OA
ENDBRANCH  17  19
ENDBRANCH  10  13
ENDBRANCH   6   7
BRANCH   4  22
ATOM     22  C   UNL     1       3.018   5.772  19.491  0.00  0.00    +0.000 C 
ATOM     23  O   UNL     1       2.797   4.634  19.902  0.00  0.00    +0.000 OA
ATOM     24  N   UNL     1       4.069   6.065  18.645  0.00  0.00    +0.000 N 
ATOM     25  H   UNL     1       4.146   7.057  18.440  0.00  0.00    +0.000 HD
BRANCH  24  26
ATOM     26  C   UNL     1       5.132   5.208  18.126  0.00  0.00    +0.000 C 
ATOM     27  C   UNL     1       4.784   4.565  16.776  0.00  0.00    +0.000 C 
ATOM     28  C   UNL     1       5.416   5.238  15.565  0.00  0.00    +0.000 C 
ATOM     29  C   UNL     1       6.919   5.370  15.751  0.00  0.00    +0.000 C 
ATOM     30  C   UNL     1       7.220   6.259  16.949  0.00  0.00    +0.000 C 
ATOM     31  C   UNL     1       6.566   5.763  18.239  0.00  0.00    +0.000 C 
ENDBRANCH  24  26
ENDBRANCH   4  22
TORSDOF 5
ENDMDL
