MODEL 1
REMARK VINA RESULT:      -8.9      0.000      0.000
REMARK  Name = 
REMARK  6 active torsions:
REMARK  status: ('A' for Active; 'I' for Inactive)
REMARK    1  A    between atoms: C_1  and  C_2
REMARK    2  A    between atoms: C_2  and  C_3
REMARK    3  A    between atoms: C_6  and  C_7
REMARK    4  A    between atoms: C_7  and  N_8
REMARK    5  A    between atoms: C_17  and  C_18
REMARK    6  A    between atoms: N_20  and  C_21
REMARK                            x       y       z     vdW  Elec       q    Type
REMARK                         _______ _______ _______ _____ _____    ______ ____
ROOT
ATOM      1  N   UNL     1       4.485   5.391  18.307  0.00  0.00    +0.000 N 
ATOM      2  C   UNL     1       4.711   4.447  19.259  0.00  0.00    +0.000 C 
ATOM      3  O   UNL     1       5.781   4.049  19.690  0.00  0.00    +0.000 OA
ATOM      4  C   UNL     1       3.395   3.904  19.657  0.00  0.00    +0.000 A 
ATOM      5  C   UNL     1       3.144   2.961  20.623  0.00  0.00    +0.000 A 
ATOM      6  C   UNL     1       1.833   2.521  20.750  0.00  0.00    +0.000 A 
ATOM      7  C   UNL     1       0.834   3.038  19.883  0.00  0.00    +0.000 A 
ATOM      8  C   UNL     1       1.098   4.072  18.965  0.00  0.00    +0.000 A 
ATOM      9  C   UNL     1       2.392   4.564  18.894  0.00  0.00    +0.000 A 
ATOM     10  C   UNL     1       3.072   5.803  18.347  0.00  0.00    +0.000 C 
ENDROOT
BRANCH  10  11
ATOM     11  C   UNL     1       2.807   7.310  18.079  0.00  0.00    +0.000 C 
ATOM     12  O   UNL     1       3.215   7.935  17.108  0.00  0.00    +0.000 OA
ATOM     13  N   UNL     1       2.044   7.879  19.131  0.00  0.00    +0.000 N 
ATOM     14  H   UNL     1       1.704   7.230  19.832  0.00  0.00    +0.000 HD
BRANCH  13  15
ATOM     15  C   UNL     1       1.731   9.296  19.391  0.00  0.00    +0.000 C 
ATOM     16  C   UNL     1       1.158   9.990  18.155  0.00  0.00    +0.000 C 
ATOM     17  C   UNL     1      -0.355   9.976  17.974  0.00  0.00    +0.000 C 
ATOM     18  C   UNL     1      -1.043  11.083  18.761  0.00  0.00    +0.000 C 
ATOM     19  C   UNL     1      -1.288  10.708  20.210  0.00  0.00    +0.000 C 
ATOM     20  C   UNL     1      -0.030  10.521  21.052  0.00  0.00    +0.000 C 
ATOM     21  C   UNL     1       0.926   9.370  20.720  0.00  0.00    +0.000 C 
ENDBRANCH  13  15
ENDBRANCH  10  11
BRANCH   1  22
ATOM     22  C   UNL     1       5.516   5.926  17.417  0.00  0.00    +0.000 C 
BRANCH  22  26
ATOM     23  C   UNL     1       6.405   4.079  13.548  0.00  0.00    +0.000 A 
ATOM     24  C   UNL     1       7.343   4.865  14.216  0.00  0.00    +0.000 A 
ATOM     25  C   UNL     1       7.039   5.420  15.474  0.00  0.00    +0.000 A 
ATOM     26  C   UNL     1       5.792   5.214  16.105  0.00  0.00    +0.000 A 
ATOM     27  C   UNL     1       4.922   4.303  15.502  0.00  0.00    +0.000 A 
ATOM     28  C   UNL     1       5.224   3.753  14.242  0.00  0.00    +0.000 A 
BRANCH  23  30
ATOM     29  C   UNL     1       5.683   2.408  11.654  0.00  0.00    +0.000 C 
ATOM     30  C   UNL     1       6.557   3.564  12.131  0.00  0.00    +0.000 C 
ENDBRANCH  23  30
ENDBRANCH  22  26
ENDBRANCH   1  22
TORSDOF 5
ENDMDL
MODEL 2
REMARK VINA RESULT:      -8.9      0.503      1.019
REMARK  Name = 
REMARK  6 active torsions:
REMARK  status: ('A' for Active; 'I' for Inactive)
REMARK    1  A    between atoms: C_1  and  C_2
REMARK    2  A    between atoms: C_2  and  C_3
REMARK    3  A    between atoms: C_6  and  C_7
REMARK    4  A    between atoms: C_7  and  N_8
REMARK    5  A    between atoms: C_17  and  C_18
REMARK    6  A    between atoms: N_20  and  C_21
REMARK                            x       y       z     vdW  Elec       q    Type
REMARK                         _______ _______ _______ _____ _____    ______ ____
ROOT
ATOM      1  N   UNL     1       4.624   4.911  18.257  0.00  0.00    +0.000 N 
ATOM      2  C   UNL     1       4.628   3.888  19.153  0.00  0.00    +0.000 C 
ATOM      3  O   UNL     1       5.586   3.362  19.695  0.00  0.00    +0.000 OA
ATOM      4  C   UNL     1       3.226   3.449  19.321  0.00  0.00    +0.000 A 
ATOM      5  C   UNL     1       2.758   2.472  20.165  0.00  0.00    +0.000 A 
ATOM      6  C   UNL     1       1.410   2.152  20.074  0.00  0.00    +0.000 A 
ATOM      7  C   UNL     1       0.595   2.819  19.121  0.00  0.00    +0.000 A 
ATOM      8  C   UNL     1       1.077   3.881  18.333  0.00  0.00    +0.000 A 
ATOM      9  C   UNL     1       2.404   4.251  18.482  0.00  0.00    +0.000 A 
ATOM     10  C   UNL     1       3.260   5.453  18.134  0.00  0.00    +0.000 C 
ENDROOT
BRANCH  10  11
ATOM     11  C   UNL     1       3.167   6.993  17.953  0.00  0.00    +0.000 C 
ATOM     12  O   UNL     1       3.843   7.652  17.172  0.00  0.00    +0.000 OA
ATOM     13  N   UNL     1       2.203   7.543  18.836  0.00  0.00    +0.000 N 
ATOM     14  H   UNL     1       1.659   6.875  19.369  0.00  0.00    +0.000 HD
BRANCH  13  15
ATOM     15  C   UNL     1       1.926   8.958  19.144  0.00  0.00    +0.000 C 
ATOM     16  C   UNL     1       1.288   9.686  17.961  0.00  0.00    +0.000 C 
ATOM     17  C   UNL     1      -0.232   9.695  17.872  0.00  0.00    +0.000 C 
ATOM     18  C   UNL     1      -0.856  10.793  18.723  0.00  0.00    +0.000 C 
ATOM     19  C   UNL     1      -1.018  10.390  20.176  0.00  0.00    +0.000 C 
ATOM     20  C   UNL     1       0.287  10.168  20.935  0.00  0.00    +0.000 C 
ATOM     21  C   UNL     1       1.204   9.013  20.521  0.00  0.00    +0.000 C 
ENDBRANCH  13  15
ENDBRANCH  10  11
BRANCH   1  22
ATOM     22  C   UNL     1       5.815   5.402  17.564  0.00  0.00    +0.000 C 
BRANCH  22  26
ATOM     23  C   UNL     1       6.351   4.035  13.439  0.00  0.00    +0.000 A 
ATOM     24  C   UNL     1       5.133   3.895  14.103  0.00  0.00    +0.000 A 
ATOM     25  C   UNL     1       4.983   4.374  15.419  0.00  0.00    +0.000 A 
ATOM     26  C   UNL     1       6.038   5.000  16.116  0.00  0.00    +0.000 A 
ATOM     27  C   UNL     1       7.201   5.272  15.391  0.00  0.00    +0.000 A 
ATOM     28  C   UNL     1       7.353   4.789  14.078  0.00  0.00    +0.000 A 
BRANCH  23  30
ATOM     29  C   UNL     1       5.802   2.301  11.542  0.00  0.00    +0.000 C 
ATOM     30  C   UNL     1       6.679   3.422  12.092  0.00  0.00    +0.000 C 
ENDBRANCH  23  30
ENDBRANCH  22  26
ENDBRANCH   1  22
TORSDOF 5
ENDMDL
MODEL 3
REMARK VINA RESULT:      -8.6      0.997      1.179
REMARK  Name = 
REMARK  6 active torsions:
REMARK  status: ('A' for Active; 'I' for Inactive)
REMARK    1  A    between atoms: C_1  and  C_2
REMARK    2  A    between atoms: C_2  and  C_3
REMARK    3  A    between atoms: C_6  and  C_7
REMARK    4  A    between atoms: C_7  and  N_8
REMARK    5  A    between atoms: C_17  and  C_18
REMARK    6  A    between atoms: N_20  and  C_21
REMARK                            x       y       z     vdW  Elec       q    Type
REMARK                         _______ _______ _______ _____ _____    ______ ____
ROOT
ATOM      1  N   UNL     1       4.036   5.592  18.767  0.00  0.00    +0.000 N 
ATOM      2  C   UNL     1       4.481   4.527  19.487  0.00  0.00    +0.000 C 
ATOM      3  O   UNL     1       5.621   4.102  19.581  0.00  0.00    +0.000 OA
ATOM      4  C   UNL     1       3.298   3.894  20.107  0.00  0.00    +0.000 A 
ATOM      5  C   UNL     1       3.284   2.814  20.955  0.00  0.00    +0.000 A 
ATOM      6  C   UNL     1       2.040   2.322  21.330  0.00  0.00    +0.000 A 
ATOM      7  C   UNL     1       0.863   2.930  20.818  0.00  0.00    +0.000 A 
ATOM      8  C   UNL     1       0.903   4.093  20.026  0.00  0.00    +0.000 A 
ATOM      9  C   UNL     1       2.144   4.628  19.717  0.00  0.00    +0.000 A 
ATOM     10  C   UNL     1       2.679   5.953  19.210  0.00  0.00    +0.000 C 
ENDROOT
BRANCH  10  11
ATOM     11  C   UNL     1       2.368   7.474  19.240  0.00  0.00    +0.000 C 
ATOM     12  O   UNL     1       2.539   8.246  18.304  0.00  0.00    +0.000 OA
ATOM     13  N   UNL     1       1.879   7.860  20.514  0.00  0.00    +0.000 N 
ATOM     14  H   UNL     1       1.710   7.106  21.170  0.00  0.00    +0.000 HD
BRANCH  13  15
ATOM     15  C   UNL     1       1.645   9.214  21.049  0.00  0.00    +0.000 C 
ATOM     16  C   UNL     1       1.069  10.154  19.990  0.00  0.00    +0.000 C 
ATOM     17  C   UNL     1      -0.447  10.240  19.869  0.00  0.00    +0.000 C 
ATOM     18  C   UNL     1      -1.055  11.206  20.878  0.00  0.00    +0.000 C 
ATOM     19  C   UNL     1      -1.272  10.574  22.239  0.00  0.00    +0.000 C 
ATOM     20  C   UNL     1       0.000  10.175  22.980  0.00  0.00    +0.000 C 
ATOM     21  C   UNL     1       0.887   9.069  22.398  0.00  0.00    +0.000 C 
ENDBRANCH  13  15
ENDBRANCH  10  11
BRANCH   1  22
ATOM     22  C   UNL     1       4.823   6.279  17.743  0.00  0.00    +0.000 C 
BRANCH  22  26
ATOM     23  C   UNL     1       6.226   4.232  14.136  0.00  0.00    +0.000 A 
ATOM     24  C   UNL     1       7.046   5.110  14.844  0.00  0.00    +0.000 A 
ATOM     25  C   UNL     1       6.577   5.728  16.019  0.00  0.00    +0.000 A 
ATOM     26  C   UNL     1       5.278   5.499  16.523  0.00  0.00    +0.000 A 
ATOM     27  C   UNL     1       4.524   4.505  15.894  0.00  0.00    +0.000 A 
ATOM     28  C   UNL     1       4.990   3.891  14.717  0.00  0.00    +0.000 A 
BRANCH  23  30
ATOM     29  C   UNL     1       5.435   3.120  11.891  0.00  0.00    +0.000 C 
ATOM     30  C   UNL     1       6.560   3.635  12.784  0.00  0.00    +0.000 C 
ENDBRANCH  23  30
ENDBRANCH  22  26
ENDBRANCH   1  22
TORSDOF 5
ENDMDL
MODEL 4
REMARK VINA RESULT:      -8.4      1.227      1.524
REMARK  Name = 
REMARK  6 active torsions:
REMARK  status: ('A' for Active; 'I' for Inactive)
REMARK    1  A    between atoms: C_1  and  C_2
REMARK    2  A    between atoms: C_2  and  C_3
REMARK    3  A    between atoms: C_6  and  C_7
REMARK    4  A    between atoms: C_7  and  N_8
REMARK    5  A    between atoms: C_17  and  C_18
REMARK    6  A    between atoms: N_20  and  C_21
REMARK                            x       y       z     vdW  Elec       q    Type
REMARK                         _______ _______ _______ _____ _____    ______ ____
ROOT
ATOM      1  N   UNL     1       3.929   5.667  18.797  0.00  0.00    +0.000 N 
ATOM      2  C   UNL     1       4.423   4.608  19.492  0.00  0.00    +0.000 C 
ATOM      3  O   UNL     1       5.574   4.208  19.543  0.00  0.00    +0.000 OA
ATOM      4  C   UNL     1       3.277   3.944  20.150  0.00  0.00    +0.000 A 
ATOM      5  C   UNL     1       3.317   2.859  20.989  0.00  0.00    +0.000 A 
ATOM      6  C   UNL     1       2.099   2.337  21.405  0.00  0.00    +0.000 A 
ATOM      7  C   UNL     1       0.891   2.921  20.939  0.00  0.00    +0.000 A 
ATOM      8  C   UNL     1       0.877   4.090  20.154  0.00  0.00    +0.000 A 
ATOM      9  C   UNL     1       2.094   4.654  19.805  0.00  0.00    +0.000 A 
ATOM     10  C   UNL     1       2.581   5.994  19.290  0.00  0.00    +0.000 C 
ENDROOT
BRANCH  10  11
ATOM     11  C   UNL     1       2.237   7.508  19.341  0.00  0.00    +0.000 C 
ATOM     12  O   UNL     1       2.174   8.182  20.363  0.00  0.00    +0.000 OA
ATOM     13  N   UNL     1       1.980   8.008  18.038  0.00  0.00    +0.000 N 
ATOM     14  H   UNL     1       2.147   7.361  17.276  0.00  0.00    +0.000 HD
BRANCH  13  15
ATOM     15  C   UNL     1       1.434   9.316  17.637  0.00  0.00    +0.000 C 
ATOM     16  C   UNL     1      -0.036   9.466  18.029  0.00  0.00    +0.000 C 
ATOM     17  C   UNL     1      -0.347  10.066  19.394  0.00  0.00    +0.000 C 
ATOM     18  C   UNL     1      -0.325  11.589  19.377  0.00  0.00    +0.000 C 
ATOM     19  C   UNL     1       1.072  12.159  19.526  0.00  0.00    +0.000 C 
ATOM     20  C   UNL     1       2.021  11.862  18.368  0.00  0.00    +0.000 C 
ATOM     21  C   UNL     1       2.436  10.413  18.097  0.00  0.00    +0.000 C 
ENDBRANCH  13  15
ENDBRANCH  10  11
BRANCH   1  22
ATOM     22  C   UNL     1       4.663   6.379  17.750  0.00  0.00    +0.000 C 
BRANCH  22  26
ATOM     23  C   UNL     1       6.217   4.326  14.208  0.00  0.00    +0.000 A 
ATOM     24  C   UNL     1       6.900   5.390  14.796  0.00  0.00    +0.000 A 
ATOM     25  C   UNL     1       6.391   6.009  15.953  0.00  0.00    +0.000 A 
ATOM     26  C   UNL     1       5.185   5.594  16.559  0.00  0.00    +0.000 A 
ATOM     27  C   UNL     1       4.592   4.434  16.056  0.00  0.00    +0.000 A 
ATOM     28  C   UNL     1       5.098   3.819  14.896  0.00  0.00    +0.000 A 
BRANCH  23  30
ATOM     29  C   UNL     1       5.472   3.174  11.968  0.00  0.00    +0.000 C 
ATOM     30  C   UNL     1       6.580   3.689  12.882  0.00  0.00    +0.000 C 
ENDBRANCH  23  30
ENDBRANCH  22  26
ENDBRANCH   1  22
TORSDOF 5
ENDMDL
MODEL 5
REMARK VINA RESULT:      -8.1      2.123      3.465
REMARK  Name = 
REMARK  6 active torsions:
REMARK  status: ('A' for Active; 'I' for Inactive)
REMARK    1  A    between atoms: C_1  and  C_2
REMARK    2  A    between atoms: C_2  and  C_3
REMARK    3  A    between atoms: C_6  and  C_7
REMARK    4  A    between atoms: C_7  and  N_8
REMARK    5  A    between atoms: C_17  and  C_18
REMARK    6  A    between atoms: N_20  and  C_21
REMARK                            x       y       z     vdW  Elec       q    Type
REMARK                         _______ _______ _______ _____ _____    ______ ____
ROOT
ATOM      1  N   UNL     1       4.243   4.890  18.345  0.00  0.00    +0.000 N 
ATOM      2  C   UNL     1       4.519   3.994  19.331  0.00  0.00    +0.000 C 
ATOM      3  O   UNL     1       5.601   3.529  19.648  0.00  0.00    +0.000 OA
ATOM      4  C   UNL     1       3.229   3.603  19.939  0.00  0.00    +0.000 A 
ATOM      5  C   UNL     1       3.036   2.753  20.999  0.00  0.00    +0.000 A 
ATOM      6  C   UNL     1       1.723   2.445  21.331  0.00  0.00    +0.000 A 
ATOM      7  C   UNL     1       0.660   2.993  20.564  0.00  0.00    +0.000 A 
ATOM      8  C   UNL     1       0.881   3.935  19.541  0.00  0.00    +0.000 A 
ATOM      9  C   UNL     1       2.189   4.300  19.264  0.00  0.00    +0.000 A 
ATOM     10  C   UNL     1       2.888   5.432  18.538  0.00  0.00    +0.000 C 
ENDROOT
BRANCH  10  11
ATOM     11  C   UNL     1       2.714   6.936  18.189  0.00  0.00    +0.000 C 
ATOM     12  O   UNL     1       3.120   7.473  17.167  0.00  0.00    +0.000 OA
ATOM     13  N   UNL     1       2.037   7.617  19.235  0.00  0.00    +0.000 N 
ATOM     14  H   UNL     1       1.686   7.035  19.986  0.00  0.00    +0.000 HD
BRANCH  13  15
ATOM     15  C   UNL     1       1.833   9.065  19.420  0.00  0.00    +0.000 C 
ATOM     16  C   UNL     1       1.357   9.743  18.136  0.00  0.00    +0.000 C 
ATOM     17  C   UNL     1      -0.146   9.841  17.902  0.00  0.00    +0.000 C 
ATOM     18  C   UNL     1      -0.766  11.035  18.615  0.00  0.00    +0.000 C 
ATOM     19  C   UNL     1      -1.086  10.750  20.070  0.00  0.00    +0.000 C 
ATOM     20  C   UNL     1       0.126  10.502  20.963  0.00  0.00    +0.000 C 
ATOM     21  C   UNL     1       0.995   9.265  20.715  0.00  0.00    +0.000 C 
ENDBRANCH  13  15
ENDBRANCH  10  11
BRANCH   1  22
ATOM     22  C   UNL     1       5.184   5.267  17.290  0.00  0.00    +0.000 C 
BRANCH  22  26
ATOM     23  C   UNL     1       8.243   8.196  18.402  0.00  0.00    +0.000 A 
ATOM     24  C   UNL     1       8.275   6.887  18.882  0.00  0.00    +0.000 A 
ATOM     25  C   UNL     1       7.294   5.959  18.480  0.00  0.00    +0.000 A 
ATOM     26  C   UNL     1       6.249   6.305  17.596  0.00  0.00    +0.000 A 
ATOM     27  C   UNL     1       6.315   7.568  17.003  0.00  0.00    +0.000 A 
ATOM     28  C   UNL     1       7.292   8.497  17.409  0.00  0.00    +0.000 A 
BRANCH  23  30
ATOM     29  C   UNL     1       9.047  10.691  18.225  0.00  0.00    +0.000 C 
ATOM     30  C   UNL     1       9.142   9.317  18.882  0.00  0.00    +0.000 C 
ENDBRANCH  23  30
ENDBRANCH  22  26
ENDBRANCH   1  22
TORSDOF 5
ENDMDL
MODEL 6
REMARK VINA RESULT:      -8.0      0.894      1.044
REMARK  Name = 
REMARK  6 active torsions:
REMARK  status: ('A' for Active; 'I' for Inactive)
REMARK    1  A    between atoms: C_1  and  C_2
REMARK    2  A    between atoms: C_2  and  C_3
REMARK    3  A    between atoms: C_6  and  C_7
REMARK    4  A    between atoms: C_7  and  N_8
REMARK    5  A    between atoms: C_17  and  C_18
REMARK    6  A    between atoms: N_20  and  C_21
REMARK                            x       y       z     vdW  Elec       q    Type
REMARK                         _______ _______ _______ _____ _____    ______ ____
ROOT
ATOM      1  N   UNL     1       4.615   4.558  18.420  0.00  0.00    +0.000 N 
ATOM      2  C   UNL     1       4.466   3.506  19.268  0.00  0.00    +0.000 C 
ATOM      3  O   UNL     1       5.331   2.888  19.866  0.00  0.00    +0.000 OA
ATOM      4  C   UNL     1       3.026   3.168  19.296  0.00  0.00    +0.000 A 
ATOM      5  C   UNL     1       2.416   2.199  20.054  0.00  0.00    +0.000 A 
ATOM      6  C   UNL     1       1.062   1.985  19.835  0.00  0.00    +0.000 A 
ATOM      7  C   UNL     1       0.384   2.748  18.846  0.00  0.00    +0.000 A 
ATOM      8  C   UNL     1       1.010   3.799  18.149  0.00  0.00    +0.000 A 
ATOM      9  C   UNL     1       2.342   4.061  18.426  0.00  0.00    +0.000 A 
ATOM     10  C   UNL     1       3.310   5.206  18.206  0.00  0.00    +0.000 C 
ENDROOT
BRANCH  10  11
ATOM     11  C   UNL     1       3.345   6.755  18.084  0.00  0.00    +0.000 C 
ATOM     12  O   UNL     1       4.197   7.394  17.479  0.00  0.00    +0.000 OA
ATOM     13  N   UNL     1       2.264   7.337  18.795  0.00  0.00    +0.000 N 
ATOM     14  H   UNL     1       1.589   6.688  19.182  0.00  0.00    +0.000 HD
BRANCH  13  15
ATOM     15  C   UNL     1       2.018   8.755  19.113  0.00  0.00    +0.000 C 
ATOM     16  C   UNL     1       1.421   9.511  17.925  0.00  0.00    +0.000 C 
ATOM     17  C   UNL     1      -0.097   9.560  17.808  0.00  0.00    +0.000 C 
ATOM     18  C   UNL     1      -0.708  10.665  18.659  0.00  0.00    +0.000 C 
ATOM     19  C   UNL     1      -0.908  10.252  20.104  0.00  0.00    +0.000 C 
ATOM     20  C   UNL     1       0.376   9.988  20.886  0.00  0.00    +0.000 C 
ATOM     21  C   UNL     1       1.271   8.815  20.476  0.00  0.00    +0.000 C 
ENDBRANCH  13  15
ENDBRANCH  10  11
BRANCH   1  22
ATOM     22  C   UNL     1       5.895   4.983  17.854  0.00  0.00    +0.000 C 
BRANCH  22  26
ATOM     23  C   UNL     1       6.783   4.352  13.612  0.00  0.00    +0.000 A 
ATOM     24  C   UNL     1       7.624   5.103  14.432  0.00  0.00    +0.000 A 
ATOM     25  C   UNL     1       7.328   5.261  15.800  0.00  0.00    +0.000 A 
ATOM     26  C   UNL     1       6.185   4.684  16.393  0.00  0.00    +0.000 A 
ATOM     27  C   UNL     1       5.436   3.810  15.602  0.00  0.00    +0.000 A 
ATOM     28  C   UNL     1       5.728   3.656  14.234  0.00  0.00    +0.000 A 
BRANCH  23  30
ATOM     29  C   UNL     1       7.571   5.375  11.324  0.00  0.00    +0.000 C 
ATOM     30  C   UNL     1       6.910   4.244  12.106  0.00  0.00    +0.000 C 
ENDBRANCH  23  30
ENDBRANCH  22  26
ENDBRANCH   1  22
TORSDOF 5
ENDMDL
MODEL 7
REMARK VINA RESULT:      -7.9      5.877     10.766
REMARK  Name = 
REMARK  6 active torsions:
REMARK  status: ('A' for Active; 'I' for Inactive)
REMARK    1  A    between atoms: C_1  and  C_2
REMARK    2  A    between atoms: C_2  and  C_3
REMARK    3  A    between atoms: C_6  and  C_7
REMARK    4  A    between atoms: C_7  and  N_8
REMARK    5  A    between atoms: C_17  and  C_18
REMARK    6  A    between atoms: N_20  and  C_21
REMARK                            x       y       z     vdW  Elec       q    Type
REMARK                         _______ _______ _______ _____ _____    ______ ____
ROOT
ATOM      1  N   UNL     1      -0.358  11.818  21.801  0.00  0.00    +0.000 N 
ATOM      2  C   UNL     1      -0.074  10.592  22.316  0.00  0.00    +0.000 C 
ATOM      3  O   UNL     1      -0.199  10.208  23.467  0.00  0.00    +0.000 OA
ATOM      4  C   UNL     1       0.505   9.782  21.222  0.00  0.00    +0.000 A 
ATOM      5  C   UNL     1       0.896   8.468  21.281  0.00  0.00    +0.000 A 
ATOM      6  C   UNL     1       1.517   7.943  20.155  0.00  0.00    +0.000 A 
ATOM      7  C   UNL     1       1.735   8.774  19.024  0.00  0.00    +0.000 A 
ATOM      8  C   UNL     1       1.242  10.091  18.954  0.00  0.00    +0.000 A 
ATOM      9  C   UNL     1       0.554  10.587  20.050  0.00  0.00    +0.000 A 
ATOM     10  C   UNL     1      -0.390  11.739  20.331  0.00  0.00    +0.000 C 
ENDROOT
BRANCH  10  11
ATOM     11  C   UNL     1      -1.470  12.615  19.638  0.00  0.00    +0.000 C 
ATOM     12  O   UNL     1      -1.334  13.795  19.337  0.00  0.00    +0.000 OA
ATOM     13  N   UNL     1      -2.656  11.868  19.419  0.00  0.00    +0.000 N 
ATOM     14  H   UNL     1      -2.604  10.881  19.643  0.00  0.00    +0.000 HD
BRANCH  13  15
ATOM     15  C   UNL     1      -3.982  12.337  18.978  0.00  0.00    +0.000 C 
ATOM     16  C   UNL     1      -4.578  11.433  17.899  0.00  0.00    +0.000 C 
ATOM     17  C   UNL     1      -5.448  10.267  18.354  0.00  0.00    +0.000 C 
ATOM     18  C   UNL     1      -6.887  10.688  18.620  0.00  0.00    +0.000 C 
ATOM     19  C   UNL     1      -7.081  11.276  20.004  0.00  0.00    +0.000 C 
ATOM     20  C   UNL     1      -6.362  12.599  20.253  0.00  0.00    +0.000 C 
ATOM     21  C   UNL     1      -4.830  12.629  20.249  0.00  0.00    +0.000 C 
ENDBRANCH  13  15
ENDBRANCH  10  11
BRANCH   1  22
ATOM     22  C   UNL     1      -0.626  13.008  22.609  0.00  0.00    +0.000 C 
BRANCH  22  26
ATOM     23  C   UNL     1      -4.826  13.699  23.638  0.00  0.00    +0.000 A 
ATOM     24  C   UNL     1      -4.195  12.488  23.915  0.00  0.00    +0.000 A 
ATOM     25  C   UNL     1      -2.834  12.307  23.601  0.00  0.00    +0.000 A 
ATOM     26  C   UNL     1      -2.061  13.321  22.997  0.00  0.00    +0.000 A 
ATOM     27  C   UNL     1      -2.658  14.577  22.866  0.00  0.00    +0.000 A 
ATOM     28  C   UNL     1      -4.019  14.756  23.174  0.00  0.00    +0.000 A 
BRANCH  23  30
ATOM     29  C   UNL     1      -7.270  12.775  23.909  0.00  0.00    +0.000 C 
ATOM     30  C   UNL     1      -6.312  13.956  23.782  0.00  0.00    +0.000 C 
ENDBRANCH  23  30
ENDBRANCH  22  26
ENDBRANCH   1  22
TORSDOF 5
ENDMDL
MODEL 8
REMARK VINA RESULT:      -7.8      5.064     10.070
REMARK  Name = 
REMARK  6 active torsions:
REMARK  status: ('A' for Active; 'I' for Inactive)
REMARK    1  A    between atoms: C_1  and  C_2
REMARK    2  A    between atoms: C_2  and  C_3
REMARK    3  A    between atoms: C_6  and  C_7
REMARK    4  A    between atoms: C_7  and  N_8
REMARK    5  A    between atoms: C_17  and  C_18
REMARK    6  A    between atoms: N_20  and  C_21
REMARK                            x       y       z     vdW  Elec       q    Type
REMARK                         _______ _______ _______ _____ _____    ______ ____
ROOT
ATOM      1  N   UNL     1       0.409  11.434  20.808  0.00  0.00    +0.000 N 
ATOM      2  C   UNL     1       0.697  10.234  21.381  0.00  0.00    +0.000 C 
ATOM      3  O   UNL     1       0.636   9.925  22.560  0.00  0.00    +0.000 OA
ATOM      4  C   UNL     1       1.187   9.344  20.307  0.00  0.00    +0.000 A 
ATOM      5  C   UNL     1       1.551   8.025  20.424  0.00  0.00    +0.000 A 
ATOM      6  C   UNL     1       2.087   7.416  19.298  0.00  0.00    +0.000 A 
ATOM      7  C   UNL     1       2.253   8.170  18.105  0.00  0.00    +0.000 A 
ATOM      8  C   UNL     1       1.787   9.493  17.983  0.00  0.00    +0.000 A 
ATOM      9  C   UNL     1       1.180  10.073  19.086  0.00  0.00    +0.000 A 
ATOM     10  C   UNL     1       0.283  11.266  19.351  0.00  0.00    +0.000 C 
ENDROOT
BRANCH  10  11
ATOM     11  C   UNL     1      -0.818  12.126  18.672  0.00  0.00    +0.000 C 
ATOM     12  O   UNL     1      -0.627  13.195  18.106  0.00  0.00    +0.000 OA
ATOM     13  N   UNL     1      -2.091  11.516  18.818  0.00  0.00    +0.000 N 
ATOM     14  H   UNL     1      -2.094  10.593  19.238  0.00  0.00    +0.000 HD
BRANCH  13  15
ATOM     15  C   UNL     1      -3.424  12.063  18.510  0.00  0.00    +0.000 C 
ATOM     16  C   UNL     1      -4.216  11.148  17.576  0.00  0.00    +0.000 C 
ATOM     17  C   UNL     1      -5.103  10.085  18.211  0.00  0.00    +0.000 C 
ATOM     18  C   UNL     1      -6.463  10.635  18.620  0.00  0.00    +0.000 C 
ATOM     19  C   UNL     1      -6.438  11.317  19.974  0.00  0.00    +0.000 C 
ATOM     20  C   UNL     1      -5.600  12.591  20.042  0.00  0.00    +0.000 C 
ATOM     21  C   UNL     1      -4.083  12.497  19.851  0.00  0.00    +0.000 C 
ENDBRANCH  13  15
ENDBRANCH  10  11
BRANCH   1  22
ATOM     22  C   UNL     1       0.220  12.677  21.555  0.00  0.00    +0.000 C 
BRANCH  22  26
ATOM     23  C   UNL     1      -3.640  13.760  23.316  0.00  0.00    +0.000 A 
ATOM     24  C   UNL     1      -2.918  14.656  22.530  0.00  0.00    +0.000 A 
ATOM     25  C   UNL     1      -1.694  14.268  21.951  0.00  0.00    +0.000 A 
ATOM     26  C   UNL     1      -1.148  12.979  22.140  0.00  0.00    +0.000 A 
ATOM     27  C   UNL     1      -1.951  12.044  22.798  0.00  0.00    +0.000 A 
ATOM     28  C   UNL     1      -3.171  12.434  23.381  0.00  0.00    +0.000 A 
BRANCH  23  30
ATOM     29  C   UNL     1      -5.749  15.285  23.676  0.00  0.00    +0.000 C 
ATOM     30  C   UNL     1      -4.879  14.111  24.115  0.00  0.00    +0.000 C 
ENDBRANCH  23  30
ENDBRANCH  22  26
ENDBRANCH   1  22
TORSDOF 5
ENDMDL
MODEL 9
REMARK VINA RESULT:      -7.8      1.438      1.852
REMARK  Name = 
REMARK  6 active torsions:
REMARK  status: ('A' for Active; 'I' for Inactive)
REMARK    1  A    between atoms: C_1  and  C_2
REMARK    2  A    between atoms: C_2  and  C_3
REMARK    3  A    between atoms: C_6  and  C_7
REMARK    4  A    between atoms: C_7  and  N_8
REMARK    5  A    between atoms: C_17  and  C_18
REMARK    6  A    between atoms: N_20  and  C_21
REMARK                            x       y       z     vdW  Elec       q    Type
REMARK                         _______ _______ _______ _____ _____    ______ ____
ROOT
ATOM      1  N   UNL     1       4.557   4.946  16.583  0.00  0.00    +0.000 N 
ATOM      2  C   UNL     1       4.777   3.658  16.961  0.00  0.00    +0.000 C 
ATOM      3  O   UNL     1       5.748   2.958  16.729  0.00  0.00    +0.000 OA
ATOM      4  C   UNL     1       3.563   3.199  17.670  0.00  0.00    +0.000 A 
ATOM      5  C   UNL     1       3.362   1.977  18.263  0.00  0.00    +0.000 A 
ATOM      6  C   UNL     1       2.097   1.726  18.778  0.00  0.00    +0.000 A 
ATOM      7  C   UNL     1       1.083   2.714  18.656  0.00  0.00    +0.000 A 
ATOM      8  C   UNL     1       1.340   3.993  18.128  0.00  0.00    +0.000 A 
ATOM      9  C   UNL     1       2.625   4.267  17.685  0.00  0.00    +0.000 A 
ATOM     10  C   UNL     1       3.439   5.504  17.361  0.00  0.00    +0.000 C 
ENDROOT
BRANCH  10  11
ATOM     11  C   UNL     1       3.585   6.997  17.765  0.00  0.00    +0.000 C 
ATOM     12  O   UNL     1       4.602   7.666  17.633  0.00  0.00    +0.000 OA
ATOM     13  N   UNL     1       2.379   7.482  18.334  0.00  0.00    +0.000 N 
ATOM     14  H   UNL     1       1.591   6.845  18.308  0.00  0.00    +0.000 HD
BRANCH  13  15
ATOM     15  C   UNL     1       2.126   8.758  19.026  0.00  0.00    +0.000 C 
ATOM     16  C   UNL     1       1.500   9.798  18.096  0.00  0.00    +0.000 C 
ATOM     17  C   UNL     1      -0.021   9.855  18.020  0.00  0.00    +0.000 C 
ATOM     18  C   UNL     1      -0.626  10.682  19.147  0.00  0.00    +0.000 C 
ATOM     19  C   UNL     1      -0.794   9.892  20.430  0.00  0.00    +0.000 C 
ATOM     20  C   UNL     1       0.507   9.446  21.092  0.00  0.00    +0.000 C 
ATOM     21  C   UNL     1       1.405   8.438  20.367  0.00  0.00    +0.000 C 
ENDBRANCH  13  15
ENDBRANCH  10  11
BRANCH   1  22
ATOM     22  C   UNL     1       5.353   5.656  15.581  0.00  0.00    +0.000 C 
BRANCH  22  26
ATOM     23  C   UNL     1       6.587   3.289  12.110  0.00  0.00    +0.000 A 
ATOM     24  C   UNL     1       5.253   3.366  12.506  0.00  0.00    +0.000 A 
ATOM     25  C   UNL     1       4.883   4.161  13.607  0.00  0.00    +0.000 A 
ATOM     26  C   UNL     1       5.828   4.900  14.353  0.00  0.00    +0.000 A 
ATOM     27  C   UNL     1       7.132   4.938  13.856  0.00  0.00    +0.000 A 
ATOM     28  C   UNL     1       7.503   4.139  12.758  0.00  0.00    +0.000 A 
BRANCH  23  30
ATOM     29  C   UNL     1       6.586   0.925  10.964  0.00  0.00    +0.000 C 
ATOM     30  C   UNL     1       7.124   2.350  11.049  0.00  0.00    +0.000 C 
ENDBRANCH  23  30
ENDBRANCH  22  26
ENDBRANCH   1  22
TORSDOF 5
ENDMDL
