MODEL 1
REMARK VINA RESULT:      -6.7      0.000      0.000
REMARK  Name = 
REMARK  2 active torsions:
REMARK  status: ('A' for Active; 'I' for Inactive)
REMARK    1  A    between atoms: C_1  and  N_2
REMARK    2  A    between atoms: C_8  and  C_10
REMARK                            x       y       z     vdW  Elec       q    Type
REMARK                         _______ _______ _______ _____ _____    ______ ____
ROOT
ATOM      1  C   UNL     1       6.373   3.636  14.126  0.00  0.00    +0.000 C 
ATOM      2  N   UNL     1       6.138   4.655  15.166  0.00  0.00    +0.000 N 
ATOM      3  C   UNL     1       6.081   6.042  14.644  0.00  0.00    +0.000 C 
ATOM      4  C   UNL     1       5.115   6.809  15.586  0.00  0.00    +0.000 C 
ATOM      5  C   UNL     1       4.661   5.749  16.609  0.00  0.00    +0.000 C 
ATOM      6  C   UNL     1       4.791   4.498  15.754  0.00  0.00    +0.000 C 
ATOM      7  N   UNL     1       5.606   5.541  17.716  0.00  0.00    +0.000 N 
ATOM      8  C   UNL     1       5.237   5.237  19.016  0.00  0.00    +0.000 C 
ATOM      9  O   UNL     1       6.127   5.063  19.832  0.00  0.00    +0.000 OA
ATOM     10  C   UNL     1       7.018   5.551  17.339  0.00  0.00    +0.000 C 
ATOM     11  C   UNL     1       7.197   4.523  16.219  0.00  0.00    +0.000 C 
ENDROOT
BRANCH   8  12
ATOM     12  C   UNL     1       3.807   5.067  19.515  0.00  0.00    +0.000 A 
ATOM     13  C   UNL     1       3.118   6.137  20.140  0.00  0.00    +0.000 A 
ATOM     14  C   UNL     1       1.824   6.004  20.627  0.00  0.00    +0.000 A 
ATOM     15  C   UNL     1       1.142   4.809  20.486  0.00  0.00    +0.000 A 
ATOM     16  C   UNL     1       1.747   3.733  19.833  0.00  0.00    +0.000 A 
ATOM     17  C   UNL     1       1.030   2.539  19.672  0.00  0.00    +0.000 A 
ATOM     18  N   UNL     1       1.590   1.486  19.030  0.00  0.00    +0.000 NA
ATOM     19  C   UNL     1       2.852   1.541  18.543  0.00  0.00    +0.000 A 
ATOM     20  C   UNL     1       3.615   2.691  18.691  0.00  0.00    +0.000 A 
ATOM     21  C   UNL     1       3.077   3.839  19.333  0.00  0.00    +0.000 A 
ENDBRANCH   8  12
TORSDOF 1
ENDMDL
MODEL 2
REMARK VINA RESULT:      -6.4      3.224      4.879
REMARK  Name = 
REMARK  2 active torsions:
REMARK  status: ('A' for Active; 'I' for Inactive)
REMARK    1  A    between atoms: C_1  and  N_2
REMARK    2  A    between atoms: C_8  and  C_10
REMARK                            x       y       z     vdW  Elec       q    Type
REMARK                         _______ _______ _______ _____ _____    ______ ____
ROOT
ATOM      1  C   UNL     1       5.629   3.714  15.876  0.00  0.00    +0.000 C 
ATOM      2  N   UNL     1       5.382   4.384  17.165  0.00  0.00    +0.000 N 
ATOM      3  C   UNL     1       6.614   4.657  17.945  0.00  0.00    +0.000 C 
ATOM      4  C   UNL     1       6.321   5.944  18.761  0.00  0.00    +0.000 C 
ATOM      5  C   UNL     1       4.887   6.334  18.352  0.00  0.00    +0.000 C 
ATOM      6  C   UNL     1       4.852   5.748  16.951  0.00  0.00    +0.000 C 
ATOM      7  N   UNL     1       3.838   5.609  19.084  0.00  0.00    +0.000 N 
ATOM      8  C   UNL     1       2.614   6.151  19.443  0.00  0.00    +0.000 C 
ATOM      9  O   UNL     1       1.824   5.427  20.026  0.00  0.00    +0.000 OA
ATOM     10  C   UNL     1       4.109   4.193  19.320  0.00  0.00    +0.000 C 
ATOM     11  C   UNL     1       4.418   3.557  17.962  0.00  0.00    +0.000 C 
ENDROOT
BRANCH   8  12
ATOM     12  C   UNL     1       2.151   7.572  19.144  0.00  0.00    +0.000 A 
ATOM     13  C   UNL     1       2.154   8.079  17.819  0.00  0.00    +0.000 A 
ATOM     14  C   UNL     1       1.761   9.377  17.521  0.00  0.00    +0.000 A 
ATOM     15  C   UNL     1       1.317  10.223  18.521  0.00  0.00    +0.000 A 
ATOM     16  C   UNL     1       1.241   9.766  19.838  0.00  0.00    +0.000 A 
ATOM     17  C   UNL     1       0.759  10.626  20.835  0.00  0.00    +0.000 A 
ATOM     18  N   UNL     1       0.663  10.202  22.117  0.00  0.00    +0.000 NA
ATOM     19  C   UNL     1       1.041   8.954  22.482  0.00  0.00    +0.000 A 
ATOM     20  C   UNL     1       1.544   8.066  21.542  0.00  0.00    +0.000 A 
ATOM     21  C   UNL     1       1.647   8.442  20.175  0.00  0.00    +0.000 A 
ENDBRANCH   8  12
TORSDOF 1
ENDMDL
MODEL 3
REMARK VINA RESULT:      -6.3      4.076      6.084
REMARK  Name = 
REMARK  2 active torsions:
REMARK  status: ('A' for Active; 'I' for Inactive)
REMARK    1  A    between atoms: C_1  and  N_2
REMARK    2  A    between atoms: C_8  and  C_10
REMARK                            x       y       z     vdW  Elec       q    Type
REMARK                         _______ _______ _______ _____ _____    ______ ____
ROOT
ATOM      1  C   UNL     1       1.727  12.925  18.946  0.00  0.00    +0.000 C 
ATOM      2  N   UNL     1       1.088  11.611  19.142  0.00  0.00    +0.000 N 
ATOM      3  C   UNL     1      -0.307  11.541  18.641  0.00  0.00    +0.000 C 
ATOM      4  C   UNL     1      -0.524  10.069  18.202  0.00  0.00    +0.000 C 
ATOM      5  C   UNL     1       0.828   9.385  18.481  0.00  0.00    +0.000 C 
ATOM      6  C   UNL     1       1.755  10.579  18.320  0.00  0.00    +0.000 C 
ATOM      7  N   UNL     1       1.008   8.961  19.877  0.00  0.00    +0.000 N 
ATOM      8  C   UNL     1       1.698   7.826  20.269  0.00  0.00    +0.000 C 
ATOM      9  O   UNL     1       1.794   7.606  21.466  0.00  0.00    +0.000 OA
ATOM     10  C   UNL     1       0.507   9.896  20.881  0.00  0.00    +0.000 C 
ATOM     11  C   UNL     1       1.152  11.256  20.598  0.00  0.00    +0.000 C 
ENDROOT
BRANCH   8  12
ATOM     12  C   UNL     1       2.382   6.835  19.333  0.00  0.00    +0.000 A 
ATOM     13  C   UNL     1       3.347   7.268  18.389  0.00  0.00    +0.000 A 
ATOM     14  C   UNL     1       3.967   6.392  17.507  0.00  0.00    +0.000 A 
ATOM     15  C   UNL     1       3.680   5.039  17.545  0.00  0.00    +0.000 A 
ATOM     16  C   UNL     1       2.777   4.544  18.488  0.00  0.00    +0.000 A 
ATOM     17  C   UNL     1       2.521   3.166  18.533  0.00  0.00    +0.000 A 
ATOM     18  N   UNL     1       1.660   2.660  19.447  0.00  0.00    +0.000 NA
ATOM     19  C   UNL     1       1.010   3.456  20.327  0.00  0.00    +0.000 A 
ATOM     20  C   UNL     1       1.209   4.830  20.316  0.00  0.00    +0.000 A 
ATOM     21  C   UNL     1       2.119   5.422  19.397  0.00  0.00    +0.000 A 
ENDBRANCH   8  12
TORSDOF 1
ENDMDL
MODEL 4
REMARK VINA RESULT:      -6.3      1.539      5.696
REMARK  Name = 
REMARK  2 active torsions:
REMARK  status: ('A' for Active; 'I' for Inactive)
REMARK    1  A    between atoms: C_1  and  N_2
REMARK    2  A    between atoms: C_8  and  C_10
REMARK                            x       y       z     vdW  Elec       q    Type
REMARK                         _______ _______ _______ _____ _____    ______ ____
ROOT
ATOM      1  C   UNL     1       0.406   1.854  18.930  0.00  0.00    +0.000 C 
ATOM      2  N   UNL     1       1.360   2.713  19.655  0.00  0.00    +0.000 N 
ATOM      3  C   UNL     1       1.562   2.322  21.071  0.00  0.00    +0.000 C 
ATOM      4  C   UNL     1       3.020   2.725  21.417  0.00  0.00    +0.000 C 
ATOM      5  C   UNL     1       3.568   3.325  20.108  0.00  0.00    +0.000 C 
ATOM      6  C   UNL     1       2.723   2.560  19.103  0.00  0.00    +0.000 C 
ATOM      7  N   UNL     1       3.209   4.735  19.898  0.00  0.00    +0.000 N 
ATOM      8  C   UNL     1       4.024   5.668  19.277  0.00  0.00    +0.000 C 
ATOM      9  O   UNL     1       3.588   6.801  19.145  0.00  0.00    +0.000 OA
ATOM     10  C   UNL     1       1.846   5.094  20.284  0.00  0.00    +0.000 C 
ATOM     11  C   UNL     1       0.900   4.136  19.553  0.00  0.00    +0.000 C 
ENDROOT
BRANCH   8  12
ATOM     12  C   UNL     1       5.412   5.397  18.711  0.00  0.00    +0.000 A 
ATOM     13  C   UNL     1       6.571   5.534  19.519  0.00  0.00    +0.000 A 
ATOM     14  C   UNL     1       7.850   5.318  19.024  0.00  0.00    +0.000 A 
ATOM     15  C   UNL     1       8.036   4.924  17.711  0.00  0.00    +0.000 A 
ATOM     16  C   UNL     1       6.932   4.721  16.880  0.00  0.00    +0.000 A 
ATOM     17  C   UNL     1       7.137   4.291  15.562  0.00  0.00    +0.000 A 
ATOM     18  N   UNL     1       6.083   4.074  14.741  0.00  0.00    +0.000 NA
ATOM     19  C   UNL     1       4.809   4.278  15.152  0.00  0.00    +0.000 A 
ATOM     20  C   UNL     1       4.547   4.722  16.441  0.00  0.00    +0.000 A 
ATOM     21  C   UNL     1       5.609   4.945  17.359  0.00  0.00    +0.000 A 
ENDBRANCH   8  12
TORSDOF 1
ENDMDL
MODEL 5
REMARK VINA RESULT:      -6.0      2.155      3.050
REMARK  Name = 
REMARK  2 active torsions:
REMARK  status: ('A' for Active; 'I' for Inactive)
REMARK    1  A    between atoms: C_1  and  N_2
REMARK    2  A    between atoms: C_8  and  C_10
REMARK                            x       y       z     vdW  Elec       q    Type
REMARK                         _______ _______ _______ _____ _____    ______ ____
ROOT
ATOM      1  C   UNL     1       7.515   8.295  17.312  0.00  0.00    +0.000 C 
ATOM      2  N   UNL     1       7.266   6.905  17.735  0.00  0.00    +0.000 N 
ATOM      3  C   UNL     1       8.140   6.451  18.845  0.00  0.00    +0.000 C 
ATOM      4  C   UNL     1       7.305   5.413  19.642  0.00  0.00    +0.000 C 
ATOM      5  C   UNL     1       5.953   5.366  18.904  0.00  0.00    +0.000 C 
ATOM      6  C   UNL     1       5.922   6.776  18.338  0.00  0.00    +0.000 C 
ATOM      7  N   UNL     1       5.946   4.491  17.723  0.00  0.00    +0.000 N 
ATOM      8  C   UNL     1       4.855   3.746  17.304  0.00  0.00    +0.000 C 
ATOM      9  O   UNL     1       4.980   3.082  16.288  0.00  0.00    +0.000 OA
ATOM     10  C   UNL     1       7.157   4.538  16.906  0.00  0.00    +0.000 C 
ATOM     11  C   UNL     1       7.405   6.005  16.544  0.00  0.00    +0.000 C 
ENDROOT
BRANCH   8  12
ATOM     12  C   UNL     1       3.493   3.708  17.987  0.00  0.00    +0.000 A 
ATOM     13  C   UNL     1       2.334   4.204  17.336  0.00  0.00    +0.000 A 
ATOM     14  C   UNL     1       1.085   4.204  17.943  0.00  0.00    +0.000 A 
ATOM     15  C   UNL     1       0.923   3.682  19.214  0.00  0.00    +0.000 A 
ATOM     16  C   UNL     1       2.016   3.131  19.886  0.00  0.00    +0.000 A 
ATOM     17  C   UNL     1       1.828   2.577  21.160  0.00  0.00    +0.000 A 
ATOM     18  N   UNL     1       2.869   2.024  21.827  0.00  0.00    +0.000 NA
ATOM     19  C   UNL     1       4.117   2.002  21.301  0.00  0.00    +0.000 A 
ATOM     20  C   UNL     1       4.366   2.552  20.052  0.00  0.00    +0.000 A 
ATOM     21  C   UNL     1       3.311   3.126  19.291  0.00  0.00    +0.000 A 
ENDBRANCH   8  12
TORSDOF 1
ENDMDL
MODEL 6
REMARK VINA RESULT:      -5.9      3.675      5.776
REMARK  Name = 
REMARK  2 active torsions:
REMARK  status: ('A' for Active; 'I' for Inactive)
REMARK    1  A    between atoms: C_1  and  N_2
REMARK    2  A    between atoms: C_8  and  C_10
REMARK                            x       y       z     vdW  Elec       q    Type
REMARK                         _______ _______ _______ _____ _____    ______ ____
ROOT
ATOM      1  C   UNL     1       4.334   2.597  20.163  0.00  0.00    +0.000 C 
ATOM      2  N   UNL     1       3.451   3.505  19.410  0.00  0.00    +0.000 N 
ATOM      3  C   UNL     1       2.371   2.810  18.667  0.00  0.00    +0.000 C 
ATOM      4  C   UNL     1       1.180   3.804  18.623  0.00  0.00    +0.000 C 
ATOM      5  C   UNL     1       1.687   5.038  19.395  0.00  0.00    +0.000 C 
ATOM      6  C   UNL     1       2.677   4.364  20.331  0.00  0.00    +0.000 C 
ATOM      7  N   UNL     1       2.505   5.955  18.588  0.00  0.00    +0.000 N 
ATOM      8  C   UNL     1       2.517   7.332  18.735  0.00  0.00    +0.000 C 
ATOM      9  O   UNL     1       3.266   7.972  18.015  0.00  0.00    +0.000 OA
ATOM     10  C   UNL     1       3.436   5.309  17.664  0.00  0.00    +0.000 C 
ATOM     11  C   UNL     1       4.287   4.335  18.484  0.00  0.00    +0.000 C 
ENDROOT
BRANCH   8  12
ATOM     12  C   UNL     1       1.696   8.123  19.747  0.00  0.00    +0.000 A 
ATOM     13  C   UNL     1       1.872   7.932  21.141  0.00  0.00    +0.000 A 
ATOM     14  C   UNL     1       1.121   8.621  22.085  0.00  0.00    +0.000 A 
ATOM     15  C   UNL     1       0.181   9.555  21.687  0.00  0.00    +0.000 A 
ATOM     16  C   UNL     1      -0.001   9.826  20.330  0.00  0.00    +0.000 A 
ATOM     17  C   UNL     1      -0.935  10.799  19.945  0.00  0.00    +0.000 A 
ATOM     18  N   UNL     1      -1.121  11.090  18.636  0.00  0.00    +0.000 NA
ATOM     19  C   UNL     1      -0.433  10.448  17.662  0.00  0.00    +0.000 A 
ATOM     20  C   UNL     1       0.490   9.462  17.983  0.00  0.00    +0.000 A 
ATOM     21  C   UNL     1       0.749   9.127  19.340  0.00  0.00    +0.000 A 
ENDBRANCH   8  12
TORSDOF 1
ENDMDL
MODEL 7
REMARK VINA RESULT:      -5.8      6.949      8.994
REMARK  Name = 
REMARK  2 active torsions:
REMARK  status: ('A' for Active; 'I' for Inactive)
REMARK    1  A    between atoms: C_1  and  N_2
REMARK    2  A    between atoms: C_8  and  C_10
REMARK                            x       y       z     vdW  Elec       q    Type
REMARK                         _______ _______ _______ _____ _____    ______ ____
ROOT
ATOM      1  C   UNL     1       0.582  16.382  21.435  0.00  0.00    +0.000 C 
ATOM      2  N   UNL     1       0.881  15.314  20.464  0.00  0.00    +0.000 N 
ATOM      3  C   UNL     1       2.112  15.551  19.672  0.00  0.00    +0.000 C 
ATOM      4  C   UNL     1       2.683  14.145  19.348  0.00  0.00    +0.000 C 
ATOM      5  C   UNL     1       1.700  13.170  20.026  0.00  0.00    +0.000 C 
ATOM      6  C   UNL     1       1.210  14.053  21.162  0.00  0.00    +0.000 C 
ATOM      7  N   UNL     1       0.497  12.884  19.232  0.00  0.00    +0.000 N 
ATOM      8  C   UNL     1      -0.158  11.663  19.212  0.00  0.00    +0.000 C 
ATOM      9  O   UNL     1      -1.164  11.572  18.527  0.00  0.00    +0.000 OA
ATOM     10  C   UNL     1      -0.072  14.031  18.528  0.00  0.00    +0.000 C 
ATOM     11  C   UNL     1      -0.306  15.132  19.567  0.00  0.00    +0.000 C 
ENDROOT
BRANCH   8  12
ATOM     12  C   UNL     1       0.251  10.424  19.999  0.00  0.00    +0.000 A 
ATOM     13  C   UNL     1      -0.225  10.205  21.318  0.00  0.00    +0.000 A 
ATOM     14  C   UNL     1       0.150   9.098  22.068  0.00  0.00    +0.000 A 
ATOM     15  C   UNL     1       0.991   8.140  21.531  0.00  0.00    +0.000 A 
ATOM     16  C   UNL     1       1.451   8.273  20.219  0.00  0.00    +0.000 A 
ATOM     17  C   UNL     1       2.278   7.276  19.680  0.00  0.00    +0.000 A 
ATOM     18  N   UNL     1       2.726   7.375  18.406  0.00  0.00    +0.000 NA
ATOM     19  C   UNL     1       2.412   8.433  17.623  0.00  0.00    +0.000 A 
ATOM     20  C   UNL     1       1.613   9.458  18.110  0.00  0.00    +0.000 A 
ATOM     21  C   UNL     1       1.090   9.403  19.430  0.00  0.00    +0.000 A 
ENDBRANCH   8  12
TORSDOF 1
ENDMDL
MODEL 8
REMARK VINA RESULT:      -5.8      3.040      5.749
REMARK  Name = 
REMARK  2 active torsions:
REMARK  status: ('A' for Active; 'I' for Inactive)
REMARK    1  A    between atoms: C_1  and  N_2
REMARK    2  A    between atoms: C_8  and  C_10
REMARK                            x       y       z     vdW  Elec       q    Type
REMARK                         _______ _______ _______ _____ _____    ______ ____
ROOT
ATOM      1  C   UNL     1       1.313   2.306  21.826  0.00  0.00    +0.000 C 
ATOM      2  N   UNL     1       1.794   2.942  20.586  0.00  0.00    +0.000 N 
ATOM      3  C   UNL     1       1.485   2.170  19.357  0.00  0.00    +0.000 C 
ATOM      4  C   UNL     1       1.316   3.222  18.229  0.00  0.00    +0.000 C 
ATOM      5  C   UNL     1       1.532   4.575  18.935  0.00  0.00    +0.000 C 
ATOM      6  C   UNL     1       1.071   4.208  20.336  0.00  0.00    +0.000 C 
ATOM      7  N   UNL     1       2.945   4.947  19.095  0.00  0.00    +0.000 N 
ATOM      8  C   UNL     1       3.426   6.246  19.037  0.00  0.00    +0.000 C 
ATOM      9  O   UNL     1       4.621   6.415  19.214  0.00  0.00    +0.000 OA
ATOM     10  C   UNL     1       3.841   3.851  19.453  0.00  0.00    +0.000 C 
ATOM     11  C   UNL     1       3.268   3.186  20.707  0.00  0.00    +0.000 C 
ENDROOT
BRANCH   8  12
ATOM     12  C   UNL     1       2.583   7.494  18.802  0.00  0.00    +0.000 A 
ATOM     13  C   UNL     1       2.538   8.118  17.529  0.00  0.00    +0.000 A 
ATOM     14  C   UNL     1       1.799   9.269  17.292  0.00  0.00    +0.000 A 
ATOM     15  C   UNL     1       1.044   9.838  18.303  0.00  0.00    +0.000 A 
ATOM     16  C   UNL     1       1.006   9.241  19.564  0.00  0.00    +0.000 A 
ATOM     17  C   UNL     1       0.210   9.812  20.568  0.00  0.00    +0.000 A 
ATOM     18  N   UNL     1       0.145   9.245  21.795  0.00  0.00    +0.000 NA
ATOM     19  C   UNL     1       0.850   8.130  22.100  0.00  0.00    +0.000 A 
ATOM     20  C   UNL     1       1.668   7.532  21.152  0.00  0.00    +0.000 A 
ATOM     21  C   UNL     1       1.762   8.064  19.838  0.00  0.00    +0.000 A 
ENDBRANCH   8  12
TORSDOF 1
ENDMDL
MODEL 9
REMARK VINA RESULT:      -5.8      3.343      5.563
REMARK  Name = 
REMARK  2 active torsions:
REMARK  status: ('A' for Active; 'I' for Inactive)
REMARK    1  A    between atoms: C_1  and  N_2
REMARK    2  A    between atoms: C_8  and  C_10
REMARK                            x       y       z     vdW  Elec       q    Type
REMARK                         _______ _______ _______ _____ _____    ______ ____
ROOT
ATOM      1  C   UNL     1       4.274   1.958  19.715  0.00  0.00    +0.000 C 
ATOM      2  N   UNL     1       3.518   2.963  18.946  0.00  0.00    +0.000 N 
ATOM      3  C   UNL     1       2.460   2.385  18.082  0.00  0.00    +0.000 C 
ATOM      4  C   UNL     1       1.346   3.462  18.001  0.00  0.00    +0.000 C 
ATOM      5  C   UNL     1       1.868   4.616  18.879  0.00  0.00    +0.000 C 
ATOM      6  C   UNL     1       2.730   3.827  19.851  0.00  0.00    +0.000 C 
ATOM      7  N   UNL     1       2.809   5.512  18.191  0.00  0.00    +0.000 N 
ATOM      8  C   UNL     1       2.901   6.876  18.417  0.00  0.00    +0.000 C 
ATOM      9  O   UNL     1       3.747   7.498  17.795  0.00  0.00    +0.000 OA
ATOM     10  C   UNL     1       3.768   4.851  17.310  0.00  0.00    +0.000 C 
ATOM     11  C   UNL     1       4.482   3.778  18.138  0.00  0.00    +0.000 C 
ENDROOT
BRANCH   8  12
ATOM     12  C   UNL     1       2.053   7.671  19.403  0.00  0.00    +0.000 A 
ATOM     13  C   UNL     1       1.636   7.102  20.634  0.00  0.00    +0.000 A 
ATOM     14  C   UNL     1       0.843   7.794  21.540  0.00  0.00    +0.000 A 
ATOM     15  C   UNL     1       0.454   9.096  21.280  0.00  0.00    +0.000 A 
ATOM     16  C   UNL     1       0.876   9.729  20.110  0.00  0.00    +0.000 A 
ATOM     17  C   UNL     1       0.498  11.059  19.877  0.00  0.00    +0.000 A 
ATOM     18  N   UNL     1       0.906  11.700  18.756  0.00  0.00    +0.000 NA
ATOM     19  C   UNL     1       1.669  11.083  17.823  0.00  0.00    +0.000 A 
ATOM     20  C   UNL     1       2.056   9.761  17.991  0.00  0.00    +0.000 A 
ATOM     21  C   UNL     1       1.682   9.040  19.158  0.00  0.00    +0.000 A 
ENDBRANCH   8  12
TORSDOF 1
ENDMDL
