MODEL 1
REMARK VINA RESULT:      -7.3      0.000      0.000
REMARK  Name = 
REMARK  9 active torsions:
REMARK  status: ('A' for Active; 'I' for Inactive)
REMARK    1  A    between atoms: C_1  and  O_2
REMARK    2  A    between atoms: O_2  and  C_3
REMARK    3  A    between atoms: C_6  and  N_7
REMARK    4  A    between atoms: C_8  and  C_10
REMARK    5  A    between atoms: C_10  and  C_11
REMARK    6  A    between atoms: N_14  and  C_15
REMARK    7  A    between atoms: C_18  and  O_19
REMARK    8  A    between atoms: O_19  and  C_20
REMARK    9  A    between atoms: N_25  and  C_26
REMARK                            x       y       z     vdW  Elec       q    Type
REMARK                         _______ _______ _______ _____ _____    ______ ____
ROOT
ATOM      1  C   UNL     1      -0.241  10.484  21.206  0.00  0.00    +0.000 C 
ATOM      2  C   UNL     1      -0.718  11.187  22.488  0.00  0.00    +0.000 C 
ATOM      3  O   UNL     1      -0.730  10.635  23.583  0.00  0.00    +0.000 OA
ATOM      4  N   UNL     1      -1.210  12.422  22.138  0.00  0.00    +0.000 N 
ATOM      5  C   UNL     1      -0.926  12.676  20.815  0.00  0.00    +0.000 C 
ATOM      6  O   UNL     1      -1.190  13.706  20.215  0.00  0.00    +0.000 OA
ATOM      7  N   UNL     1      -0.266  11.584  20.256  0.00  0.00    +0.000 N 
ENDROOT
BRANCH   4   8
ATOM      8  C   UNL     1      -1.842  13.373  22.988  0.00  0.00    +0.000 A 
ATOM      9  C   UNL     1      -3.212  13.335  23.264  0.00  0.00    +0.000 A 
ATOM     10  C   UNL     1      -3.786  14.247  24.166  0.00  0.00    +0.000 A 
ATOM     11  C   UNL     1      -3.011  15.215  24.807  0.00  0.00    +0.000 A 
ATOM     12  C   UNL     1      -1.658  15.291  24.510  0.00  0.00    +0.000 A 
ATOM     13  C   UNL     1      -1.089  14.382  23.614  0.00  0.00    +0.000 A 
BRANCH  11  14
ATOM     14  O   UNL     1      -3.670  16.048  25.666  0.00  0.00    +0.000 OA
ATOM     15  C   UNL     1      -4.582  16.961  25.059  0.00  0.00    +0.000 C 
ENDBRANCH  11  14
ENDBRANCH   4   8
BRANCH   7  16
ATOM     16  C   UNL     1       0.189  11.473  18.861  0.00  0.00    +0.000 C 
ATOM     17  C   UNL     1       0.219  10.033  18.343  0.00  0.00    +0.000 C 
ATOM     18  C   UNL     1      -1.142   9.480  17.941  0.00  0.00    +0.000 C 
ATOM     19  C   UNL     1      -1.964  10.419  17.055  0.00  0.00    +0.000 C 
ATOM     20  C   UNL     1      -1.912  11.908  17.400  0.00  0.00    +0.000 C 
ATOM     21  C   UNL     1      -0.543  12.394  17.867  0.00  0.00    +0.000 C 
ENDBRANCH   7  16
BRANCH   1  22
ATOM     22  C   UNL     1       1.064   9.710  21.404  0.00  0.00    +0.000 C 
BRANCH  22  24
ATOM     23  N   UNL     1       2.016   7.677  20.452  0.00  0.00    +0.000 N 
ATOM     24  C   UNL     1       0.899   8.255  21.038  0.00  0.00    +0.000 C 
ATOM     25  O   UNL     1      -0.149   7.662  21.282  0.00  0.00    +0.000 OA
ATOM     26  H   UNL     1       2.898   8.174  20.498  0.00  0.00    +0.000 HD
BRANCH  23  30
ATOM     27  C   UNL     1       1.975   3.708  19.004  0.00  0.00    +0.000 A 
ATOM     28  C   UNL     1       2.128   4.766  18.123  0.00  0.00    +0.000 A 
ATOM     29  C   UNL     1       2.181   6.072  18.596  0.00  0.00    +0.000 A 
ATOM     30  C   UNL     1       2.042   6.353  19.959  0.00  0.00    +0.000 A 
ATOM     31  C   UNL     1       1.917   5.286  20.851  0.00  0.00    +0.000 A 
ATOM     32  C   UNL     1       1.871   3.965  20.372  0.00  0.00    +0.000 A 
BRANCH  27  34
ATOM     33  C   UNL     1       3.149   1.874  18.092  0.00  0.00    +0.000 C 
ATOM     34  O   UNL     1       1.905   2.481  18.407  0.00  0.00    +0.000 OA
ENDBRANCH  27  34
ENDBRANCH  23  30
ENDBRANCH  22  24
ENDBRANCH   1  22
TORSDOF 7
ENDMDL
MODEL 2
REMARK VINA RESULT:      -7.2      3.409     10.496
REMARK  Name = 
REMARK  9 active torsions:
REMARK  status: ('A' for Active; 'I' for Inactive)
REMARK    1  A    between atoms: C_1  and  O_2
REMARK    2  A    between atoms: O_2  and  C_3
REMARK    3  A    between atoms: C_6  and  N_7
REMARK    4  A    between atoms: C_8  and  C_10
REMARK    5  A    between atoms: C_10  and  C_11
REMARK    6  A    between atoms: N_14  and  C_15
REMARK    7  A    between atoms: C_18  and  O_19
REMARK    8  A    between atoms: O_19  and  C_20
REMARK    9  A    between atoms: N_25  and  C_26
REMARK                            x       y       z     vdW  Elec       q    Type
REMARK                         _______ _______ _______ _____ _____    ______ ____
ROOT
ATOM      1  C   UNL     1       2.024   7.101  19.340  0.00  0.00    +0.000 C 
ATOM      2  C   UNL     1       3.135   7.414  18.324  0.00  0.00    +0.000 C 
ATOM      3  O   UNL     1       3.254   8.510  17.787  0.00  0.00    +0.000 OA
ATOM      4  N   UNL     1       3.824   6.251  18.075  0.00  0.00    +0.000 N 
ATOM      5  C   UNL     1       3.416   5.274  18.955  0.00  0.00    +0.000 C 
ATOM      6  O   UNL     1       3.869   4.142  19.022  0.00  0.00    +0.000 OA
ATOM      7  N   UNL     1       2.415   5.773  19.784  0.00  0.00    +0.000 N 
ENDROOT
BRANCH   4   8
ATOM      8  C   UNL     1       4.870   6.051  17.131  0.00  0.00    +0.000 A 
ATOM      9  C   UNL     1       6.165   6.535  17.336  0.00  0.00    +0.000 A 
ATOM     10  C   UNL     1       7.188   6.255  16.414  0.00  0.00    +0.000 A 
ATOM     11  C   UNL     1       6.942   5.493  15.270  0.00  0.00    +0.000 A 
ATOM     12  C   UNL     1       5.652   5.043  15.033  0.00  0.00    +0.000 A 
ATOM     13  C   UNL     1       4.636   5.321  15.951  0.00  0.00    +0.000 A 
BRANCH  11  14
ATOM     14  O   UNL     1       8.009   5.278  14.444  0.00  0.00    +0.000 OA
ATOM     15  C   UNL     1       7.696   5.135  13.060  0.00  0.00    +0.000 C 
ENDBRANCH  11  14
ENDBRANCH   4   8
BRANCH   7  16
ATOM     16  C   UNL     1       1.720   5.025  20.844  0.00  0.00    +0.000 C 
ATOM     17  C   UNL     1       0.479   4.277  20.347  0.00  0.00    +0.000 C 
ATOM     18  C   UNL     1       0.779   2.971  19.624  0.00  0.00    +0.000 C 
ATOM     19  C   UNL     1       1.775   2.065  20.352  0.00  0.00    +0.000 C 
ATOM     20  C   UNL     1       2.961   2.752  21.029  0.00  0.00    +0.000 C 
ATOM     21  C   UNL     1       2.621   4.093  21.675  0.00  0.00    +0.000 C 
ENDBRANCH   7  16
BRANCH   1  22
ATOM     22  C   UNL     1       1.846   8.205  20.385  0.00  0.00    +0.000 C 
BRANCH  22  24
ATOM     23  N   UNL     1       0.246   9.621  19.210  0.00  0.00    +0.000 N 
ATOM     24  C   UNL     1       0.465   8.810  20.314  0.00  0.00    +0.000 C 
ATOM     25  O   UNL     1      -0.376   8.554  21.172  0.00  0.00    +0.000 OA
ATOM     26  H   UNL     1       0.912   9.591  18.448  0.00  0.00    +0.000 HD
BRANCH  23  30
ATOM     27  C   UNL     1      -3.385  11.704  18.631  0.00  0.00    +0.000 A 
ATOM     28  C   UNL     1      -2.474  12.147  19.577  0.00  0.00    +0.000 A 
ATOM     29  C   UNL     1      -1.261  11.490  19.744  0.00  0.00    +0.000 A 
ATOM     30  C   UNL     1      -0.948  10.348  19.001  0.00  0.00    +0.000 A 
ATOM     31  C   UNL     1      -1.852   9.917  18.028  0.00  0.00    +0.000 A 
ATOM     32  C   UNL     1      -3.076  10.587  17.853  0.00  0.00    +0.000 A 
BRANCH  27  34
ATOM     33  C   UNL     1      -5.457  12.060  17.559  0.00  0.00    +0.000 C 
ATOM     34  O   UNL     1      -4.549  12.417  18.590  0.00  0.00    +0.000 OA
ENDBRANCH  27  34
ENDBRANCH  23  30
ENDBRANCH  22  24
ENDBRANCH   1  22
TORSDOF 7
ENDMDL
MODEL 3
REMARK VINA RESULT:      -7.0      3.572     11.056
REMARK  Name = 
REMARK  9 active torsions:
REMARK  status: ('A' for Active; 'I' for Inactive)
REMARK    1  A    between atoms: C_1  and  O_2
REMARK    2  A    between atoms: O_2  and  C_3
REMARK    3  A    between atoms: C_6  and  N_7
REMARK    4  A    between atoms: C_8  and  C_10
REMARK    5  A    between atoms: C_10  and  C_11
REMARK    6  A    between atoms: N_14  and  C_15
REMARK    7  A    between atoms: C_18  and  O_19
REMARK    8  A    between atoms: O_19  and  C_20
REMARK    9  A    between atoms: N_25  and  C_26
REMARK                            x       y       z     vdW  Elec       q    Type
REMARK                         _______ _______ _______ _____ _____    ______ ____
ROOT
ATOM      1  C   UNL     1       2.523   6.039  18.600  0.00  0.00    +0.000 C 
ATOM      2  C   UNL     1       3.779   6.298  17.750  0.00  0.00    +0.000 C 
ATOM      3  O   UNL     1       4.336   7.389  17.704  0.00  0.00    +0.000 OA
ATOM      4  N   UNL     1       4.035   5.165  17.015  0.00  0.00    +0.000 N 
ATOM      5  C   UNL     1       3.214   4.144  17.436  0.00  0.00    +0.000 C 
ATOM      6  O   UNL     1       3.227   2.998  17.013  0.00  0.00    +0.000 OA
ATOM      7  N   UNL     1       2.369   4.602  18.443  0.00  0.00    +0.000 N 
ENDROOT
BRANCH   4   8
ATOM      8  C   UNL     1       5.041   4.988  16.023  0.00  0.00    +0.000 A 
ATOM      9  C   UNL     1       4.748   4.537  14.733  0.00  0.00    +0.000 A 
ATOM     10  C   UNL     1       5.757   4.444  13.760  0.00  0.00    +0.000 A 
ATOM     11  C   UNL     1       7.077   4.794  14.053  0.00  0.00    +0.000 A 
ATOM     12  C   UNL     1       7.390   5.203  15.341  0.00  0.00    +0.000 A 
ATOM     13  C   UNL     1       6.384   5.295  16.306  0.00  0.00    +0.000 A 
BRANCH  11  14
ATOM     14  O   UNL     1       7.977   4.670  13.032  0.00  0.00    +0.000 OA
ATOM     15  C   UNL     1       8.660   5.867  12.665  0.00  0.00    +0.000 C 
ENDBRANCH  11  14
ENDBRANCH   4   8
BRANCH   7  16
ATOM     16  C   UNL     1       1.341   3.808  19.136  0.00  0.00    +0.000 C 
ATOM     17  C   UNL     1       1.600   2.300  19.083  0.00  0.00    +0.000 C 
ATOM     18  C   UNL     1       2.647   1.806  20.073  0.00  0.00    +0.000 C 
ATOM     19  C   UNL     1       2.462   2.334  21.498  0.00  0.00    +0.000 C 
ATOM     20  C   UNL     1       2.033   3.795  21.638  0.00  0.00    +0.000 C 
ATOM     21  C   UNL     1       1.038   4.258  20.577  0.00  0.00    +0.000 C 
ENDBRANCH   7  16
BRANCH   1  22
ATOM     22  C   UNL     1       2.633   6.620  20.012  0.00  0.00    +0.000 C 
BRANCH  22  24
ATOM     23  N   UNL     1       1.474   8.232  21.428  0.00  0.00    +0.000 N 
ATOM     24  C   UNL     1       1.862   7.912  20.135  0.00  0.00    +0.000 C 
ATOM     25  O   UNL     1       1.642   8.607  19.146  0.00  0.00    +0.000 OA
ATOM     26  H   UNL     1       1.891   7.722  22.198  0.00  0.00    +0.000 HD
BRANCH  23  30
ATOM     27  C   UNL     1      -0.992  11.553  22.289  0.00  0.00    +0.000 A 
ATOM     28  C   UNL     1      -0.990  10.453  23.132  0.00  0.00    +0.000 A 
ATOM     29  C   UNL     1      -0.152   9.374  22.876  0.00  0.00    +0.000 A 
ATOM     30  C   UNL     1       0.673   9.351  21.747  0.00  0.00    +0.000 A 
ATOM     31  C   UNL     1       0.693  10.470  20.912  0.00  0.00    +0.000 A 
ATOM     32  C   UNL     1      -0.149  11.565  21.176  0.00  0.00    +0.000 A 
BRANCH  27  34
ATOM     33  C   UNL     1      -1.381  13.554  23.477  0.00  0.00    +0.000 C 
ATOM     34  O   UNL     1      -1.883  12.528  22.634  0.00  0.00    +0.000 OA
ENDBRANCH  27  34
ENDBRANCH  23  30
ENDBRANCH  22  24
ENDBRANCH   1  22
TORSDOF 7
ENDMDL
MODEL 4
REMARK VINA RESULT:      -7.0      3.486     11.030
REMARK  Name = 
REMARK  9 active torsions:
REMARK  status: ('A' for Active; 'I' for Inactive)
REMARK    1  A    between atoms: C_1  and  O_2
REMARK    2  A    between atoms: O_2  and  C_3
REMARK    3  A    between atoms: C_6  and  N_7
REMARK    4  A    between atoms: C_8  and  C_10
REMARK    5  A    between atoms: C_10  and  C_11
REMARK    6  A    between atoms: N_14  and  C_15
REMARK    7  A    between atoms: C_18  and  O_19
REMARK    8  A    between atoms: O_19  and  C_20
REMARK    9  A    between atoms: N_25  and  C_26
REMARK                            x       y       z     vdW  Elec       q    Type
REMARK                         _______ _______ _______ _____ _____    ______ ____
ROOT
ATOM      1  C   UNL     1       2.438   6.170  18.562  0.00  0.00    +0.000 C 
ATOM      2  C   UNL     1       3.701   6.403  17.716  0.00  0.00    +0.000 C 
ATOM      3  O   UNL     1       4.253   7.495  17.632  0.00  0.00    +0.000 OA
ATOM      4  N   UNL     1       3.973   5.243  17.029  0.00  0.00    +0.000 N 
ATOM      5  C   UNL     1       3.154   4.235  17.482  0.00  0.00    +0.000 C 
ATOM      6  O   UNL     1       3.178   3.073  17.106  0.00  0.00    +0.000 OA
ATOM      7  N   UNL     1       2.294   4.727  18.462  0.00  0.00    +0.000 N 
ENDROOT
BRANCH   4   8
ATOM      8  C   UNL     1       4.990   5.033  16.056  0.00  0.00    +0.000 A 
ATOM      9  C   UNL     1       4.724   4.465  14.807  0.00  0.00    +0.000 A 
ATOM     10  C   UNL     1       5.741   4.341  13.845  0.00  0.00    +0.000 A 
ATOM     11  C   UNL     1       7.042   4.776  14.109  0.00  0.00    +0.000 A 
ATOM     12  C   UNL     1       7.329   5.303  15.360  0.00  0.00    +0.000 A 
ATOM     13  C   UNL     1       6.316   5.426  16.314  0.00  0.00    +0.000 A 
BRANCH  11  14
ATOM     14  O   UNL     1       7.951   4.611  13.103  0.00  0.00    +0.000 OA
ATOM     15  C   UNL     1       7.401   4.319  11.819  0.00  0.00    +0.000 C 
ENDBRANCH  11  14
ENDBRANCH   4   8
BRANCH   7  16
ATOM     16  C   UNL     1       1.264   3.954  19.175  0.00  0.00    +0.000 C 
ATOM     17  C   UNL     1       1.457   2.440  19.066  0.00  0.00    +0.000 C 
ATOM     18  C   UNL     1       2.523   1.872  19.994  0.00  0.00    +0.000 C 
ATOM     19  C   UNL     1       2.421   2.362  21.441  0.00  0.00    +0.000 C 
ATOM     20  C   UNL     1       2.060   3.834  21.643  0.00  0.00    +0.000 C 
ATOM     21  C   UNL     1       1.042   4.371  20.640  0.00  0.00    +0.000 C 
ENDBRANCH   7  16
BRANCH   1  22
ATOM     22  C   UNL     1       2.530   6.807  19.951  0.00  0.00    +0.000 C 
BRANCH  22  24
ATOM     23  N   UNL     1       1.695   8.800  18.821  0.00  0.00    +0.000 N 
ATOM     24  C   UNL     1       1.747   8.096  20.015  0.00  0.00    +0.000 C 
ATOM     25  O   UNL     1       1.193   8.442  21.056  0.00  0.00    +0.000 OA
ATOM     26  H   UNL     1       1.985   8.332  17.971  0.00  0.00    +0.000 HD
BRANCH  23  30
ATOM     27  C   UNL     1      -0.168  12.582  18.537  0.00  0.00    +0.000 A 
ATOM     28  C   UNL     1       1.212  12.493  18.620  0.00  0.00    +0.000 A 
ATOM     29  C   UNL     1       1.834  11.251  18.674  0.00  0.00    +0.000 A 
ATOM     30  C   UNL     1       1.087  10.069  18.689  0.00  0.00    +0.000 A 
ATOM     31  C   UNL     1      -0.302  10.155  18.576  0.00  0.00    +0.000 A 
ATOM     32  C   UNL     1      -0.930  11.412  18.514  0.00  0.00    +0.000 A 
BRANCH  27  34
ATOM     33  C   UNL     1      -0.808  14.475  19.792  0.00  0.00    +0.000 C 
ATOM     34  O   UNL     1      -0.653  13.859  18.523  0.00  0.00    +0.000 OA
ENDBRANCH  27  34
ENDBRANCH  23  30
ENDBRANCH  22  24
ENDBRANCH   1  22
TORSDOF 7
ENDMDL
MODEL 5
REMARK VINA RESULT:      -7.0      3.344     10.497
REMARK  Name = 
REMARK  9 active torsions:
REMARK  status: ('A' for Active; 'I' for Inactive)
REMARK    1  A    between atoms: C_1  and  O_2
REMARK    2  A    between atoms: O_2  and  C_3
REMARK    3  A    between atoms: C_6  and  N_7
REMARK    4  A    between atoms: C_8  and  C_10
REMARK    5  A    between atoms: C_10  and  C_11
REMARK    6  A    between atoms: N_14  and  C_15
REMARK    7  A    between atoms: C_18  and  O_19
REMARK    8  A    between atoms: O_19  and  C_20
REMARK    9  A    between atoms: N_25  and  C_26
REMARK                            x       y       z     vdW  Elec       q    Type
REMARK                         _______ _______ _______ _____ _____    ______ ____
ROOT
ATOM      1  C   UNL     1       2.085   7.048  19.307  0.00  0.00    +0.000 C 
ATOM      2  C   UNL     1       3.227   7.324  18.315  0.00  0.00    +0.000 C 
ATOM      3  O   UNL     1       3.396   8.416  17.784  0.00  0.00    +0.000 OA
ATOM      4  N   UNL     1       3.879   6.137  18.077  0.00  0.00    +0.000 N 
ATOM      5  C   UNL     1       3.419   5.174  18.946  0.00  0.00    +0.000 C 
ATOM      6  O   UNL     1       3.830   4.026  19.020  0.00  0.00    +0.000 OA
ATOM      7  N   UNL     1       2.419   5.707  19.756  0.00  0.00    +0.000 N 
ENDROOT
BRANCH   4   8
ATOM      8  C   UNL     1       4.937   5.902  17.154  0.00  0.00    +0.000 A 
ATOM      9  C   UNL     1       4.720   5.325  15.900  0.00  0.00    +0.000 A 
ATOM     10  C   UNL     1       5.778   5.177  14.987  0.00  0.00    +0.000 A 
ATOM     11  C   UNL     1       7.071   5.595  15.306  0.00  0.00    +0.000 A 
ATOM     12  C   UNL     1       7.309   6.131  16.563  0.00  0.00    +0.000 A 
ATOM     13  C   UNL     1       6.255   6.279  17.468  0.00  0.00    +0.000 A 
BRANCH  11  14
ATOM     14  O   UNL     1       8.023   5.407  14.344  0.00  0.00    +0.000 OA
ATOM     15  C   UNL     1       7.538   4.967  13.077  0.00  0.00    +0.000 C 
ENDBRANCH  11  14
ENDBRANCH   4   8
BRANCH   7  16
ATOM     16  C   UNL     1       1.676   4.982  20.799  0.00  0.00    +0.000 C 
ATOM     17  C   UNL     1       0.457   4.226  20.263  0.00  0.00    +0.000 C 
ATOM     18  C   UNL     1       0.786   2.904  19.581  0.00  0.00    +0.000 C 
ATOM     19  C   UNL     1       1.746   2.012  20.372  0.00  0.00    +0.000 C 
ATOM     20  C   UNL     1       2.903   2.712  21.086  0.00  0.00    +0.000 C 
ATOM     21  C   UNL     1       2.537   4.066  21.689  0.00  0.00    +0.000 C 
ENDBRANCH   7  16
BRANCH   1  22
ATOM     22  C   UNL     1       1.925   8.156  20.351  0.00  0.00    +0.000 C 
BRANCH  22  24
ATOM     23  N   UNL     1       0.274   9.600  19.285  0.00  0.00    +0.000 N 
ATOM     24  C   UNL     1       0.528   8.728  20.334  0.00  0.00    +0.000 C 
ATOM     25  O   UNL     1      -0.295   8.398  21.185  0.00  0.00    +0.000 OA
ATOM     26  H   UNL     1       0.931   9.635  18.515  0.00  0.00    +0.000 HD
BRANCH  23  30
ATOM     27  C   UNL     1      -3.294  11.809  18.789  0.00  0.00    +0.000 A 
ATOM     28  C   UNL     1      -3.063  10.681  18.017  0.00  0.00    +0.000 A 
ATOM     29  C   UNL     1      -1.910   9.928  18.203  0.00  0.00    +0.000 A 
ATOM     30  C   UNL     1      -0.940  10.308  19.135  0.00  0.00    +0.000 A 
ATOM     31  C   UNL     1      -1.184  11.428  19.934  0.00  0.00    +0.000 A 
ATOM     32  C   UNL     1      -2.355  12.184  19.751  0.00  0.00    +0.000 A 
BRANCH  27  34
ATOM     33  C   UNL     1      -5.495  12.365  19.435  0.00  0.00    +0.000 C 
ATOM     34  O   UNL     1      -4.446  12.475  18.485  0.00  0.00    +0.000 OA
ENDBRANCH  27  34
ENDBRANCH  23  30
ENDBRANCH  22  24
ENDBRANCH   1  22
TORSDOF 7
ENDMDL
MODEL 6
REMARK VINA RESULT:      -7.0      3.882     11.309
REMARK  Name = 
REMARK  9 active torsions:
REMARK  status: ('A' for Active; 'I' for Inactive)
REMARK    1  A    between atoms: C_1  and  O_2
REMARK    2  A    between atoms: O_2  and  C_3
REMARK    3  A    between atoms: C_6  and  N_7
REMARK    4  A    between atoms: C_8  and  C_10
REMARK    5  A    between atoms: C_10  and  C_11
REMARK    6  A    between atoms: N_14  and  C_15
REMARK    7  A    between atoms: C_18  and  O_19
REMARK    8  A    between atoms: O_19  and  C_20
REMARK    9  A    between atoms: N_25  and  C_26
REMARK                            x       y       z     vdW  Elec       q    Type
REMARK                         _______ _______ _______ _____ _____    ______ ____
ROOT
ATOM      1  C   UNL     1       3.287   5.889  18.431  0.00  0.00    +0.000 C 
ATOM      2  C   UNL     1       4.060   6.139  17.126  0.00  0.00    +0.000 C 
ATOM      3  O   UNL     1       4.044   7.217  16.540  0.00  0.00    +0.000 OA
ATOM      4  N   UNL     1       4.619   4.948  16.727  0.00  0.00    +0.000 N 
ATOM      5  C   UNL     1       4.462   4.008  17.721  0.00  0.00    +0.000 C 
ATOM      6  O   UNL     1       4.888   2.864  17.693  0.00  0.00    +0.000 OA
ATOM      7  N   UNL     1       3.759   4.561  18.788  0.00  0.00    +0.000 N 
ENDROOT
BRANCH   4   8
ATOM      8  C   UNL     1       5.338   4.689  15.527  0.00  0.00    +0.000 A 
ATOM      9  C   UNL     1       4.770   4.010  14.446  0.00  0.00    +0.000 A 
ATOM     10  C   UNL     1       5.487   3.839  13.250  0.00  0.00    +0.000 A 
ATOM     11  C   UNL     1       6.785   4.335  13.108  0.00  0.00    +0.000 A 
ATOM     12  C   UNL     1       7.376   4.974  14.188  0.00  0.00    +0.000 A 
ATOM     13  C   UNL     1       6.660   5.145  15.375  0.00  0.00    +0.000 A 
BRANCH  11  14
ATOM     14  O   UNL     1       7.389   4.115  11.903  0.00  0.00    +0.000 OA
ATOM     15  C   UNL     1       7.264   2.793  11.384  0.00  0.00    +0.000 C 
ENDBRANCH  11  14
ENDBRANCH   4   8
BRANCH   7  16
ATOM     16  C   UNL     1       3.386   3.864  20.030  0.00  0.00    +0.000 C 
ATOM     17  C   UNL     1       2.216   4.521  20.767  0.00  0.00    +0.000 C 
ATOM     18  C   UNL     1       0.846   4.208  20.181  0.00  0.00    +0.000 C 
ATOM     19  C   UNL     1       0.614   2.723  19.888  0.00  0.00    +0.000 C 
ATOM     20  C   UNL     1       1.794   1.945  19.306  0.00  0.00    +0.000 C 
ATOM     21  C   UNL     1       3.151   2.350  19.875  0.00  0.00    +0.000 C 
ENDBRANCH   7  16
BRANCH   1  22
ATOM     22  C   UNL     1       3.449   7.026  19.443  0.00  0.00    +0.000 C 
BRANCH  22  24
ATOM     23  N   UNL     1       1.932   8.710  18.544  0.00  0.00    +0.000 N 
ATOM     24  C   UNL     1       2.173   7.822  19.582  0.00  0.00    +0.000 C 
ATOM     25  O   UNL     1       1.424   7.644  20.540  0.00  0.00    +0.000 OA
ATOM     26  H   UNL     1       2.481   8.625  17.697  0.00  0.00    +0.000 HD
BRANCH  23  30
ATOM     27  C   UNL     1      -1.398  11.312  18.540  0.00  0.00    +0.000 A 
ATOM     28  C   UNL     1      -0.292  11.601  19.324  0.00  0.00    +0.000 A 
ATOM     29  C   UNL     1       0.821  10.770  19.300  0.00  0.00    +0.000 A 
ATOM     30  C   UNL     1       0.841   9.608  18.524  0.00  0.00    +0.000 A 
ATOM     31  C   UNL     1      -0.261   9.330  17.711  0.00  0.00    +0.000 A 
ATOM     32  C   UNL     1      -1.384  10.174  17.730  0.00  0.00    +0.000 A 
BRANCH  27  34
ATOM     33  C   UNL     1      -3.675  11.775  18.126  0.00  0.00    +0.000 C 
ATOM     34  O   UNL     1      -2.436  12.188  18.681  0.00  0.00    +0.000 OA
ENDBRANCH  27  34
ENDBRANCH  23  30
ENDBRANCH  22  24
ENDBRANCH   1  22
TORSDOF 7
ENDMDL
MODEL 7
REMARK VINA RESULT:      -6.9      3.311      4.791
REMARK  Name = 
REMARK  9 active torsions:
REMARK  status: ('A' for Active; 'I' for Inactive)
REMARK    1  A    between atoms: C_1  and  O_2
REMARK    2  A    between atoms: O_2  and  C_3
REMARK    3  A    between atoms: C_6  and  N_7
REMARK    4  A    between atoms: C_8  and  C_10
REMARK    5  A    between atoms: C_10  and  C_11
REMARK    6  A    between atoms: N_14  and  C_15
REMARK    7  A    between atoms: C_18  and  O_19
REMARK    8  A    between atoms: O_19  and  C_20
REMARK    9  A    between atoms: N_25  and  C_26
REMARK                            x       y       z     vdW  Elec       q    Type
REMARK                         _______ _______ _______ _____ _____    ______ ____
ROOT
ATOM      1  C   UNL     1       0.176  10.928  18.899  0.00  0.00    +0.000 C 
ATOM      2  C   UNL     1      -1.290  10.576  18.593  0.00  0.00    +0.000 C 
ATOM      3  O   UNL     1      -1.627   9.503  18.103  0.00  0.00    +0.000 OA
ATOM      4  N   UNL     1      -2.056  11.688  18.846  0.00  0.00    +0.000 N 
ATOM      5  C   UNL     1      -1.288  12.648  19.465  0.00  0.00    +0.000 C 
ATOM      6  O   UNL     1      -1.686  13.733  19.860  0.00  0.00    +0.000 OA
ATOM      7  N   UNL     1       0.021  12.192  19.599  0.00  0.00    +0.000 N 
ENDROOT
BRANCH   4   8
ATOM      8  C   UNL     1      -3.451  11.849  18.612  0.00  0.00    +0.000 A 
ATOM      9  C   UNL     1      -4.342  12.215  19.624  0.00  0.00    +0.000 A 
ATOM     10  C   UNL     1      -5.700  12.434  19.338  0.00  0.00    +0.000 A 
ATOM     11  C   UNL     1      -6.198  12.290  18.041  0.00  0.00    +0.000 A 
ATOM     12  C   UNL     1      -5.332  11.886  17.035  0.00  0.00    +0.000 A 
ATOM     13  C   UNL     1      -3.983  11.669  17.322  0.00  0.00    +0.000 A 
BRANCH  11  14
ATOM     14  O   UNL     1      -7.532  12.531  17.874  0.00  0.00    +0.000 OA
ATOM     15  C   UNL     1      -7.916  13.905  17.893  0.00  0.00    +0.000 C 
ENDBRANCH  11  14
ENDBRANCH   4   8
BRANCH   7  16
ATOM     16  C   UNL     1       1.138  12.939  20.199  0.00  0.00    +0.000 C 
ATOM     17  C   UNL     1       2.453  12.790  19.429  0.00  0.00    +0.000 C 
ATOM     18  C   UNL     1       2.551  13.653  18.177  0.00  0.00    +0.000 C 
ATOM     19  C   UNL     1       2.140  15.113  18.387  0.00  0.00    +0.000 C 
ATOM     20  C   UNL     1       0.931  15.362  19.290  0.00  0.00    +0.000 C 
ATOM     21  C   UNL     1       0.842  14.423  20.489  0.00  0.00    +0.000 C 
ENDBRANCH   7  16
BRANCH   1  22
ATOM     22  C   UNL     1       0.927   9.788  19.593  0.00  0.00    +0.000 C 
BRANCH  22  24
ATOM     23  N   UNL     1       2.160   7.741  19.107  0.00  0.00    +0.000 N 
ATOM     24  C   UNL     1       1.668   8.932  18.593  0.00  0.00    +0.000 C 
ATOM     25  O   UNL     1       1.778   9.289  17.423  0.00  0.00    +0.000 OA
ATOM     26  H   UNL     1       1.829   7.431  20.013  0.00  0.00    +0.000 HD
BRANCH  23  30
ATOM     27  C   UNL     1       4.448   5.044  16.795  0.00  0.00    +0.000 A 
ATOM     28  C   UNL     1       4.874   6.353  16.957  0.00  0.00    +0.000 A 
ATOM     29  C   UNL     1       4.147   7.234  17.748  0.00  0.00    +0.000 A 
ATOM     30  C   UNL     1       2.954   6.840  18.362  0.00  0.00    +0.000 A 
ATOM     31  C   UNL     1       2.538   5.514  18.223  0.00  0.00    +0.000 A 
ATOM     32  C   UNL     1       3.278   4.621  17.429  0.00  0.00    +0.000 A 
BRANCH  27  34
ATOM     33  C   UNL     1       6.571   4.740  15.811  0.00  0.00    +0.000 C 
ATOM     34  O   UNL     1       5.233   4.293  15.968  0.00  0.00    +0.000 OA
ENDBRANCH  27  34
ENDBRANCH  23  30
ENDBRANCH  22  24
ENDBRANCH   1  22
TORSDOF 7
ENDMDL
MODEL 8
REMARK VINA RESULT:      -6.9      3.541     10.996
REMARK  Name = 
REMARK  9 active torsions:
REMARK  status: ('A' for Active; 'I' for Inactive)
REMARK    1  A    between atoms: C_1  and  O_2
REMARK    2  A    between atoms: O_2  and  C_3
REMARK    3  A    between atoms: C_6  and  N_7
REMARK    4  A    between atoms: C_8  and  C_10
REMARK    5  A    between atoms: C_10  and  C_11
REMARK    6  A    between atoms: N_14  and  C_15
REMARK    7  A    between atoms: C_18  and  O_19
REMARK    8  A    between atoms: O_19  and  C_20
REMARK    9  A    between atoms: N_25  and  C_26
REMARK                            x       y       z     vdW  Elec       q    Type
REMARK                         _______ _______ _______ _____ _____    ______ ____
ROOT
ATOM      1  C   UNL     1       2.876   6.148  18.989  0.00  0.00    +0.000 C 
ATOM      2  C   UNL     1       3.743   6.523  17.775  0.00  0.00    +0.000 C 
ATOM      3  O   UNL     1       3.724   7.637  17.263  0.00  0.00    +0.000 OA
ATOM      4  N   UNL     1       4.389   5.387  17.348  0.00  0.00    +0.000 N 
ATOM      5  C   UNL     1       4.196   4.374  18.259  0.00  0.00    +0.000 C 
ATOM      6  O   UNL     1       4.677   3.253  18.191  0.00  0.00    +0.000 OA
ATOM      7  N   UNL     1       3.380   4.820  19.295  0.00  0.00    +0.000 N 
ENDROOT
BRANCH   4   8
ATOM      8  C   UNL     1       5.218   5.245  16.199  0.00  0.00    +0.000 A 
ATOM      9  C   UNL     1       6.518   5.756  16.148  0.00  0.00    +0.000 A 
ATOM     10  C   UNL     1       7.332   5.532  15.024  0.00  0.00    +0.000 A 
ATOM     11  C   UNL     1       6.867   4.800  13.930  0.00  0.00    +0.000 A 
ATOM     12  C   UNL     1       5.564   4.323  13.950  0.00  0.00    +0.000 A 
ATOM     13  C   UNL     1       4.758   4.546  15.069  0.00  0.00    +0.000 A 
BRANCH  11  14
ATOM     14  O   UNL     1       7.741   4.639  12.892  0.00  0.00    +0.000 OA
ATOM     15  C   UNL     1       7.236   3.922  11.768  0.00  0.00    +0.000 C 
ENDBRANCH  11  14
ENDBRANCH   4   8
BRANCH   7  16
ATOM     16  C   UNL     1       2.938   4.022  20.450  0.00  0.00    +0.000 C 
ATOM     17  C   UNL     1       1.491   4.301  20.864  0.00  0.00    +0.000 C 
ATOM     18  C   UNL     1       0.443   3.618  19.994  0.00  0.00    +0.000 C 
ATOM     19  C   UNL     1       0.717   2.135  19.730  0.00  0.00    +0.000 C 
ATOM     20  C   UNL     1       2.173   1.741  19.475  0.00  0.00    +0.000 C 
ATOM     21  C   UNL     1       3.185   2.507  20.322  0.00  0.00    +0.000 C 
ENDBRANCH   7  16
BRANCH   1  22
ATOM     22  C   UNL     1       2.897   7.217  20.085  0.00  0.00    +0.000 C 
BRANCH  22  24
ATOM     23  N   UNL     1       1.471   8.969  19.168  0.00  0.00    +0.000 N 
ATOM     24  C   UNL     1       1.595   7.979  20.132  0.00  0.00    +0.000 C 
ATOM     25  O   UNL     1       0.731   7.695  20.958  0.00  0.00    +0.000 OA
ATOM     26  H   UNL     1       2.129   8.979  18.397  0.00  0.00    +0.000 HD
BRANCH  23  30
ATOM     27  C   UNL     1      -1.896  11.514  18.954  0.00  0.00    +0.000 A 
ATOM     28  C   UNL     1      -1.077  11.538  20.072  0.00  0.00    +0.000 A 
ATOM     29  C   UNL     1       0.053  10.732  20.132  0.00  0.00    +0.000 A 
ATOM     30  C   UNL     1       0.370   9.852  19.093  0.00  0.00    +0.000 A 
ATOM     31  C   UNL     1      -0.438   9.846  17.953  0.00  0.00    +0.000 A 
ATOM     32  C   UNL     1      -1.577  10.667  17.890  0.00  0.00    +0.000 A 
BRANCH  27  34
ATOM     33  C   UNL     1      -4.231  11.732  18.695  0.00  0.00    +0.000 C 
ATOM     34  O   UNL     1      -2.989  12.327  19.036  0.00  0.00    +0.000 OA
ENDBRANCH  27  34
ENDBRANCH  23  30
ENDBRANCH  22  24
ENDBRANCH   1  22
TORSDOF 7
ENDMDL
MODEL 9
REMARK VINA RESULT:      -6.9      3.309      4.797
REMARK  Name = 
REMARK  9 active torsions:
REMARK  status: ('A' for Active; 'I' for Inactive)
REMARK    1  A    between atoms: C_1  and  O_2
REMARK    2  A    between atoms: O_2  and  C_3
REMARK    3  A    between atoms: C_6  and  N_7
REMARK    4  A    between atoms: C_8  and  C_10
REMARK    5  A    between atoms: C_10  and  C_11
REMARK    6  A    between atoms: N_14  and  C_15
REMARK    7  A    between atoms: C_18  and  O_19
REMARK    8  A    between atoms: O_19  and  C_20
REMARK    9  A    between atoms: N_25  and  C_26
REMARK                            x       y       z     vdW  Elec       q    Type
REMARK                         _______ _______ _______ _____ _____    ______ ____
ROOT
ATOM      1  C   UNL     1       0.332  10.868  18.817  0.00  0.00    +0.000 C 
ATOM      2  C   UNL     1      -1.149  10.557  18.545  0.00  0.00    +0.000 C 
ATOM      3  O   UNL     1      -1.527   9.493  18.065  0.00  0.00    +0.000 OA
ATOM      4  N   UNL     1      -1.878  11.691  18.813  0.00  0.00    +0.000 N 
ATOM      5  C   UNL     1      -1.070  12.630  19.413  0.00  0.00    +0.000 C 
ATOM      6  O   UNL     1      -1.428  13.726  19.814  0.00  0.00    +0.000 OA
ATOM      7  N   UNL     1       0.229  12.137  19.518  0.00  0.00    +0.000 N 
ENDROOT
BRANCH   4   8
ATOM      8  C   UNL     1      -3.273  11.890  18.610  0.00  0.00    +0.000 A 
ATOM      9  C   UNL     1      -3.883  11.692  17.369  0.00  0.00    +0.000 A 
ATOM     10  C   UNL     1      -5.275  11.827  17.225  0.00  0.00    +0.000 A 
ATOM     11  C   UNL     1      -6.084  12.166  18.311  0.00  0.00    +0.000 A 
ATOM     12  C   UNL     1      -5.486  12.407  19.540  0.00  0.00    +0.000 A 
ATOM     13  C   UNL     1      -4.103  12.271  19.680  0.00  0.00    +0.000 A 
BRANCH  11  14
ATOM     14  O   UNL     1      -7.423  12.268  18.060  0.00  0.00    +0.000 OA
ATOM     15  C   UNL     1      -7.917  13.595  17.884  0.00  0.00    +0.000 C 
ENDBRANCH  11  14
ENDBRANCH   4   8
BRANCH   7  16
ATOM     16  C   UNL     1       1.380  12.854  20.091  0.00  0.00    +0.000 C 
ATOM     17  C   UNL     1       2.596  12.893  19.161  0.00  0.00    +0.000 C 
ATOM     18  C   UNL     1       2.505  13.931  18.050  0.00  0.00    +0.000 C 
ATOM     19  C   UNL     1       2.065  15.319  18.522  0.00  0.00    +0.000 C 
ATOM     20  C   UNL     1       0.966  15.366  19.584  0.00  0.00    +0.000 C 
ATOM     21  C   UNL     1       1.062  14.261  20.631  0.00  0.00    +0.000 C 
ENDBRANCH   7  16
BRANCH   1  22
ATOM     22  C   UNL     1       1.066   9.709  19.496  0.00  0.00    +0.000 C 
BRANCH  22  24
ATOM     23  N   UNL     1       2.178   7.603  18.970  0.00  0.00    +0.000 N 
ATOM     24  C   UNL     1       1.764   8.834  18.482  0.00  0.00    +0.000 C 
ATOM     25  O   UNL     1       1.909   9.212  17.322  0.00  0.00    +0.000 OA
ATOM     26  H   UNL     1       1.818   7.292  19.864  0.00  0.00    +0.000 HD
BRANCH  23  30
ATOM     27  C   UNL     1       4.492   4.826  16.782  0.00  0.00    +0.000 A 
ATOM     28  C   UNL     1       3.311   4.422  17.386  0.00  0.00    +0.000 A 
ATOM     29  C   UNL     1       2.526   5.339  18.074  0.00  0.00    +0.000 A 
ATOM     30  C   UNL     1       2.922   6.673  18.210  0.00  0.00    +0.000 A 
ATOM     31  C   UNL     1       4.097   7.088  17.578  0.00  0.00    +0.000 A 
ATOM     32  C   UNL     1       4.888   6.162  16.876  0.00  0.00    +0.000 A 
BRANCH  27  34
ATOM     33  C   UNL     1       6.243   4.231  15.316  0.00  0.00    +0.000 C 
ATOM     34  O   UNL     1       5.184   3.822  16.168  0.00  0.00    +0.000 OA
ENDBRANCH  27  34
ENDBRANCH  23  30
ENDBRANCH  22  24
ENDBRANCH   1  22
TORSDOF 7
ENDMDL
