MODEL 1
REMARK VINA RESULT:      -8.3      0.000      0.000
REMARK  Name = 
REMARK  4 active torsions:
REMARK  status: ('A' for Active; 'I' for Inactive)
REMARK    1  A    between atoms: C_2  and  C_3
REMARK    2  A    between atoms: C_3  and  S_4
REMARK    3  A    between atoms: S_4  and  C_5
REMARK    4  A    between atoms: N_18  and  C_19
REMARK                            x       y       z     vdW  Elec       q    Type
REMARK                         _______ _______ _______ _____ _____    ______ ____
ROOT
ATOM      1  C   UNL     1       4.746   3.366  18.500  0.00  0.00    +0.000 C 
ATOM      2  N   UNL     1       5.507   4.197  19.109  0.00  0.00    +0.000 NA
ATOM      3  S   UNL     1       6.624   5.011  18.273  0.00  0.00    +0.000 S 
ATOM      4  O   UNL     1       6.318   6.424  18.371  0.00  0.00    +0.000 OA
ATOM      5  O   UNL     1       7.932   4.510  18.646  0.00  0.00    +0.000 OA
ATOM      6  C   UNL     1       6.440   4.613  16.565  0.00  0.00    +0.000 A 
ATOM      7  C   UNL     1       7.237   5.265  15.619  0.00  0.00    +0.000 A 
ATOM      8  C   UNL     1       7.080   4.930  14.282  0.00  0.00    +0.000 A 
ATOM      9  F   UNL     1       7.825   5.541  13.355  0.00  0.00    +0.000 F 
ATOM     10  C   UNL     1       6.158   3.964  13.894  0.00  0.00    +0.000 A 
ATOM     11  C   UNL     1       5.368   3.324  14.857  0.00  0.00    +0.000 A 
ATOM     12  C   UNL     1       5.493   3.657  16.213  0.00  0.00    +0.000 A 
ATOM     13  N   UNL     1       4.712   3.031  17.179  0.00  0.00    +0.000 N 
ATOM     14  H   UNL     1       3.980   2.400  16.875  0.00  0.00    +0.000 HD
ENDROOT
BRANCH   1  15
ATOM     15  S   UNL     1       3.502   2.527  19.437  0.00  0.00    +0.000 S 
BRANCH  15  16
ATOM     16  C   UNL     1       3.146   3.785  20.701  0.00  0.00    +0.000 C 
BRANCH  16  18
ATOM     17  O   UNL     1       1.042   4.690  20.048  0.00  0.00    +0.000 OA
ATOM     18  C   UNL     1       2.242   4.910  20.207  0.00  0.00    +0.000 C 
ATOM     19  N   UNL     1       2.856   6.140  20.029  0.00  0.00    +0.000 N 
ATOM     20  H   UNL     1       3.870   6.125  19.994  0.00  0.00    +0.000 HD
BRANCH  19  21
ATOM     21  C   UNL     1       2.217   7.338  19.635  0.00  0.00    +0.000 A 
ATOM     22  C   UNL     1       2.249   7.828  18.326  0.00  0.00    +0.000 A 
ATOM     23  C   UNL     1       1.686   9.070  18.013  0.00  0.00    +0.000 A 
ATOM     24  C   UNL     1       1.074   9.823  19.008  0.00  0.00    +0.000 A 
ATOM     25 CL   UNL     1       0.451  11.384  18.642  0.00  0.00    +0.000 Cl
ATOM     26  C   UNL     1       0.977   9.320  20.303  0.00  0.00    +0.000 A 
ATOM     27  C   UNL     1       1.534   8.073  20.613  0.00  0.00    +0.000 A 
ENDBRANCH  19  21
ENDBRANCH  16  18
ENDBRANCH  15  16
ENDBRANCH   1  15
TORSDOF 4
ENDMDL
MODEL 2
REMARK VINA RESULT:      -8.2      0.338      1.021
REMARK  Name = 
REMARK  4 active torsions:
REMARK  status: ('A' for Active; 'I' for Inactive)
REMARK    1  A    between atoms: C_2  and  C_3
REMARK    2  A    between atoms: C_3  and  S_4
REMARK    3  A    between atoms: S_4  and  C_5
REMARK    4  A    between atoms: N_18  and  C_19
REMARK                            x       y       z     vdW  Elec       q    Type
REMARK                         _______ _______ _______ _____ _____    ______ ____
ROOT
ATOM      1  C   UNL     1       4.707   3.566  18.297  0.00  0.00    +0.000 C 
ATOM      2  N   UNL     1       5.507   4.333  18.939  0.00  0.00    +0.000 NA
ATOM      3  S   UNL     1       6.727   5.043  18.156  0.00  0.00    +0.000 S 
ATOM      4  O   UNL     1       6.540   6.478  18.234  0.00  0.00    +0.000 OA
ATOM      5  O   UNL     1       7.969   4.434  18.592  0.00  0.00    +0.000 OA
ATOM      6  C   UNL     1       6.591   4.650  16.442  0.00  0.00    +0.000 A 
ATOM      7  C   UNL     1       7.485   5.225  15.533  0.00  0.00    +0.000 A 
ATOM      8  C   UNL     1       7.364   4.894  14.192  0.00  0.00    +0.000 A 
ATOM      9  F   UNL     1       8.202   5.433  13.299  0.00  0.00    +0.000 F 
ATOM     10  C   UNL     1       6.382   4.008  13.762  0.00  0.00    +0.000 A 
ATOM     11  C   UNL     1       5.495   3.445  14.688  0.00  0.00    +0.000 A 
ATOM     12  C   UNL     1       5.584   3.776  16.047  0.00  0.00    +0.000 A 
ATOM     13  N   UNL     1       4.707   3.227  16.977  0.00  0.00    +0.000 N 
ATOM     14  H   UNL     1       3.939   2.658  16.640  0.00  0.00    +0.000 HD
ENDROOT
BRANCH   1  15
ATOM     15  S   UNL     1       3.352   2.844  19.175  0.00  0.00    +0.000 S 
BRANCH  15  16
ATOM     16  C   UNL     1       3.250   3.973  20.598  0.00  0.00    +0.000 C 
BRANCH  16  18
ATOM     17  O   UNL     1       1.107   5.003  20.737  0.00  0.00    +0.000 OA
ATOM     18  C   UNL     1       2.281   5.132  20.390  0.00  0.00    +0.000 C 
ATOM     19  N   UNL     1       2.832   6.290  19.867  0.00  0.00    +0.000 N 
ATOM     20  H   UNL     1       3.746   6.189  19.438  0.00  0.00    +0.000 HD
BRANCH  19  21
ATOM     21  C   UNL     1       2.149   7.507  19.640  0.00  0.00    +0.000 A 
ATOM     22  C   UNL     1       1.461   8.198  20.643  0.00  0.00    +0.000 A 
ATOM     23  C   UNL     1       0.717   9.344  20.341  0.00  0.00    +0.000 A 
ATOM     24  C   UNL     1       0.669   9.813  19.034  0.00  0.00    +0.000 A 
ATOM     25 CL   UNL     1      -0.308  11.175  18.647  0.00  0.00    +0.000 Cl
ATOM     26  C   UNL     1       1.401   9.174  18.036  0.00  0.00    +0.000 A 
ATOM     27  C   UNL     1       2.151   8.032  18.341  0.00  0.00    +0.000 A 
ENDBRANCH  19  21
ENDBRANCH  16  18
ENDBRANCH  15  16
ENDBRANCH   1  15
TORSDOF 4
ENDMDL
MODEL 3
REMARK VINA RESULT:      -8.0      4.185      6.678
REMARK  Name = 
REMARK  4 active torsions:
REMARK  status: ('A' for Active; 'I' for Inactive)
REMARK    1  A    between atoms: C_2  and  C_3
REMARK    2  A    between atoms: C_3  and  S_4
REMARK    3  A    between atoms: S_4  and  C_5
REMARK    4  A    between atoms: N_18  and  C_19
REMARK                            x       y       z     vdW  Elec       q    Type
REMARK                         _______ _______ _______ _____ _____    ______ ____
ROOT
ATOM      1  C   UNL     1       5.678   5.186  19.238  0.00  0.00    +0.000 C 
ATOM      2  N   UNL     1       4.875   6.181  19.308  0.00  0.00    +0.000 NA
ATOM      3  S   UNL     1       3.294   5.942  19.080  0.00  0.00    +0.000 S 
ATOM      4  O   UNL     1       2.603   6.303  20.302  0.00  0.00    +0.000 OA
ATOM      5  O   UNL     1       2.917   6.538  17.813  0.00  0.00    +0.000 OA
ATOM      6  C   UNL     1       3.015   4.211  18.884  0.00  0.00    +0.000 A 
ATOM      7  C   UNL     1       1.705   3.736  18.763  0.00  0.00    +0.000 A 
ATOM      8  C   UNL     1       1.512   2.373  18.601  0.00  0.00    +0.000 A 
ATOM      9  F   UNL     1       0.269   1.890  18.488  0.00  0.00    +0.000 F 
ATOM     10  C   UNL     1       2.593   1.500  18.554  0.00  0.00    +0.000 A 
ATOM     11  C   UNL     1       3.897   1.996  18.679  0.00  0.00    +0.000 A 
ATOM     12  C   UNL     1       4.120   3.368  18.862  0.00  0.00    +0.000 A 
ATOM     13  N   UNL     1       5.411   3.872  18.991  0.00  0.00    +0.000 N 
ATOM     14  H   UNL     1       6.182   3.219  19.050  0.00  0.00    +0.000 HD
ENDROOT
BRANCH   1  15
ATOM     15  S   UNL     1       7.397   5.474  19.541  0.00  0.00    +0.000 S 
BRANCH  15  16
ATOM     16  C   UNL     1       7.777   6.623  18.183  0.00  0.00    +0.000 C 
BRANCH  16  18
ATOM     17  O   UNL     1       6.271   7.123  16.406  0.00  0.00    +0.000 OA
ATOM     18  C   UNL     1       7.047   6.296  16.884  0.00  0.00    +0.000 C 
ATOM     19  N   UNL     1       7.374   5.083  16.300  0.00  0.00    +0.000 N 
ATOM     20  H   UNL     1       7.858   4.422  16.899  0.00  0.00    +0.000 HD
BRANCH  19  21
ATOM     21  C   UNL     1       6.875   4.590  15.073  0.00  0.00    +0.000 A 
ATOM     22  C   UNL     1       7.492   4.832  13.842  0.00  0.00    +0.000 A 
ATOM     23  C   UNL     1       6.900   4.407  12.648  0.00  0.00    +0.000 A 
ATOM     24  C   UNL     1       5.691   3.723  12.681  0.00  0.00    +0.000 A 
ATOM     25 CL   UNL     1       4.922   3.268  11.211  0.00  0.00    +0.000 Cl
ATOM     26  C   UNL     1       5.095   3.417  13.902  0.00  0.00    +0.000 A 
ATOM     27  C   UNL     1       5.694   3.836  15.096  0.00  0.00    +0.000 A 
ENDBRANCH  19  21
ENDBRANCH  16  18
ENDBRANCH  15  16
ENDBRANCH   1  15
TORSDOF 4
ENDMDL
MODEL 4
REMARK VINA RESULT:      -7.9      4.298      7.032
REMARK  Name = 
REMARK  4 active torsions:
REMARK  status: ('A' for Active; 'I' for Inactive)
REMARK    1  A    between atoms: C_2  and  C_3
REMARK    2  A    between atoms: C_3  and  S_4
REMARK    3  A    between atoms: S_4  and  C_5
REMARK    4  A    between atoms: N_18  and  C_19
REMARK                            x       y       z     vdW  Elec       q    Type
REMARK                         _______ _______ _______ _____ _____    ______ ____
ROOT
ATOM      1  C   UNL     1       5.412   5.345  19.209  0.00  0.00    +0.000 C 
ATOM      2  N   UNL     1       4.567   6.300  19.331  0.00  0.00    +0.000 NA
ATOM      3  S   UNL     1       2.993   5.995  19.141  0.00  0.00    +0.000 S 
ATOM      4  O   UNL     1       2.322   6.292  20.391  0.00  0.00    +0.000 OA
ATOM      5  O   UNL     1       2.552   6.608  17.902  0.00  0.00    +0.000 OA
ATOM      6  C   UNL     1       2.786   4.260  18.903  0.00  0.00    +0.000 A 
ATOM      7  C   UNL     1       1.495   3.729  18.806  0.00  0.00    +0.000 A 
ATOM      8  C   UNL     1       1.359   2.363  18.611  0.00  0.00    +0.000 A 
ATOM      9  F   UNL     1       0.136   1.827  18.519  0.00  0.00    +0.000 F 
ATOM     10  C   UNL     1       2.476   1.542  18.508  0.00  0.00    +0.000 A 
ATOM     11  C   UNL     1       3.760   2.093  18.611  0.00  0.00    +0.000 A 
ATOM     12  C   UNL     1       3.927   3.468  18.826  0.00  0.00    +0.000 A 
ATOM     13  N   UNL     1       5.196   4.027  18.933  0.00  0.00    +0.000 N 
ATOM     14  H   UNL     1       5.997   3.408  18.951  0.00  0.00    +0.000 HD
ENDROOT
BRANCH   1  15
ATOM     15  S   UNL     1       7.125   5.703  19.472  0.00  0.00    +0.000 S 
BRANCH  15  16
ATOM     16  C   UNL     1       7.575   6.349  17.832  0.00  0.00    +0.000 C 
BRANCH  16  18
ATOM     17  O   UNL     1       7.875   4.181  16.894  0.00  0.00    +0.000 OA
ATOM     18  C   UNL     1       7.447   5.320  16.714  0.00  0.00    +0.000 C 
ATOM     19  N   UNL     1       6.784   5.750  15.575  0.00  0.00    +0.000 N 
ATOM     20  H   UNL     1       6.674   6.754  15.481  0.00  0.00    +0.000 HD
BRANCH  19  21
ATOM     21  C   UNL     1       6.494   4.964  14.436  0.00  0.00    +0.000 A 
ATOM     22  C   UNL     1       5.328   4.203  14.307  0.00  0.00    +0.000 A 
ATOM     23  C   UNL     1       5.139   3.364  13.203  0.00  0.00    +0.000 A 
ATOM     24  C   UNL     1       6.113   3.292  12.214  0.00  0.00    +0.000 A 
ATOM     25 CL   UNL     1       5.919   2.204  10.897  0.00  0.00    +0.000 Cl
ATOM     26  C   UNL     1       7.250   4.092  12.295  0.00  0.00    +0.000 A 
ATOM     27  C   UNL     1       7.433   4.937  13.396  0.00  0.00    +0.000 A 
ENDBRANCH  19  21
ENDBRANCH  16  18
ENDBRANCH  15  16
ENDBRANCH   1  15
TORSDOF 4
ENDMDL
MODEL 5
REMARK VINA RESULT:      -7.6      5.338      7.035
REMARK  Name = 
REMARK  4 active torsions:
REMARK  status: ('A' for Active; 'I' for Inactive)
REMARK    1  A    between atoms: C_2  and  C_3
REMARK    2  A    between atoms: C_3  and  S_4
REMARK    3  A    between atoms: S_4  and  C_5
REMARK    4  A    between atoms: N_18  and  C_19
REMARK                            x       y       z     vdW  Elec       q    Type
REMARK                         _______ _______ _______ _____ _____    ______ ____
ROOT
ATOM      1  C   UNL     1       5.174   5.616  17.819  0.00  0.00    +0.000 C 
ATOM      2  N   UNL     1       4.248   6.502  17.810  0.00  0.00    +0.000 NA
ATOM      3  S   UNL     1       2.889   6.238  18.641  0.00  0.00    +0.000 S 
ATOM      4  O   UNL     1       2.777   7.262  19.659  0.00  0.00    +0.000 OA
ATOM      5  O   UNL     1       1.811   6.011  17.697  0.00  0.00    +0.000 OA
ATOM      6  C   UNL     1       3.062   4.721  19.524  0.00  0.00    +0.000 A 
ATOM      7  C   UNL     1       2.047   4.315  20.396  0.00  0.00    +0.000 A 
ATOM      8  C   UNL     1       2.203   3.116  21.074  0.00  0.00    +0.000 A 
ATOM      9  F   UNL     1       1.250   2.704  21.918  0.00  0.00    +0.000 F 
ATOM     10  C   UNL     1       3.336   2.332  20.886  0.00  0.00    +0.000 A 
ATOM     11  C   UNL     1       4.342   2.758  20.009  0.00  0.00    +0.000 A 
ATOM     12  C   UNL     1       4.219   3.976  19.326  0.00  0.00    +0.000 A 
ATOM     13  N   UNL     1       5.213   4.412  18.455  0.00  0.00    +0.000 N 
ATOM     14  H   UNL     1       6.073   3.881  18.399  0.00  0.00    +0.000 HD
ENDROOT
BRANCH   1  15
ATOM     15  S   UNL     1       6.670   5.959  16.939  0.00  0.00    +0.000 S 
BRANCH  15  16
ATOM     16  C   UNL     1       7.683   6.655  18.280  0.00  0.00    +0.000 C 
BRANCH  16  18
ATOM     17  O   UNL     1       7.428   8.768  17.211  0.00  0.00    +0.000 OA
ATOM     18  C   UNL     1       7.993   8.138  18.104  0.00  0.00    +0.000 C 
ATOM     19  N   UNL     1       8.869   8.682  19.030  0.00  0.00    +0.000 N 
ATOM     20  H   UNL     1       9.412   8.016  19.568  0.00  0.00    +0.000 HD
BRANCH  19  21
ATOM     21  C   UNL     1       9.261  10.038  19.104  0.00  0.00    +0.000 A 
ATOM     22  C   UNL     1       9.652  10.785  17.989  0.00  0.00    +0.000 A 
ATOM     23  C   UNL     1      10.127  12.093  18.133  0.00  0.00    +0.000 A 
ATOM     24  C   UNL     1      10.201  12.667  19.397  0.00  0.00    +0.000 A 
ATOM     25 CL   UNL     1      10.859  14.244  19.586  0.00  0.00    +0.000 Cl
ATOM     26  C   UNL     1       9.755  11.960  20.511  0.00  0.00    +0.000 A 
ATOM     27  C   UNL     1       9.272  10.654  20.363  0.00  0.00    +0.000 A 
ENDBRANCH  19  21
ENDBRANCH  16  18
ENDBRANCH  15  16
ENDBRANCH   1  15
TORSDOF 4
ENDMDL
MODEL 6
REMARK VINA RESULT:      -7.5      5.226      6.962
REMARK  Name = 
REMARK  4 active torsions:
REMARK  status: ('A' for Active; 'I' for Inactive)
REMARK    1  A    between atoms: C_2  and  C_3
REMARK    2  A    between atoms: C_3  and  S_4
REMARK    3  A    between atoms: S_4  and  C_5
REMARK    4  A    between atoms: N_18  and  C_19
REMARK                            x       y       z     vdW  Elec       q    Type
REMARK                         _______ _______ _______ _____ _____    ______ ____
ROOT
ATOM      1  C   UNL     1       5.275   5.489  17.854  0.00  0.00    +0.000 C 
ATOM      2  N   UNL     1       4.354   6.378  17.800  0.00  0.00    +0.000 NA
ATOM      3  S   UNL     1       2.970   6.137  18.598  0.00  0.00    +0.000 S 
ATOM      4  O   UNL     1       2.835   7.183  19.591  0.00  0.00    +0.000 OA
ATOM      5  O   UNL     1       1.918   5.896  17.629  0.00  0.00    +0.000 OA
ATOM      6  C   UNL     1       3.112   4.639  19.517  0.00  0.00    +0.000 A 
ATOM      7  C   UNL     1       2.071   4.255  20.369  0.00  0.00    +0.000 A 
ATOM      8  C   UNL     1       2.201   3.069  21.075  0.00  0.00    +0.000 A 
ATOM      9  F   UNL     1       1.223   2.679  21.900  0.00  0.00    +0.000 F 
ATOM     10  C   UNL     1       3.336   2.277  20.935  0.00  0.00    +0.000 A 
ATOM     11  C   UNL     1       4.368   2.681  20.079  0.00  0.00    +0.000 A 
ATOM     12  C   UNL     1       4.270   3.884  19.367  0.00  0.00    +0.000 A 
ATOM     13  N   UNL     1       5.290   4.298  18.516  0.00  0.00    +0.000 N 
ATOM     14  H   UNL     1       6.149   3.762  18.494  0.00  0.00    +0.000 HD
ENDROOT
BRANCH   1  15
ATOM     15  S   UNL     1       6.796   5.807  17.009  0.00  0.00    +0.000 S 
BRANCH  15  16
ATOM     16  C   UNL     1       7.762   6.562  18.353  0.00  0.00    +0.000 C 
BRANCH  16  18
ATOM     17  O   UNL     1       7.377   8.661  17.296  0.00  0.00    +0.000 OA
ATOM     18  C   UNL     1       7.999   8.057  18.170  0.00  0.00    +0.000 C 
ATOM     19  N   UNL     1       8.876   8.642  19.069  0.00  0.00    +0.000 N 
ATOM     20  H   UNL     1       9.466   8.001  19.589  0.00  0.00    +0.000 HD
BRANCH  19  21
ATOM     21  C   UNL     1       9.208  10.014  19.133  0.00  0.00    +0.000 A 
ATOM     22  C   UNL     1       9.274  10.731  20.332  0.00  0.00    +0.000 A 
ATOM     23  C   UNL     1       9.508  12.111  20.329  0.00  0.00    +0.000 A 
ATOM     24  C   UNL     1       9.691  12.779  19.124  0.00  0.00    +0.000 A 
ATOM     25 CL   UNL     1       9.899  14.486  19.113  0.00  0.00    +0.000 Cl
ATOM     26  C   UNL     1       9.692  12.069  17.926  0.00  0.00    +0.000 A 
ATOM     27  C   UNL     1       9.466  10.687  17.931  0.00  0.00    +0.000 A 
ENDBRANCH  19  21
ENDBRANCH  16  18
ENDBRANCH  15  16
ENDBRANCH   1  15
TORSDOF 4
ENDMDL
MODEL 7
REMARK VINA RESULT:      -7.5      5.226      6.666
REMARK  Name = 
REMARK  4 active torsions:
REMARK  status: ('A' for Active; 'I' for Inactive)
REMARK    1  A    between atoms: C_2  and  C_3
REMARK    2  A    between atoms: C_3  and  S_4
REMARK    3  A    between atoms: S_4  and  C_5
REMARK    4  A    between atoms: N_18  and  C_19
REMARK                            x       y       z     vdW  Elec       q    Type
REMARK                         _______ _______ _______ _____ _____    ______ ____
ROOT
ATOM      1  C   UNL     1       5.442   5.460  17.466  0.00  0.00    +0.000 C 
ATOM      2  N   UNL     1       4.807   6.466  17.942  0.00  0.00    +0.000 NA
ATOM      3  S   UNL     1       3.285   6.276  18.448  0.00  0.00    +0.000 S 
ATOM      4  O   UNL     1       3.241   6.573  19.866  0.00  0.00    +0.000 OA
ATOM      5  O   UNL     1       2.404   6.960  17.522  0.00  0.00    +0.000 OA
ATOM      6  C   UNL     1       2.864   4.568  18.318  0.00  0.00    +0.000 A 
ATOM      7  C   UNL     1       1.621   4.130  18.785  0.00  0.00    +0.000 A 
ATOM      8  C   UNL     1       1.310   2.784  18.664  0.00  0.00    +0.000 A 
ATOM      9  F   UNL     1       0.129   2.336  19.106  0.00  0.00    +0.000 F 
ATOM     10  C   UNL     1       2.208   1.894  18.088  0.00  0.00    +0.000 A 
ATOM     11  C   UNL     1       3.450   2.352  17.629  0.00  0.00    +0.000 A 
ATOM     12  C   UNL     1       3.797   3.704  17.755  0.00  0.00    +0.000 A 
ATOM     13  N   UNL     1       5.029   4.171  17.306  0.00  0.00    +0.000 N 
ATOM     14  H   UNL     1       5.710   3.499  16.976  0.00  0.00    +0.000 HD
ENDROOT
BRANCH   1  15
ATOM     15  S   UNL     1       7.123   5.692  16.966  0.00  0.00    +0.000 S 
BRANCH  15  16
ATOM     16  C   UNL     1       7.782   6.547  18.431  0.00  0.00    +0.000 C 
BRANCH  16  18
ATOM     17  O   UNL     1       7.483   8.605  17.270  0.00  0.00    +0.000 OA
ATOM     18  C   UNL     1       8.043   8.033  18.204  0.00  0.00    +0.000 C 
ATOM     19  N   UNL     1       8.866   8.647  19.135  0.00  0.00    +0.000 N 
ATOM     20  H   UNL     1       9.416   8.023  19.716  0.00  0.00    +0.000 HD
BRANCH  19  21
ATOM     21  C   UNL     1       9.205  10.019  19.166  0.00  0.00    +0.000 A 
ATOM     22  C   UNL     1       9.339  10.748  20.352  0.00  0.00    +0.000 A 
ATOM     23  C   UNL     1       9.575  12.126  20.322  0.00  0.00    +0.000 A 
ATOM     24  C   UNL     1       9.693  12.782  19.103  0.00  0.00    +0.000 A 
ATOM     25 CL   UNL     1       9.906  14.488  19.063  0.00  0.00    +0.000 Cl
ATOM     26  C   UNL     1       9.627  12.060  17.913  0.00  0.00    +0.000 A 
ATOM     27  C   UNL     1       9.399  10.679  17.946  0.00  0.00    +0.000 A 
ENDBRANCH  19  21
ENDBRANCH  16  18
ENDBRANCH  15  16
ENDBRANCH   1  15
TORSDOF 4
ENDMDL
MODEL 8
REMARK VINA RESULT:      -7.5      5.022      6.882
REMARK  Name = 
REMARK  4 active torsions:
REMARK  status: ('A' for Active; 'I' for Inactive)
REMARK    1  A    between atoms: C_2  and  C_3
REMARK    2  A    between atoms: C_3  and  S_4
REMARK    3  A    between atoms: S_4  and  C_5
REMARK    4  A    between atoms: N_18  and  C_19
REMARK                            x       y       z     vdW  Elec       q    Type
REMARK                         _______ _______ _______ _____ _____    ______ ____
ROOT
ATOM      1  C   UNL     1       5.502   4.727  18.300  0.00  0.00    +0.000 C 
ATOM      2  N   UNL     1       4.664   5.658  18.032  0.00  0.00    +0.000 NA
ATOM      3  S   UNL     1       3.186   5.606  18.680  0.00  0.00    +0.000 S 
ATOM      4  O   UNL     1       3.021   6.775  19.520  0.00  0.00    +0.000 OA
ATOM      5  O   UNL     1       2.233   5.312  17.627  0.00  0.00    +0.000 OA
ATOM      6  C   UNL     1       3.108   4.229  19.779  0.00  0.00    +0.000 A 
ATOM      7  C   UNL     1       1.952   4.022  20.539  0.00  0.00    +0.000 A 
ATOM      8  C   UNL     1       1.911   2.928  21.390  0.00  0.00    +0.000 A 
ATOM      9  F   UNL     1       0.820   2.707  22.132  0.00  0.00    +0.000 F 
ATOM     10  C   UNL     1       2.990   2.055  21.481  0.00  0.00    +0.000 A 
ATOM     11  C   UNL     1       4.139   2.282  20.714  0.00  0.00    +0.000 A 
ATOM     12  C   UNL     1       4.214   3.390  19.859  0.00  0.00    +0.000 A 
ATOM     13  N   UNL     1       5.352   3.629  19.094  0.00  0.00    +0.000 N 
ATOM     14  H   UNL     1       6.164   3.042  19.239  0.00  0.00    +0.000 HD
ENDROOT
BRANCH   1  15
ATOM     15  S   UNL     1       7.128   4.839  17.612  0.00  0.00    +0.000 S 
BRANCH  15  16
ATOM     16  C   UNL     1       7.092   6.542  16.973  0.00  0.00    +0.000 C 
BRANCH  16  18
ATOM     17  O   UNL     1       8.395   7.145  18.874  0.00  0.00    +0.000 OA
ATOM     18  C   UNL     1       7.799   7.548  17.876  0.00  0.00    +0.000 C 
ATOM     19  N   UNL     1       7.763   8.867  17.451  0.00  0.00    +0.000 N 
ATOM     20  H   UNL     1       7.072   9.081  16.739  0.00  0.00    +0.000 HD
BRANCH  19  21
ATOM     21  C   UNL     1       8.391   9.962  18.086  0.00  0.00    +0.000 A 
ATOM     22  C   UNL     1       8.318  11.273  17.603  0.00  0.00    +0.000 A 
ATOM     23  C   UNL     1       9.043  12.302  18.214  0.00  0.00    +0.000 A 
ATOM     24  C   UNL     1       9.835  12.027  19.323  0.00  0.00    +0.000 A 
ATOM     25 CL   UNL     1      10.788  13.273  20.027  0.00  0.00    +0.000 Cl
ATOM     26  C   UNL     1       9.868  10.740  19.855  0.00  0.00    +0.000 A 
ATOM     27  C   UNL     1       9.135   9.713  19.247  0.00  0.00    +0.000 A 
ENDBRANCH  19  21
ENDBRANCH  16  18
ENDBRANCH  15  16
ENDBRANCH   1  15
TORSDOF 4
ENDMDL
MODEL 9
REMARK VINA RESULT:      -7.4      6.105      7.318
REMARK  Name = 
REMARK  4 active torsions:
REMARK  status: ('A' for Active; 'I' for Inactive)
REMARK    1  A    between atoms: C_2  and  C_3
REMARK    2  A    between atoms: C_3  and  S_4
REMARK    3  A    between atoms: S_4  and  C_5
REMARK    4  A    between atoms: N_18  and  C_19
REMARK                            x       y       z     vdW  Elec       q    Type
REMARK                         _______ _______ _______ _____ _____    ______ ____
ROOT
ATOM      1  C   UNL     1       7.311   6.381  17.924  0.00  0.00    +0.000 C 
ATOM      2  N   UNL     1       7.273   6.417  16.644  0.00  0.00    +0.000 NA
ATOM      3  S   UNL     1       6.246   5.453  15.853  0.00  0.00    +0.000 S 
ATOM      4  O   UNL     1       5.315   6.289  15.122  0.00  0.00    +0.000 OA
ATOM      5  O   UNL     1       7.012   4.427  15.172  0.00  0.00    +0.000 OA
ATOM      6  C   UNL     1       5.265   4.592  17.040  0.00  0.00    +0.000 A 
ATOM      7  C   UNL     1       4.232   3.758  16.600  0.00  0.00    +0.000 A 
ATOM      8  C   UNL     1       3.480   3.086  17.551  0.00  0.00    +0.000 A 
ATOM      9  F   UNL     1       2.482   2.285  17.160  0.00  0.00    +0.000 F 
ATOM     10  C   UNL     1       3.750   3.232  18.907  0.00  0.00    +0.000 A 
ATOM     11  C   UNL     1       4.788   4.074  19.327  0.00  0.00    +0.000 A 
ATOM     12  C   UNL     1       5.552   4.780  18.387  0.00  0.00    +0.000 A 
ATOM     13  N   UNL     1       6.583   5.622  18.791  0.00  0.00    +0.000 N 
ATOM     14  H   UNL     1       6.708   5.793  19.781  0.00  0.00    +0.000 HD
ENDROOT
BRANCH   1  15
ATOM     15  S   UNL     1       8.411   7.485  18.761  0.00  0.00    +0.000 S 
BRANCH  15  16
ATOM     16  C   UNL     1       8.060   9.031  17.867  0.00  0.00    +0.000 C 
BRANCH  16  18
ATOM     17  O   UNL     1       9.458  10.116  19.461  0.00  0.00    +0.000 OA
ATOM     18  C   UNL     1       8.785  10.245  18.439  0.00  0.00    +0.000 C 
ATOM     19  N   UNL     1       8.671  11.414  17.704  0.00  0.00    +0.000 N 
ATOM     20  H   UNL     1       7.928  11.430  17.013  0.00  0.00    +0.000 HD
BRANCH  19  21
ATOM     21  C   UNL     1       9.297  12.646  18.002  0.00  0.00    +0.000 A 
ATOM     22  C   UNL     1       8.793  13.556  18.937  0.00  0.00    +0.000 A 
ATOM     23  C   UNL     1       9.396  14.804  19.119  0.00  0.00    +0.000 A 
ATOM     24  C   UNL     1      10.519  15.146  18.373  0.00  0.00    +0.000 A 
ATOM     25 CL   UNL     1      11.215  16.710  18.538  0.00  0.00    +0.000 Cl
ATOM     26  C   UNL     1      11.071  14.227  17.484  0.00  0.00    +0.000 A 
ATOM     27  C   UNL     1      10.471  12.974  17.310  0.00  0.00    +0.000 A 
ENDBRANCH  19  21
ENDBRANCH  16  18
ENDBRANCH  15  16
ENDBRANCH   1  15
TORSDOF 4
ENDMDL
