MODEL 1
REMARK VINA RESULT:      -8.1      0.000      0.000
REMARK  Name = 
REMARK  3 active torsions:
REMARK  status: ('A' for Active; 'I' for Inactive)
REMARK    1  A    between atoms: C_1  and  C_2
REMARK    2  A    between atoms: N_4  and  C_5
REMARK    3  A    between atoms: C_15  and  C_16
REMARK                            x       y       z     vdW  Elec       q    Type
REMARK                         _______ _______ _______ _____ _____    ______ ____
ROOT
ATOM      1  C   UNL     1       6.568   8.296  17.631  0.00  0.00    +0.000 C 
ATOM      2  C   UNL     1       6.263   6.945  17.091  0.00  0.00    +0.000 A 
ATOM      3  N   UNL     1       7.198   6.464  16.253  0.00  0.00    +0.000 NA
ATOM      4  N   UNL     1       6.729   5.265  15.912  0.00  0.00    +0.000 N 
ATOM      5  C   UNL     1       7.167   4.643  14.687  0.00  0.00    +0.000 C 
ATOM      6  C   UNL     1       5.666   4.866  16.662  0.00  0.00    +0.000 A 
ATOM      7  N   UNL     1       5.162   3.629  16.647  0.00  0.00    +0.000 NA
ATOM      8  C   UNL     1       4.072   3.462  17.374  0.00  0.00    +0.000 A 
ATOM      9  C   UNL     1       3.628   2.146  17.442  0.00  0.00    +0.000 A 
ATOM     10  C   UNL     1       2.451   1.794  18.096  0.00  0.00    +0.000 A 
ATOM     11  C   UNL     1       1.698   2.793  18.686  0.00  0.00    +0.000 A 
ATOM     12 CL   UNL     1       0.209   2.390  19.445  0.00  0.00    +0.000 Cl
ATOM     13  C   UNL     1       2.140   4.125  18.652  0.00  0.00    +0.000 A 
ATOM     14  C   UNL     1       3.350   4.506  17.996  0.00  0.00    +0.000 A 
ATOM     15  C   UNL     1       3.889   5.860  17.911  0.00  0.00    +0.000 A 
ATOM     16  C   UNL     1       5.187   6.000  17.314  0.00  0.00    +0.000 A 
ENDROOT
BRANCH  15  17
ATOM     17  C   UNL     1       3.070   7.047  18.288  0.00  0.00    +0.000 A 
ATOM     18  C   UNL     1       2.824   8.129  17.433  0.00  0.00    +0.000 A 
ATOM     19  C   UNL     1       2.040   9.223  17.840  0.00  0.00    +0.000 A 
ATOM     20  C   UNL     1       1.519   9.285  19.128  0.00  0.00    +0.000 A 
ATOM     21  C   UNL     1       1.753   8.234  20.003  0.00  0.00    +0.000 A 
ATOM     22  C   UNL     1       2.489   7.124  19.576  0.00  0.00    +0.000 A 
ENDBRANCH  15  17
TORSDOF 1
ENDMDL
MODEL 2
REMARK VINA RESULT:      -8.0      3.147      5.473
REMARK  Name = 
REMARK  3 active torsions:
REMARK  status: ('A' for Active; 'I' for Inactive)
REMARK    1  A    between atoms: C_1  and  C_2
REMARK    2  A    between atoms: N_4  and  C_5
REMARK    3  A    between atoms: C_15  and  C_16
REMARK                            x       y       z     vdW  Elec       q    Type
REMARK                         _______ _______ _______ _____ _____    ______ ____
ROOT
ATOM      1  C   UNL     1       0.982   7.772  21.722  0.00  0.00    +0.000 C 
ATOM      2  C   UNL     1       1.424   8.103  20.342  0.00  0.00    +0.000 A 
ATOM      3  N   UNL     1       1.115   9.353  19.951  0.00  0.00    +0.000 NA
ATOM      4  N   UNL     1       1.608   9.427  18.715  0.00  0.00    +0.000 N 
ATOM      5  C   UNL     1       1.078  10.395  17.788  0.00  0.00    +0.000 C 
ATOM      6  C   UNL     1       2.408   8.377  18.388  0.00  0.00    +0.000 A 
ATOM      7  N   UNL     1       3.175   8.333  17.294  0.00  0.00    +0.000 NA
ATOM      8  C   UNL     1       3.808   7.190  17.102  0.00  0.00    +0.000 A 
ATOM      9  C   UNL     1       4.690   7.200  16.027  0.00  0.00    +0.000 A 
ATOM     10  C   UNL     1       5.383   6.062  15.628  0.00  0.00    +0.000 A 
ATOM     11  C   UNL     1       5.174   4.883  16.319  0.00  0.00    +0.000 A 
ATOM     12 CL   UNL     1       5.972   3.449  15.804  0.00  0.00    +0.000 Cl
ATOM     13  C   UNL     1       4.308   4.855  17.424  0.00  0.00    +0.000 A 
ATOM     14  C   UNL     1       3.596   6.014  17.858  0.00  0.00    +0.000 A 
ATOM     15  C   UNL     1       2.679   6.082  18.992  0.00  0.00    +0.000 A 
ATOM     16  C   UNL     1       2.169   7.380  19.331  0.00  0.00    +0.000 A 
ENDROOT
BRANCH  15  17
ATOM     17  C   UNL     1       2.185   4.848  19.665  0.00  0.00    +0.000 A 
ATOM     18  C   UNL     1       1.316   3.926  19.067  0.00  0.00    +0.000 A 
ATOM     19  C   UNL     1       0.883   2.775  19.748  0.00  0.00    +0.000 A 
ATOM     20  C   UNL     1       1.272   2.537  21.063  0.00  0.00    +0.000 A 
ATOM     21  C   UNL     1       2.124   3.436  21.688  0.00  0.00    +0.000 A 
ATOM     22  C   UNL     1       2.593   4.553  20.988  0.00  0.00    +0.000 A 
ENDBRANCH  15  17
TORSDOF 1
ENDMDL
MODEL 3
REMARK VINA RESULT:      -8.0      3.164      5.541
REMARK  Name = 
REMARK  3 active torsions:
REMARK  status: ('A' for Active; 'I' for Inactive)
REMARK    1  A    between atoms: C_1  and  C_2
REMARK    2  A    between atoms: N_4  and  C_5
REMARK    3  A    between atoms: C_15  and  C_16
REMARK                            x       y       z     vdW  Elec       q    Type
REMARK                         _______ _______ _______ _____ _____    ______ ____
ROOT
ATOM      1  C   UNL     1       0.967   7.890  21.788  0.00  0.00    +0.000 C 
ATOM      2  C   UNL     1       1.396   8.191  20.397  0.00  0.00    +0.000 A 
ATOM      3  N   UNL     1       1.073   9.427  19.978  0.00  0.00    +0.000 NA
ATOM      4  N   UNL     1       1.555   9.476  18.737  0.00  0.00    +0.000 N 
ATOM      5  C   UNL     1       1.010  10.415  17.790  0.00  0.00    +0.000 C 
ATOM      6  C   UNL     1       2.363   8.425  18.429  0.00  0.00    +0.000 A 
ATOM      7  N   UNL     1       3.122   8.361  17.331  0.00  0.00    +0.000 NA
ATOM      8  C   UNL     1       3.764   7.219  17.163  0.00  0.00    +0.000 A 
ATOM      9  C   UNL     1       4.638   7.211  16.081  0.00  0.00    +0.000 A 
ATOM     10  C   UNL     1       5.339   6.069  15.705  0.00  0.00    +0.000 A 
ATOM     11  C   UNL     1       5.147   4.906  16.427  0.00  0.00    +0.000 A 
ATOM     12 CL   UNL     1       5.954   3.468  15.941  0.00  0.00    +0.000 Cl
ATOM     13  C   UNL     1       4.289   4.898  17.539  0.00  0.00    +0.000 A 
ATOM     14  C   UNL     1       3.569   6.060  17.949  0.00  0.00    +0.000 A 
ATOM     15  C   UNL     1       2.660   6.148  19.088  0.00  0.00    +0.000 A 
ATOM     16  C   UNL     1       2.141   7.450  19.399  0.00  0.00    +0.000 A 
ENDROOT
BRANCH  15  17
ATOM     17  C   UNL     1       2.182   4.927  19.796  0.00  0.00    +0.000 A 
ATOM     18  C   UNL     1       2.566   4.579  21.097  0.00  0.00    +0.000 A 
ATOM     19  C   UNL     1       2.081   3.414  21.720  0.00  0.00    +0.000 A 
ATOM     20  C   UNL     1       1.236   2.543  21.039  0.00  0.00    +0.000 A 
ATOM     21  C   UNL     1       0.846   2.853  19.745  0.00  0.00    +0.000 A 
ATOM     22  C   UNL     1       1.289   4.039  19.150  0.00  0.00    +0.000 A 
ENDBRANCH  15  17
TORSDOF 1
ENDMDL
MODEL 4
REMARK VINA RESULT:      -8.0      0.055      1.021
REMARK  Name = 
REMARK  3 active torsions:
REMARK  status: ('A' for Active; 'I' for Inactive)
REMARK    1  A    between atoms: C_1  and  C_2
REMARK    2  A    between atoms: N_4  and  C_5
REMARK    3  A    between atoms: C_15  and  C_16
REMARK                            x       y       z     vdW  Elec       q    Type
REMARK                         _______ _______ _______ _____ _____    ______ ____
ROOT
ATOM      1  C   UNL     1       6.572   8.279  17.675  0.00  0.00    +0.000 C 
ATOM      2  C   UNL     1       6.260   6.938  17.116  0.00  0.00    +0.000 A 
ATOM      3  N   UNL     1       7.184   6.471  16.258  0.00  0.00    +0.000 NA
ATOM      4  N   UNL     1       6.710   5.277  15.903  0.00  0.00    +0.000 N 
ATOM      5  C   UNL     1       7.131   4.677  14.662  0.00  0.00    +0.000 C 
ATOM      6  C   UNL     1       5.657   4.867  16.660  0.00  0.00    +0.000 A 
ATOM      7  N   UNL     1       5.152   3.630  16.631  0.00  0.00    +0.000 NA
ATOM      8  C   UNL     1       4.070   3.451  17.368  0.00  0.00    +0.000 A 
ATOM      9  C   UNL     1       3.627   2.134  17.420  0.00  0.00    +0.000 A 
ATOM     10  C   UNL     1       2.459   1.772  18.084  0.00  0.00    +0.000 A 
ATOM     11  C   UNL     1       1.714   2.761  18.700  0.00  0.00    +0.000 A 
ATOM     12 CL   UNL     1       0.234   2.346  19.472  0.00  0.00    +0.000 Cl
ATOM     13  C   UNL     1       2.156   4.093  18.683  0.00  0.00    +0.000 A 
ATOM     14  C   UNL     1       3.357   4.485  18.017  0.00  0.00    +0.000 A 
ATOM     15  C   UNL     1       3.896   5.840  17.948  0.00  0.00    +0.000 A 
ATOM     16  C   UNL     1       5.187   5.989  17.337  0.00  0.00    +0.000 A 
ENDROOT
BRANCH  15  17
ATOM     17  C   UNL     1       3.083   7.020  18.356  0.00  0.00    +0.000 A 
ATOM     18  C   UNL     1       2.506   7.170  19.623  0.00  0.00    +0.000 A 
ATOM     19  C   UNL     1       1.750   8.308  19.956  0.00  0.00    +0.000 A 
ATOM     20  C   UNL     1       1.512   9.306  19.015  0.00  0.00    +0.000 A 
ATOM     21  C   UNL     1       2.061   9.182  17.746  0.00  0.00    +0.000 A 
ATOM     22  C   UNL     1       2.856   8.073  17.437  0.00  0.00    +0.000 A 
ENDBRANCH  15  17
TORSDOF 1
ENDMDL
MODEL 5
REMARK VINA RESULT:      -7.3      2.870      4.833
REMARK  Name = 
REMARK  3 active torsions:
REMARK  status: ('A' for Active; 'I' for Inactive)
REMARK    1  A    between atoms: C_1  and  C_2
REMARK    2  A    between atoms: N_4  and  C_5
REMARK    3  A    between atoms: C_15  and  C_16
REMARK                            x       y       z     vdW  Elec       q    Type
REMARK                         _______ _______ _______ _____ _____    ______ ____
ROOT
ATOM      1  C   UNL     1       0.870   3.828  18.631  0.00  0.00    +0.000 C 
ATOM      2  C   UNL     1       2.312   3.661  18.952  0.00  0.00    +0.000 A 
ATOM      3  N   UNL     1       2.636   2.436  19.403  0.00  0.00    +0.000 NA
ATOM      4  N   UNL     1       3.950   2.513  19.609  0.00  0.00    +0.000 N 
ATOM      5  C   UNL     1       4.589   1.604  20.528  0.00  0.00    +0.000 C 
ATOM      6  C   UNL     1       4.512   3.643  19.100  0.00  0.00    +0.000 A 
ATOM      7  N   UNL     1       5.829   3.844  18.999  0.00  0.00    +0.000 NA
ATOM      8  C   UNL     1       6.180   5.041  18.566  0.00  0.00    +0.000 A 
ATOM      9  C   UNL     1       7.546   5.194  18.356  0.00  0.00    +0.000 A 
ATOM     10  C   UNL     1       8.105   6.410  17.976  0.00  0.00    +0.000 A 
ATOM     11  C   UNL     1       7.270   7.501  17.815  0.00  0.00    +0.000 A 
ATOM     12 CL   UNL     1       7.946   9.029  17.408  0.00  0.00    +0.000 Cl
ATOM     13  C   UNL     1       5.884   7.363  17.996  0.00  0.00    +0.000 A 
ATOM     14  C   UNL     1       5.289   6.122  18.375  0.00  0.00    +0.000 A 
ATOM     15  C   UNL     1       3.864   5.883  18.584  0.00  0.00    +0.000 A 
ATOM     16  C   UNL     1       3.469   4.526  18.835  0.00  0.00    +0.000 A 
ENDROOT
BRANCH  15  17
ATOM     17  C   UNL     1       2.894   7.011  18.678  0.00  0.00    +0.000 A 
ATOM     18  C   UNL     1       2.544   7.832  17.599  0.00  0.00    +0.000 A 
ATOM     19  C   UNL     1       1.619   8.881  17.743  0.00  0.00    +0.000 A 
ATOM     20  C   UNL     1       1.053   9.165  18.982  0.00  0.00    +0.000 A 
ATOM     21  C   UNL     1       1.386   8.377  20.074  0.00  0.00    +0.000 A 
ATOM     22  C   UNL     1       2.267   7.302  19.913  0.00  0.00    +0.000 A 
ENDBRANCH  15  17
TORSDOF 1
ENDMDL
MODEL 6
REMARK VINA RESULT:      -7.2      3.123      5.040
REMARK  Name = 
REMARK  3 active torsions:
REMARK  status: ('A' for Active; 'I' for Inactive)
REMARK    1  A    between atoms: C_1  and  C_2
REMARK    2  A    between atoms: N_4  and  C_5
REMARK    3  A    between atoms: C_15  and  C_16
REMARK                            x       y       z     vdW  Elec       q    Type
REMARK                         _______ _______ _______ _____ _____    ______ ____
ROOT
ATOM      1  C   UNL     1       2.429   8.989  17.381  0.00  0.00    +0.000 C 
ATOM      2  C   UNL     1       2.202   8.258  18.655  0.00  0.00    +0.000 A 
ATOM      3  N   UNL     1       1.379   8.888  19.511  0.00  0.00    +0.000 NA
ATOM      4  N   UNL     1       1.315   8.061  20.554  0.00  0.00    +0.000 N 
ATOM      5  C   UNL     1       0.947   8.568  21.852  0.00  0.00    +0.000 C 
ATOM      6  C   UNL     1       1.868   6.842  20.312  0.00  0.00    +0.000 A 
ATOM      7  N   UNL     1       1.740   5.788  21.123  0.00  0.00    +0.000 NA
ATOM      8  C   UNL     1       2.427   4.719  20.762  0.00  0.00    +0.000 A 
ATOM      9  C   UNL     1       2.192   3.597  21.550  0.00  0.00    +0.000 A 
ATOM     10  C   UNL     1       2.886   2.406  21.366  0.00  0.00    +0.000 A 
ATOM     11  C   UNL     1       3.848   2.345  20.375  0.00  0.00    +0.000 A 
ATOM     12 CL   UNL     1       4.762   0.903  20.171  0.00  0.00    +0.000 Cl
ATOM     13  C   UNL     1       4.084   3.458  19.551  0.00  0.00    +0.000 A 
ATOM     14  C   UNL     1       3.375   4.686  19.714  0.00  0.00    +0.000 A 
ATOM     15  C   UNL     1       3.550   5.891  18.908  0.00  0.00    +0.000 A 
ATOM     16  C   UNL     1       2.641   6.973  19.161  0.00  0.00    +0.000 A 
ENDROOT
BRANCH  15  17
ATOM     17  C   UNL     1       4.705   6.041  17.977  0.00  0.00    +0.000 A 
ATOM     18  C   UNL     1       4.597   5.967  16.583  0.00  0.00    +0.000 A 
ATOM     19  C   UNL     1       5.721   6.120  15.750  0.00  0.00    +0.000 A 
ATOM     20  C   UNL     1       6.989   6.305  16.293  0.00  0.00    +0.000 A 
ATOM     21  C   UNL     1       7.130   6.372  17.672  0.00  0.00    +0.000 A 
ATOM     22  C   UNL     1       6.003   6.272  18.493  0.00  0.00    +0.000 A 
ENDBRANCH  15  17
TORSDOF 1
ENDMDL
MODEL 7
REMARK VINA RESULT:      -7.2      2.599      4.706
REMARK  Name = 
REMARK  3 active torsions:
REMARK  status: ('A' for Active; 'I' for Inactive)
REMARK    1  A    between atoms: C_1  and  C_2
REMARK    2  A    between atoms: N_4  and  C_5
REMARK    3  A    between atoms: C_15  and  C_16
REMARK                            x       y       z     vdW  Elec       q    Type
REMARK                         _______ _______ _______ _____ _____    ______ ____
ROOT
ATOM      1  C   UNL     1       0.515   4.258  17.421  0.00  0.00    +0.000 C 
ATOM      2  C   UNL     1       1.928   3.857  17.647  0.00  0.00    +0.000 A 
ATOM      3  N   UNL     1       2.123   2.527  17.686  0.00  0.00    +0.000 NA
ATOM      4  N   UNL     1       3.435   2.406  17.883  0.00  0.00    +0.000 N 
ATOM      5  C   UNL     1       3.967   1.197  18.459  0.00  0.00    +0.000 C 
ATOM      6  C   UNL     1       4.113   3.577  17.744  0.00  0.00    +0.000 A 
ATOM      7  N   UNL     1       5.445   3.669  17.688  0.00  0.00    +0.000 NA
ATOM      8  C   UNL     1       5.919   4.901  17.645  0.00  0.00    +0.000 A 
ATOM      9  C   UNL     1       7.296   4.977  17.469  0.00  0.00    +0.000 A 
ATOM     10  C   UNL     1       7.978   6.190  17.480  0.00  0.00    +0.000 A 
ATOM     11  C   UNL     1       7.258   7.352  17.684  0.00  0.00    +0.000 A 
ATOM     12 CL   UNL     1       8.088   8.856  17.763  0.00  0.00    +0.000 Cl
ATOM     13  C   UNL     1       5.863   7.302  17.837  0.00  0.00    +0.000 A 
ATOM     14  C   UNL     1       5.142   6.070  17.818  0.00  0.00    +0.000 A 
ATOM     15  C   UNL     1       3.698   5.919  17.967  0.00  0.00    +0.000 A 
ATOM     16  C   UNL     1       3.166   4.598  17.787  0.00  0.00    +0.000 A 
ENDROOT
BRANCH  15  17
ATOM     17  C   UNL     1       2.843   7.050  18.427  0.00  0.00    +0.000 A 
ATOM     18  C   UNL     1       2.319   7.155  19.721  0.00  0.00    +0.000 A 
ATOM     19  C   UNL     1       1.519   8.247  20.104  0.00  0.00    +0.000 A 
ATOM     20  C   UNL     1       1.185   9.240  19.187  0.00  0.00    +0.000 A 
ATOM     21  C   UNL     1       1.680   9.159  17.894  0.00  0.00    +0.000 A 
ATOM     22  C   UNL     1       2.517   8.099  17.534  0.00  0.00    +0.000 A 
ENDBRANCH  15  17
TORSDOF 1
ENDMDL
MODEL 8
REMARK VINA RESULT:      -7.2      3.117      5.093
REMARK  Name = 
REMARK  3 active torsions:
REMARK  status: ('A' for Active; 'I' for Inactive)
REMARK    1  A    between atoms: C_1  and  C_2
REMARK    2  A    between atoms: N_4  and  C_5
REMARK    3  A    between atoms: C_15  and  C_16
REMARK                            x       y       z     vdW  Elec       q    Type
REMARK                         _______ _______ _______ _____ _____    ______ ____
ROOT
ATOM      1  C   UNL     1       2.488   8.946  17.334  0.00  0.00    +0.000 C 
ATOM      2  C   UNL     1       2.242   8.238  18.617  0.00  0.00    +0.000 A 
ATOM      3  N   UNL     1       1.416   8.889  19.455  0.00  0.00    +0.000 NA
ATOM      4  N   UNL     1       1.334   8.079  20.510  0.00  0.00    +0.000 N 
ATOM      5  C   UNL     1       0.957   8.610  21.796  0.00  0.00    +0.000 C 
ATOM      6  C   UNL     1       1.878   6.852  20.293  0.00  0.00    +0.000 A 
ATOM      7  N   UNL     1       1.732   5.812  21.120  0.00  0.00    +0.000 NA
ATOM      8  C   UNL     1       2.414   4.731  20.783  0.00  0.00    +0.000 A 
ATOM      9  C   UNL     1       2.161   3.625  21.586  0.00  0.00    +0.000 A 
ATOM     10  C   UNL     1       2.846   2.424  21.429  0.00  0.00    +0.000 A 
ATOM     11  C   UNL     1       3.818   2.339  20.448  0.00  0.00    +0.000 A 
ATOM     12 CL   UNL     1       4.721   0.886  20.278  0.00  0.00    +0.000 Cl
ATOM     13  C   UNL     1       4.072   3.436  19.609  0.00  0.00    +0.000 A 
ATOM     14  C   UNL     1       3.372   4.673  19.746  0.00  0.00    +0.000 A 
ATOM     15  C   UNL     1       3.566   5.863  18.922  0.00  0.00    +0.000 A 
ATOM     16  C   UNL     1       2.664   6.957  19.148  0.00  0.00    +0.000 A 
ENDROOT
BRANCH  15  17
ATOM     17  C   UNL     1       4.731   5.988  18.001  0.00  0.00    +0.000 A 
ATOM     18  C   UNL     1       6.027   6.315  18.421  0.00  0.00    +0.000 A 
ATOM     19  C   UNL     1       7.092   6.417  17.508  0.00  0.00    +0.000 A 
ATOM     20  C   UNL     1       6.880   6.238  16.145  0.00  0.00    +0.000 A 
ATOM     21  C   UNL     1       5.606   5.923  15.695  0.00  0.00    +0.000 A 
ATOM     22  C   UNL     1       4.561   5.772  16.612  0.00  0.00    +0.000 A 
ENDBRANCH  15  17
TORSDOF 1
ENDMDL
MODEL 9
REMARK VINA RESULT:      -7.1      2.851      4.924
REMARK  Name = 
REMARK  3 active torsions:
REMARK  status: ('A' for Active; 'I' for Inactive)
REMARK    1  A    between atoms: C_1  and  C_2
REMARK    2  A    between atoms: N_4  and  C_5
REMARK    3  A    between atoms: C_15  and  C_16
REMARK                            x       y       z     vdW  Elec       q    Type
REMARK                         _______ _______ _______ _____ _____    ______ ____
ROOT
ATOM      1  C   UNL     1       0.852   3.828  18.668  0.00  0.00    +0.000 C 
ATOM      2  C   UNL     1       2.299   3.644  18.952  0.00  0.00    +0.000 A 
ATOM      3  N   UNL     1       2.625   2.406  19.363  0.00  0.00    +0.000 NA
ATOM      4  N   UNL     1       3.944   2.469  19.542  0.00  0.00    +0.000 N 
ATOM      5  C   UNL     1       4.596   1.532  20.422  0.00  0.00    +0.000 C 
ATOM      6  C   UNL     1       4.502   3.609  19.051  0.00  0.00    +0.000 A 
ATOM      7  N   UNL     1       5.818   3.804  18.927  0.00  0.00    +0.000 NA
ATOM      8  C   UNL     1       6.167   5.011  18.518  0.00  0.00    +0.000 A 
ATOM      9  C   UNL     1       7.529   5.161  18.282  0.00  0.00    +0.000 A 
ATOM     10  C   UNL     1       8.087   6.384  17.923  0.00  0.00    +0.000 A 
ATOM     11  C   UNL     1       7.257   7.484  17.810  0.00  0.00    +0.000 A 
ATOM     12 CL   UNL     1       7.934   9.018  17.429  0.00  0.00    +0.000 Cl
ATOM     13  C   UNL     1       5.874   7.349  18.018  0.00  0.00    +0.000 A 
ATOM     14  C   UNL     1       5.279   6.102  18.376  0.00  0.00    +0.000 A 
ATOM     15  C   UNL     1       3.858   5.866  18.610  0.00  0.00    +0.000 A 
ATOM     16  C   UNL     1       3.459   4.506  18.833  0.00  0.00    +0.000 A 
ENDROOT
BRANCH  15  17
ATOM     17  C   UNL     1       2.897   6.997  18.756  0.00  0.00    +0.000 A 
ATOM     18  C   UNL     1       2.239   7.311  19.951  0.00  0.00    +0.000 A 
ATOM     19  C   UNL     1       1.344   8.393  20.034  0.00  0.00    +0.000 A 
ATOM     20  C   UNL     1       1.049   9.161  18.911  0.00  0.00    +0.000 A 
ATOM     21  C   UNL     1       1.677   8.868  17.709  0.00  0.00    +0.000 A 
ATOM     22  C   UNL     1       2.605   7.824  17.645  0.00  0.00    +0.000 A 
ENDBRANCH  15  17
TORSDOF 1
ENDMDL
