MODEL 1
REMARK VINA RESULT:      -7.3      0.000      0.000
REMARK  Name = 
REMARK  2 active torsions:
REMARK  status: ('A' for Active; 'I' for Inactive)
REMARK    1  A    between atoms: C_2  and  C_14
REMARK    2  A    between atoms: N_3  and  C_4
REMARK                            x       y       z     vdW  Elec       q    Type
REMARK                         _______ _______ _______ _____ _____    ______ ____
ROOT
ATOM      1  C   UNL     1       3.950   3.466  18.143  0.00  0.00    +0.000 C 
ATOM      2  C   UNL     1       3.497   1.991  18.148  0.00  0.00    +0.000 C 
ATOM      3  C   UNL     1       2.000   1.815  18.378  0.00  0.00    +0.000 C 
ATOM      4  C   UNL     1       1.583   2.505  19.673  0.00  0.00    +0.000 C 
ATOM      5  C   UNL     1       1.960   3.963  19.662  0.00  0.00    +0.000 A 
ATOM      6  C   UNL     1       1.273   4.853  20.503  0.00  0.00    +0.000 A 
ATOM      7  C   UNL     1       1.608   6.204  20.530  0.00  0.00    +0.000 A 
ATOM      8  C   UNL     1       2.625   6.684  19.710  0.00  0.00    +0.000 A 
ATOM      9  C   UNL     1       3.335   5.803  18.894  0.00  0.00    +0.000 A 
ATOM     10  C   UNL     1       3.032   4.430  18.876  0.00  0.00    +0.000 A 
ENDROOT
BRANCH   1  13
ATOM     11  O   UNL     1       6.441   4.357  17.362  0.00  0.00    +0.000 OA
ATOM     12  C   UNL     1       5.553   4.344  16.511  0.00  0.00    +0.000 C 
ATOM     13  N   UNL     1       4.276   3.911  16.791  0.00  0.00    +0.000 N 
ATOM     14  H   UNL     1       3.612   3.738  16.047  0.00  0.00    +0.000 HD
BRANCH  12  15
ATOM     15  C   UNL     1       5.822   4.748  15.071  0.00  0.00    +0.000 C 
ATOM     16  C   UNL     1       7.283   5.049  14.761  0.00  0.00    +0.000 C 
ATOM     17  C   UNL     1       7.377   4.914  13.245  0.00  0.00    +0.000 C 
ATOM     18  C   UNL     1       6.325   3.884  12.846  0.00  0.00    +0.000 C 
ATOM     19  C   UNL     1       5.515   3.598  14.102  0.00  0.00    +0.000 C 
ENDBRANCH  12  15
ENDBRANCH   1  13
TORSDOF 2
ENDMDL
MODEL 2
REMARK VINA RESULT:      -7.1      1.850      6.326
REMARK  Name = 
REMARK  2 active torsions:
REMARK  status: ('A' for Active; 'I' for Inactive)
REMARK    1  A    between atoms: C_2  and  C_14
REMARK    2  A    between atoms: N_3  and  C_4
REMARK                            x       y       z     vdW  Elec       q    Type
REMARK                         _______ _______ _______ _____ _____    ______ ____
ROOT
ATOM      1  C   UNL     1       5.966   4.354  18.308  0.00  0.00    +0.000 C 
ATOM      2  C   UNL     1       6.644   5.475  19.121  0.00  0.00    +0.000 C 
ATOM      3  C   UNL     1       6.810   6.776  18.343  0.00  0.00    +0.000 C 
ATOM      4  C   UNL     1       7.574   6.520  17.048  0.00  0.00    +0.000 C 
ATOM      5  C   UNL     1       6.892   5.472  16.209  0.00  0.00    +0.000 A 
ATOM      6  C   UNL     1       7.142   5.433  14.828  0.00  0.00    +0.000 A 
ATOM      7  C   UNL     1       6.541   4.466  14.026  0.00  0.00    +0.000 A 
ATOM      8  C   UNL     1       5.675   3.535  14.592  0.00  0.00    +0.000 A 
ATOM      9  C   UNL     1       5.445   3.544  15.967  0.00  0.00    +0.000 A 
ATOM     10  C   UNL     1       6.067   4.493  16.798  0.00  0.00    +0.000 A 
ENDROOT
BRANCH   1  13
ATOM     11  O   UNL     1       5.215   2.310  20.001  0.00  0.00    +0.000 OA
ATOM     12  C   UNL     1       4.332   3.069  19.607  0.00  0.00    +0.000 C 
ATOM     13  N   UNL     1       4.597   4.127  18.765  0.00  0.00    +0.000 N 
ATOM     14  H   UNL     1       3.902   4.842  18.595  0.00  0.00    +0.000 HD
BRANCH  12  15
ATOM     15  C   UNL     1       2.892   2.929  20.071  0.00  0.00    +0.000 C 
ATOM     16  C   UNL     1       2.208   4.247  20.414  0.00  0.00    +0.000 C 
ATOM     17  C   UNL     1       0.719   3.924  20.338  0.00  0.00    +0.000 C 
ATOM     18  C   UNL     1       0.579   2.813  19.302  0.00  0.00    +0.000 C 
ATOM     19  C   UNL     1       1.996   2.381  18.952  0.00  0.00    +0.000 C 
ENDBRANCH  12  15
ENDBRANCH   1  13
TORSDOF 2
ENDMDL
MODEL 3
REMARK VINA RESULT:      -7.1      1.369      2.088
REMARK  Name = 
REMARK  2 active torsions:
REMARK  status: ('A' for Active; 'I' for Inactive)
REMARK    1  A    between atoms: C_2  and  C_14
REMARK    2  A    between atoms: N_3  and  C_4
REMARK                            x       y       z     vdW  Elec       q    Type
REMARK                         _______ _______ _______ _____ _____    ______ ____
ROOT
ATOM      1  C   UNL     1       5.049   4.837  18.227  0.00  0.00    +0.000 C 
ATOM      2  C   UNL     1       4.878   3.668  19.219  0.00  0.00    +0.000 C 
ATOM      3  C   UNL     1       3.441   3.474  19.689  0.00  0.00    +0.000 C 
ATOM      4  C   UNL     1       2.906   4.768  20.293  0.00  0.00    +0.000 C 
ATOM      5  C   UNL     1       3.005   5.910  19.316  0.00  0.00    +0.000 A 
ATOM      6  C   UNL     1       2.167   7.024  19.480  0.00  0.00    +0.000 A 
ATOM      7  C   UNL     1       2.244   8.104  18.605  0.00  0.00    +0.000 A 
ATOM      8  C   UNL     1       3.152   8.079  17.549  0.00  0.00    +0.000 A 
ATOM      9  C   UNL     1       4.011   6.991  17.396  0.00  0.00    +0.000 A 
ATOM     10  C   UNL     1       3.969   5.905  18.289  0.00  0.00    +0.000 A 
ENDROOT
BRANCH   1  13
ATOM     11  O   UNL     1       7.411   5.170  16.843  0.00  0.00    +0.000 OA
ATOM     12  C   UNL     1       6.501   4.574  16.270  0.00  0.00    +0.000 C 
ATOM     13  N   UNL     1       5.282   4.346  16.871  0.00  0.00    +0.000 N 
ATOM     14  H   UNL     1       4.613   3.706  16.462  0.00  0.00    +0.000 HD
BRANCH  12  15
ATOM     15  C   UNL     1       6.678   3.993  14.878  0.00  0.00    +0.000 C 
ATOM     16  C   UNL     1       5.377   3.767  14.117  0.00  0.00    +0.000 C 
ATOM     17  C   UNL     1       5.808   3.694  12.656  0.00  0.00    +0.000 C 
ATOM     18  C   UNL     1       7.050   4.572  12.537  0.00  0.00    +0.000 C 
ATOM     19  C   UNL     1       7.426   4.968  13.957  0.00  0.00    +0.000 C 
ENDBRANCH  12  15
ENDBRANCH   1  13
TORSDOF 2
ENDMDL
MODEL 4
REMARK VINA RESULT:      -7.0      1.437      1.939
REMARK  Name = 
REMARK  2 active torsions:
REMARK  status: ('A' for Active; 'I' for Inactive)
REMARK    1  A    between atoms: C_2  and  C_14
REMARK    2  A    between atoms: N_3  and  C_4
REMARK                            x       y       z     vdW  Elec       q    Type
REMARK                         _______ _______ _______ _____ _____    ______ ____
ROOT
ATOM      1  C   UNL     1       4.971   5.317  17.697  0.00  0.00    +0.000 C 
ATOM      2  C   UNL     1       5.097   3.959  18.417  0.00  0.00    +0.000 C 
ATOM      3  C   UNL     1       3.794   3.481  19.046  0.00  0.00    +0.000 C 
ATOM      4  C   UNL     1       3.249   4.541  19.998  0.00  0.00    +0.000 C 
ATOM      5  C   UNL     1       3.059   5.859  19.297  0.00  0.00    +0.000 A 
ATOM      6  C   UNL     1       2.157   6.793  19.832  0.00  0.00    +0.000 A 
ATOM      7  C   UNL     1       1.969   8.029  19.218  0.00  0.00    +0.000 A 
ATOM      8  C   UNL     1       2.671   8.342  18.057  0.00  0.00    +0.000 A 
ATOM      9  C   UNL     1       3.593   7.434  17.536  0.00  0.00    +0.000 A 
ATOM     10  C   UNL     1       3.819   6.194  18.159  0.00  0.00    +0.000 A 
ENDROOT
BRANCH   1  13
ATOM     11  O   UNL     1       7.254   5.537  16.165  0.00  0.00    +0.000 OA
ATOM     12  C   UNL     1       6.203   5.287  15.578  0.00  0.00    +0.000 C 
ATOM     13  N   UNL     1       5.006   5.148  16.246  0.00  0.00    +0.000 N 
ATOM     14  H   UNL     1       4.192   4.769  15.780  0.00  0.00    +0.000 HD
BRANCH  12  15
ATOM     15  C   UNL     1       6.162   5.052  14.078  0.00  0.00    +0.000 C 
ATOM     16  C   UNL     1       7.530   4.965  13.414  0.00  0.00    +0.000 C 
ATOM     17  C   UNL     1       7.262   4.239  12.100  0.00  0.00    +0.000 C 
ATOM     18  C   UNL     1       6.069   3.322  12.359  0.00  0.00    +0.000 C 
ATOM     19  C   UNL     1       5.552   3.683  13.744  0.00  0.00    +0.000 C 
ENDBRANCH  12  15
ENDBRANCH   1  13
TORSDOF 2
ENDMDL
MODEL 5
REMARK VINA RESULT:      -6.9      1.188      1.587
REMARK  Name = 
REMARK  2 active torsions:
REMARK  status: ('A' for Active; 'I' for Inactive)
REMARK    1  A    between atoms: C_2  and  C_14
REMARK    2  A    between atoms: N_3  and  C_4
REMARK                            x       y       z     vdW  Elec       q    Type
REMARK                         _______ _______ _______ _____ _____    ______ ____
ROOT
ATOM      1  C   UNL     1       4.499   3.897  19.383  0.00  0.00    +0.000 C 
ATOM      2  C   UNL     1       4.224   2.528  20.040  0.00  0.00    +0.000 C 
ATOM      3  C   UNL     1       2.745   2.260  20.291  0.00  0.00    +0.000 C 
ATOM      4  C   UNL     1       2.141   3.384  21.127  0.00  0.00    +0.000 C 
ATOM      5  C   UNL     1       2.344   4.724  20.471  0.00  0.00    +0.000 A 
ATOM      6  C   UNL     1       1.489   5.786  20.807  0.00  0.00    +0.000 A 
ATOM      7  C   UNL     1       1.659   7.042  20.231  0.00  0.00    +0.000 A 
ATOM      8  C   UNL     1       2.677   7.250  19.305  0.00  0.00    +0.000 A 
ATOM      9  C   UNL     1       3.552   6.211  18.988  0.00  0.00    +0.000 A 
ATOM     10  C   UNL     1       3.416   4.944  19.583  0.00  0.00    +0.000 A 
ENDROOT
BRANCH   1  13
ATOM     11  O   UNL     1       6.968   4.587  18.365  0.00  0.00    +0.000 OA
ATOM     12  C   UNL     1       6.143   4.124  17.580  0.00  0.00    +0.000 C 
ATOM     13  N   UNL     1       4.883   3.740  17.982  0.00  0.00    +0.000 N 
ATOM     14  H   UNL     1       4.285   3.201  17.371  0.00  0.00    +0.000 HD
BRANCH  12  15
ATOM     15  C   UNL     1       6.479   3.888  16.117  0.00  0.00    +0.000 C 
ATOM     16  C   UNL     1       5.268   3.817  15.195  0.00  0.00    +0.000 C 
ATOM     17  C   UNL     1       5.839   4.095  13.808  0.00  0.00    +0.000 C 
ATOM     18  C   UNL     1       7.046   5.003  14.023  0.00  0.00    +0.000 C 
ATOM     19  C   UNL     1       7.267   5.066  15.527  0.00  0.00    +0.000 C 
ENDBRANCH  12  15
ENDBRANCH   1  13
TORSDOF 2
ENDMDL
MODEL 6
REMARK VINA RESULT:      -6.9      1.366      1.987
REMARK  Name = 
REMARK  2 active torsions:
REMARK  status: ('A' for Active; 'I' for Inactive)
REMARK    1  A    between atoms: C_2  and  C_14
REMARK    2  A    between atoms: N_3  and  C_4
REMARK                            x       y       z     vdW  Elec       q    Type
REMARK                         _______ _______ _______ _____ _____    ______ ____
ROOT
ATOM      1  C   UNL     1       4.459   4.173  17.333  0.00  0.00    +0.000 C 
ATOM      2  C   UNL     1       3.693   2.893  17.727  0.00  0.00    +0.000 C 
ATOM      3  C   UNL     1       2.178   3.054  17.688  0.00  0.00    +0.000 C 
ATOM      4  C   UNL     1       1.751   4.224  18.570  0.00  0.00    +0.000 C 
ATOM      5  C   UNL     1       2.441   5.498  18.160  0.00  0.00    +0.000 A 
ATOM      6  C   UNL     1       1.860   6.730  18.502  0.00  0.00    +0.000 A 
ATOM      7  C   UNL     1       2.480   7.927  18.153  0.00  0.00    +0.000 A 
ATOM      8  C   UNL     1       3.681   7.907  17.449  0.00  0.00    +0.000 A 
ATOM      9  C   UNL     1       4.282   6.690  17.132  0.00  0.00    +0.000 A 
ATOM     10  C   UNL     1       3.687   5.471  17.503  0.00  0.00    +0.000 A 
ENDROOT
BRANCH   1  13
ATOM     11  O   UNL     1       7.158   4.411  16.819  0.00  0.00    +0.000 OA
ATOM     12  C   UNL     1       6.420   4.185  15.862  0.00  0.00    +0.000 C 
ATOM     13  N   UNL     1       5.058   4.040  16.007  0.00  0.00    +0.000 N 
ATOM     14  H   UNL     1       4.491   3.680  15.250  0.00  0.00    +0.000 HD
BRANCH  12  15
ATOM     15  C   UNL     1       6.968   3.988  14.459  0.00  0.00    +0.000 C 
ATOM     16  C   UNL     1       5.917   3.635  13.414  0.00  0.00    +0.000 C 
ATOM     17  C   UNL     1       6.576   3.994  12.087  0.00  0.00    +0.000 C 
ATOM     18  C   UNL     1       7.530   5.146  12.386  0.00  0.00    +0.000 C 
ATOM     19  C   UNL     1       7.553   5.293  13.901  0.00  0.00    +0.000 C 
ENDBRANCH  12  15
ENDBRANCH   1  13
TORSDOF 2
ENDMDL
MODEL 7
REMARK VINA RESULT:      -6.8      1.956      6.575
REMARK  Name = 
REMARK  2 active torsions:
REMARK  status: ('A' for Active; 'I' for Inactive)
REMARK    1  A    between atoms: C_2  and  C_14
REMARK    2  A    between atoms: N_3  and  C_4
REMARK                            x       y       z     vdW  Elec       q    Type
REMARK                         _______ _______ _______ _____ _____    ______ ____
ROOT
ATOM      1  C   UNL     1       6.089   4.732  18.380  0.00  0.00    +0.000 C 
ATOM      2  C   UNL     1       7.015   5.808  18.983  0.00  0.00    +0.000 C 
ATOM      3  C   UNL     1       7.281   6.978  18.043  0.00  0.00    +0.000 C 
ATOM      4  C   UNL     1       7.845   6.471  16.720  0.00  0.00    +0.000 C 
ATOM      5  C   UNL     1       6.924   5.465  16.082  0.00  0.00    +0.000 A 
ATOM      6  C   UNL     1       7.006   5.245  14.698  0.00  0.00    +0.000 A 
ATOM      7  C   UNL     1       6.180   4.310  14.079  0.00  0.00    +0.000 A 
ATOM      8  C   UNL     1       5.256   3.592  14.834  0.00  0.00    +0.000 A 
ATOM      9  C   UNL     1       5.189   3.780  16.214  0.00  0.00    +0.000 A 
ATOM     10  C   UNL     1       6.036   4.697  16.861  0.00  0.00    +0.000 A 
ENDROOT
BRANCH   1  13
ATOM     11  O   UNL     1       4.975   2.658  19.817  0.00  0.00    +0.000 OA
ATOM     12  C   UNL     1       4.302   3.678  19.684  0.00  0.00    +0.000 C 
ATOM     13  N   UNL     1       4.763   4.776  18.992  0.00  0.00    +0.000 N 
ATOM     14  H   UNL     1       4.279   5.662  19.042  0.00  0.00    +0.000 HD
BRANCH  12  15
ATOM     15  C   UNL     1       2.933   3.821  20.327  0.00  0.00    +0.000 C 
ATOM     16  C   UNL     1       1.763   3.538  19.392  0.00  0.00    +0.000 C 
ATOM     17  C   UNL     1       0.600   3.237  20.332  0.00  0.00    +0.000 C 
ATOM     18  C   UNL     1       1.217   2.629  21.588  0.00  0.00    +0.000 C 
ATOM     19  C   UNL     1       2.724   2.776  21.432  0.00  0.00    +0.000 C 
ENDBRANCH  12  15
ENDBRANCH   1  13
TORSDOF 2
ENDMDL
MODEL 8
REMARK VINA RESULT:      -6.7      2.824      6.597
REMARK  Name = 
REMARK  2 active torsions:
REMARK  status: ('A' for Active; 'I' for Inactive)
REMARK    1  A    between atoms: C_2  and  C_14
REMARK    2  A    between atoms: N_3  and  C_4
REMARK                            x       y       z     vdW  Elec       q    Type
REMARK                         _______ _______ _______ _____ _____    ______ ____
ROOT
ATOM      1  C   UNL     1       2.687   5.989  17.823  0.00  0.00    +0.000 C 
ATOM      2  C   UNL     1       1.851   4.696  17.912  0.00  0.00    +0.000 C 
ATOM      3  C   UNL     1       2.670   3.466  18.285  0.00  0.00    +0.000 C 
ATOM      4  C   UNL     1       3.825   3.287  17.304  0.00  0.00    +0.000 C 
ATOM      5  C   UNL     1       4.692   4.517  17.250  0.00  0.00    +0.000 A 
ATOM      6  C   UNL     1       6.018   4.399  16.804  0.00  0.00    +0.000 A 
ATOM      7  C   UNL     1       6.841   5.519  16.726  0.00  0.00    +0.000 A 
ATOM      8  C   UNL     1       6.354   6.767  17.102  0.00  0.00    +0.000 A 
ATOM      9  C   UNL     1       5.029   6.901  17.516  0.00  0.00    +0.000 A 
ATOM     10  C   UNL     1       4.173   5.787  17.572  0.00  0.00    +0.000 A 
ENDROOT
BRANCH   1  13
ATOM     11  O   UNL     1       1.650   8.536  17.603  0.00  0.00    +0.000 OA
ATOM     12  C   UNL     1       1.906   8.126  18.734  0.00  0.00    +0.000 C 
ATOM     13  N   UNL     1       2.420   6.868  18.959  0.00  0.00    +0.000 N 
ATOM     14  H   UNL     1       2.456   6.482  19.893  0.00  0.00    +0.000 HD
BRANCH  12  15
ATOM     15  C   UNL     1       1.615   8.960  19.970  0.00  0.00    +0.000 C 
ATOM     16  C   UNL     1       0.439   9.917  19.824  0.00  0.00    +0.000 C 
ATOM     17  C   UNL     1       0.031  10.228  21.261  0.00  0.00    +0.000 C 
ATOM     18  C   UNL     1       0.389   8.991  22.079  0.00  0.00    +0.000 C 
ATOM     19  C   UNL     1       1.172   8.078  21.146  0.00  0.00    +0.000 C 
ENDBRANCH  12  15
ENDBRANCH   1  13
TORSDOF 2
ENDMDL
MODEL 9
REMARK VINA RESULT:      -6.6      3.091      6.405
REMARK  Name = 
REMARK  2 active torsions:
REMARK  status: ('A' for Active; 'I' for Inactive)
REMARK    1  A    between atoms: C_2  and  C_14
REMARK    2  A    between atoms: N_3  and  C_4
REMARK                            x       y       z     vdW  Elec       q    Type
REMARK                         _______ _______ _______ _____ _____    ______ ____
ROOT
ATOM      1  C   UNL     1       3.557   6.419  18.184  0.00  0.00    +0.000 C 
ATOM      2  C   UNL     1       4.865   6.705  17.418  0.00  0.00    +0.000 C 
ATOM      3  C   UNL     1       5.060   5.818  16.194  0.00  0.00    +0.000 C 
ATOM      4  C   UNL     1       4.989   4.348  16.595  0.00  0.00    +0.000 C 
ATOM      5  C   UNL     1       3.690   4.033  17.289  0.00  0.00    +0.000 A 
ATOM      6  C   UNL     1       3.229   2.706  17.307  0.00  0.00    +0.000 A 
ATOM      7  C   UNL     1       2.041   2.378  17.954  0.00  0.00    +0.000 A 
ATOM      8  C   UNL     1       1.294   3.371  18.581  0.00  0.00    +0.000 A 
ATOM      9  C   UNL     1       1.759   4.686  18.597  0.00  0.00    +0.000 A 
ATOM     10  C   UNL     1       2.972   5.031  17.975  0.00  0.00    +0.000 A 
ENDROOT
BRANCH   1  13
ATOM     11  O   UNL     1       2.261   7.759  20.216  0.00  0.00    +0.000 OA
ATOM     12  C   UNL     1       1.986   8.082  19.062  0.00  0.00    +0.000 C 
ATOM     13  N   UNL     1       2.579   7.483  17.973  0.00  0.00    +0.000 N 
ATOM     14  H   UNL     1       2.480   7.877  17.046  0.00  0.00    +0.000 HD
BRANCH  12  15
ATOM     15  C   UNL     1       1.015   9.210  18.758  0.00  0.00    +0.000 C 
ATOM     16  C   UNL     1       0.201   9.683  19.956  0.00  0.00    +0.000 C 
ATOM     17  C   UNL     1      -0.274  11.077  19.557  0.00  0.00    +0.000 C 
ATOM     18  C   UNL     1       0.796  11.636  18.623  0.00  0.00    +0.000 C 
ATOM     19  C   UNL     1       1.756  10.489  18.344  0.00  0.00    +0.000 C 
ENDBRANCH  12  15
ENDBRANCH   1  13
TORSDOF 2
ENDMDL
