MODEL 1
REMARK VINA RESULT:      -7.8      0.000      0.000
REMARK  Name = 
REMARK  6 active torsions:
REMARK  status: ('A' for Active; 'I' for Inactive)
REMARK    1  A    between atoms: C_1  and  C_2
REMARK    2  A    between atoms: C_5  and  S_6
REMARK    3  A    between atoms: S_6  and  O_9
REMARK    4  A    between atoms: O_9  and  C_10
REMARK    5  A    between atoms: C_13  and  C_14
REMARK    6  A    between atoms: N_15  and  N_16
REMARK                            x       y       z     vdW  Elec       q    Type
REMARK                         _______ _______ _______ _____ _____    ______ ____
ROOT
ATOM      1  C   UNL     1       2.672   5.734  19.287  0.00  0.00    +0.000 A 
ATOM      2  C   UNL     1       2.017   5.836  20.515  0.00  0.00    +0.000 A 
ATOM      3  C   UNL     1       1.432   7.040  20.903  0.00  0.00    +0.000 A 
ATOM      4  C   UNL     1       1.507   8.161  20.076  0.00  0.00    +0.000 A 
ATOM      5  C   UNL     1       2.197   8.085  18.864  0.00  0.00    +0.000 A 
ATOM      6  C   UNL     1       2.783   6.868  18.474  0.00  0.00    +0.000 A 
ENDROOT
BRANCH   4   7
ATOM      7  C   UNL     1       0.843   9.413  20.500  0.00  0.00    +0.000 C 
ATOM      8  N   UNL     1       1.096   9.930  21.662  0.00  0.00    +0.000 NA
BRANCH   8   9
ATOM      9  N   UNL     1       0.389  11.117  21.873  0.00  0.00    +0.000 NA
ATOM     10  C   UNL     1      -0.603  10.946  22.693  0.00  0.00    +0.000 C 
ATOM     11  N   UNL     1      -0.919   9.774  23.301  0.00  0.00    +0.000 N 
ATOM     12  N   UNL     1      -1.427  11.949  23.062  0.00  0.00    +0.000 N 
ATOM     13  H   UNL     1      -0.335   9.050  22.886  0.00  0.00    +0.000 HD
ATOM     14  H   UNL     1      -1.895   9.522  23.262  0.00  0.00    +0.000 HD
ATOM     15  H   UNL     1      -1.352  12.773  22.478  0.00  0.00    +0.000 HD
ATOM     16  H   UNL     1      -2.363  11.709  23.343  0.00  0.00    +0.000 HD
ENDBRANCH   8   9
ENDBRANCH   4   7
BRANCH   1  17
ATOM     17  O   UNL     1       3.258   4.572  18.834  0.00  0.00    +0.000 OA
BRANCH  17  18
ATOM     18  S   UNL     1       4.861   4.311  19.050  0.00  0.00    +0.000 S 
ATOM     19  O   UNL     1       5.042   2.951  19.521  0.00  0.00    +0.000 OA
ATOM     20  O   UNL     1       5.447   5.439  19.755  0.00  0.00    +0.000 OA
BRANCH  18  25
ATOM     21  C   UNL     1       7.250   4.796  13.496  0.00  0.00    +0.000 C 
ATOM     22  C   UNL     1       6.654   4.641  14.865  0.00  0.00    +0.000 A 
ATOM     23  C   UNL     1       5.294   4.344  15.027  0.00  0.00    +0.000 A 
ATOM     24  C   UNL     1       4.743   4.216  16.303  0.00  0.00    +0.000 A 
ATOM     25  C   UNL     1       5.563   4.388  17.419  0.00  0.00    +0.000 A 
ATOM     26  C   UNL     1       6.923   4.681  17.275  0.00  0.00    +0.000 A 
ATOM     27  C   UNL     1       7.464   4.807  15.997  0.00  0.00    +0.000 A 
ENDBRANCH  18  25
ENDBRANCH  17  18
ENDBRANCH   1  17
TORSDOF 5
ENDMDL
MODEL 2
REMARK VINA RESULT:      -7.7      1.759      2.003
REMARK  Name = 
REMARK  6 active torsions:
REMARK  status: ('A' for Active; 'I' for Inactive)
REMARK    1  A    between atoms: C_1  and  C_2
REMARK    2  A    between atoms: C_5  and  S_6
REMARK    3  A    between atoms: S_6  and  O_9
REMARK    4  A    between atoms: O_9  and  C_10
REMARK    5  A    between atoms: C_13  and  C_14
REMARK    6  A    between atoms: N_15  and  N_16
REMARK                            x       y       z     vdW  Elec       q    Type
REMARK                         _______ _______ _______ _____ _____    ______ ____
ROOT
ATOM      1  C   UNL     1       2.717   5.794  19.144  0.00  0.00    +0.000 A 
ATOM      2  C   UNL     1       2.119   6.098  20.367  0.00  0.00    +0.000 A 
ATOM      3  C   UNL     1       1.569   7.359  20.588  0.00  0.00    +0.000 A 
ATOM      4  C   UNL     1       1.623   8.337  19.595  0.00  0.00    +0.000 A 
ATOM      5  C   UNL     1       2.259   8.061  18.383  0.00  0.00    +0.000 A 
ATOM      6  C   UNL     1       2.808   6.786  18.161  0.00  0.00    +0.000 A 
ENDROOT
BRANCH   4   7
ATOM      7  C   UNL     1       0.998   9.654  19.847  0.00  0.00    +0.000 C 
ATOM      8  N   UNL     1       0.616  10.401  18.859  0.00  0.00    +0.000 NA
BRANCH   8   9
ATOM      9  N   UNL     1       0.035  11.594  19.295  0.00  0.00    +0.000 NA
ATOM     10  C   UNL     1      -0.939  11.966  18.521  0.00  0.00    +0.000 C 
ATOM     11  N   UNL     1      -1.374  11.283  17.432  0.00  0.00    +0.000 N 
ATOM     12  N   UNL     1      -1.663  13.083  18.744  0.00  0.00    +0.000 N 
ATOM     13  H   UNL     1      -0.711  10.527  17.264  0.00  0.00    +0.000 HD
ATOM     14  H   UNL     1      -1.508  11.841  16.603  0.00  0.00    +0.000 HD
ATOM     15  H   UNL     1      -1.241  13.715  19.413  0.00  0.00    +0.000 HD
ATOM     16  H   UNL     1      -2.096  13.527  17.952  0.00  0.00    +0.000 HD
ENDBRANCH   8   9
ENDBRANCH   4   7
BRANCH   1  17
ATOM     17  O   UNL     1       3.265   4.564  18.853  0.00  0.00    +0.000 OA
BRANCH  17  18
ATOM     18  S   UNL     1       4.869   4.299  19.058  0.00  0.00    +0.000 S 
ATOM     19  O   UNL     1       5.050   2.940  19.530  0.00  0.00    +0.000 OA
ATOM     20  O   UNL     1       5.463   5.426  19.757  0.00  0.00    +0.000 OA
BRANCH  18  25
ATOM     21  C   UNL     1       7.216   4.769  13.485  0.00  0.00    +0.000 C 
ATOM     22  C   UNL     1       6.631   4.618  14.859  0.00  0.00    +0.000 A 
ATOM     23  C   UNL     1       5.278   4.296  15.032  0.00  0.00    +0.000 A 
ATOM     24  C   UNL     1       4.737   4.172  16.313  0.00  0.00    +0.000 A 
ATOM     25  C   UNL     1       5.560   4.372  17.422  0.00  0.00    +0.000 A 
ATOM     26  C   UNL     1       6.913   4.689  17.267  0.00  0.00    +0.000 A 
ATOM     27  C   UNL     1       7.444   4.812  15.984  0.00  0.00    +0.000 A 
ENDBRANCH  18  25
ENDBRANCH  17  18
ENDBRANCH   1  17
TORSDOF 5
ENDMDL
MODEL 3
REMARK VINA RESULT:      -7.7      0.292      1.046
REMARK  Name = 
REMARK  6 active torsions:
REMARK  status: ('A' for Active; 'I' for Inactive)
REMARK    1  A    between atoms: C_1  and  C_2
REMARK    2  A    between atoms: C_5  and  S_6
REMARK    3  A    between atoms: S_6  and  O_9
REMARK    4  A    between atoms: O_9  and  C_10
REMARK    5  A    between atoms: C_13  and  C_14
REMARK    6  A    between atoms: N_15  and  N_16
REMARK                            x       y       z     vdW  Elec       q    Type
REMARK                         _______ _______ _______ _____ _____    ______ ____
ROOT
ATOM      1  C   UNL     1       2.745   5.795  19.087  0.00  0.00    +0.000 A 
ATOM      2  C   UNL     1       2.747   6.866  18.195  0.00  0.00    +0.000 A 
ATOM      3  C   UNL     1       2.182   8.087  18.559  0.00  0.00    +0.000 A 
ATOM      4  C   UNL     1       1.596   8.247  19.815  0.00  0.00    +0.000 A 
ATOM      5  C   UNL     1       1.548   7.170  20.702  0.00  0.00    +0.000 A 
ATOM      6  C   UNL     1       2.123   5.941  20.333  0.00  0.00    +0.000 A 
ENDROOT
BRANCH   4   7
ATOM      7  C   UNL     1       1.038   9.566  20.185  0.00  0.00    +0.000 C 
ATOM      8  N   UNL     1       0.445   9.733  21.326  0.00  0.00    +0.000 NA
BRANCH   8   9
ATOM      9  N   UNL     1       0.002  11.047  21.501  0.00  0.00    +0.000 NA
ATOM     10  C   UNL     1      -0.739  11.167  22.561  0.00  0.00    +0.000 C 
ATOM     11  N   UNL     1      -1.039  10.161  23.421  0.00  0.00    +0.000 N 
ATOM     12  N   UNL     1      -1.276  12.344  22.947  0.00  0.00    +0.000 N 
ATOM     13  H   UNL     1      -0.702   9.295  23.003  0.00  0.00    +0.000 HD
ATOM     14  H   UNL     1      -2.013  10.090  23.673  0.00  0.00    +0.000 HD
ATOM     15  H   UNL     1      -1.247  13.058  22.230  0.00  0.00    +0.000 HD
ATOM     16  H   UNL     1      -2.122  12.318  23.491  0.00  0.00    +0.000 HD
ENDBRANCH   8   9
ENDBRANCH   4   7
BRANCH   1  17
ATOM     17  O   UNL     1       3.300   4.567  18.799  0.00  0.00    +0.000 OA
BRANCH  17  18
ATOM     18  S   UNL     1       4.904   4.310  19.007  0.00  0.00    +0.000 S 
ATOM     19  O   UNL     1       5.091   2.952  19.480  0.00  0.00    +0.000 OA
ATOM     20  O   UNL     1       5.491   5.440  19.707  0.00  0.00    +0.000 OA
BRANCH  18  25
ATOM     21  C   UNL     1       7.263   4.789  13.439  0.00  0.00    +0.000 C 
ATOM     22  C   UNL     1       6.675   4.636  14.812  0.00  0.00    +0.000 A 
ATOM     23  C   UNL     1       5.321   4.316  14.982  0.00  0.00    +0.000 A 
ATOM     24  C   UNL     1       4.777   4.189  16.262  0.00  0.00    +0.000 A 
ATOM     25  C   UNL     1       5.599   4.385  17.372  0.00  0.00    +0.000 A 
ATOM     26  C   UNL     1       6.952   4.700  17.221  0.00  0.00    +0.000 A 
ATOM     27  C   UNL     1       7.486   4.826  15.939  0.00  0.00    +0.000 A 
ENDBRANCH  18  25
ENDBRANCH  17  18
ENDBRANCH   1  17
TORSDOF 5
ENDMDL
MODEL 4
REMARK VINA RESULT:      -7.7      1.680      2.389
REMARK  Name = 
REMARK  6 active torsions:
REMARK  status: ('A' for Active; 'I' for Inactive)
REMARK    1  A    between atoms: C_1  and  C_2
REMARK    2  A    between atoms: C_5  and  S_6
REMARK    3  A    between atoms: S_6  and  O_9
REMARK    4  A    between atoms: O_9  and  C_10
REMARK    5  A    between atoms: C_13  and  C_14
REMARK    6  A    between atoms: N_15  and  N_16
REMARK                            x       y       z     vdW  Elec       q    Type
REMARK                         _______ _______ _______ _____ _____    ______ ____
ROOT
ATOM      1  C   UNL     1       2.749   5.870  19.125  0.00  0.00    +0.000 A 
ATOM      2  C   UNL     1       2.765   6.875  18.157  0.00  0.00    +0.000 A 
ATOM      3  C   UNL     1       2.190   8.117  18.421  0.00  0.00    +0.000 A 
ATOM      4  C   UNL     1       1.579   8.365  19.651  0.00  0.00    +0.000 A 
ATOM      5  C   UNL     1       1.517   7.353  20.612  0.00  0.00    +0.000 A 
ATOM      6  C   UNL     1       2.102   6.104  20.344  0.00  0.00    +0.000 A 
ENDROOT
BRANCH   4   7
ATOM      7  C   UNL     1       1.011   9.705  19.914  0.00  0.00    +0.000 C 
ATOM      8  N   UNL     1      -0.138  10.042  19.415  0.00  0.00    +0.000 NA
BRANCH   8   9
ATOM      9  N   UNL     1      -0.513  11.335  19.788  0.00  0.00    +0.000 NA
ATOM     10  C   UNL     1      -1.065  11.978  18.804  0.00  0.00    +0.000 C 
ATOM     11  N   UNL     1      -1.284  11.468  17.565  0.00  0.00    +0.000 N 
ATOM     12  N   UNL     1      -1.521  13.243  18.922  0.00  0.00    +0.000 N 
ATOM     13  H   UNL     1      -0.811  10.567  17.521  0.00  0.00    +0.000 HD
ATOM     14  H   UNL     1      -1.003  12.065  16.801  0.00  0.00    +0.000 HD
ATOM     15  H   UNL     1      -1.192  13.718  19.753  0.00  0.00    +0.000 HD
ATOM     16  H   UNL     1      -1.554  13.810  18.091  0.00  0.00    +0.000 HD
ENDBRANCH   8   9
ENDBRANCH   4   7
BRANCH   1  17
ATOM     17  O   UNL     1       3.312   4.627  18.936  0.00  0.00    +0.000 OA
BRANCH  17  18
ATOM     18  S   UNL     1       4.931   4.418  19.078  0.00  0.00    +0.000 S 
ATOM     19  O   UNL     1       5.176   3.070  19.555  0.00  0.00    +0.000 OA
ATOM     20  O   UNL     1       5.514   5.572  19.742  0.00  0.00    +0.000 OA
BRANCH  18  25
ATOM     21  C   UNL     1       7.061   4.463  13.399  0.00  0.00    +0.000 C 
ATOM     22  C   UNL     1       6.539   4.487  14.807  0.00  0.00    +0.000 A 
ATOM     23  C   UNL     1       7.397   4.739  15.887  0.00  0.00    +0.000 A 
ATOM     24  C   UNL     1       6.908   4.745  17.194  0.00  0.00    +0.000 A 
ATOM     25  C   UNL     1       5.553   4.496  17.415  0.00  0.00    +0.000 A 
ATOM     26  C   UNL     1       4.683   4.248  16.350  0.00  0.00    +0.000 A 
ATOM     27  C   UNL     1       5.181   4.243  15.047  0.00  0.00    +0.000 A 
ENDBRANCH  18  25
ENDBRANCH  17  18
ENDBRANCH   1  17
TORSDOF 5
ENDMDL
MODEL 5
REMARK VINA RESULT:      -7.6      1.893      2.336
REMARK  Name = 
REMARK  6 active torsions:
REMARK  status: ('A' for Active; 'I' for Inactive)
REMARK    1  A    between atoms: C_1  and  C_2
REMARK    2  A    between atoms: C_5  and  S_6
REMARK    3  A    between atoms: S_6  and  O_9
REMARK    4  A    between atoms: O_9  and  C_10
REMARK    5  A    between atoms: C_13  and  C_14
REMARK    6  A    between atoms: N_15  and  N_16
REMARK                            x       y       z     vdW  Elec       q    Type
REMARK                         _______ _______ _______ _____ _____    ______ ____
ROOT
ATOM      1  C   UNL     1       2.768   5.863  19.061  0.00  0.00    +0.000 A 
ATOM      2  C   UNL     1       2.166   6.240  20.262  0.00  0.00    +0.000 A 
ATOM      3  C   UNL     1       1.654   7.526  20.420  0.00  0.00    +0.000 A 
ATOM      4  C   UNL     1       1.750   8.457  19.385  0.00  0.00    +0.000 A 
ATOM      5  C   UNL     1       2.390   8.107  18.193  0.00  0.00    +0.000 A 
ATOM      6  C   UNL     1       2.901   6.807  18.036  0.00  0.00    +0.000 A 
ENDROOT
BRANCH   4   7
ATOM      7  C   UNL     1       1.164   9.802  19.570  0.00  0.00    +0.000 C 
ATOM      8  N   UNL     1       1.052  10.615  18.566  0.00  0.00    +0.000 NA
BRANCH   8   9
ATOM      9  N   UNL     1       0.461  11.826  18.934  0.00  0.00    +0.000 NA
ATOM     10  C   UNL     1       1.128  12.844  18.481  0.00  0.00    +0.000 C 
ATOM     11  N   UNL     1       2.249  12.765  17.720  0.00  0.00    +0.000 N 
ATOM     12  N   UNL     1       0.748  14.121  18.697  0.00  0.00    +0.000 N 
ATOM     13  H   UNL     1       2.535  11.787  17.702  0.00  0.00    +0.000 HD
ATOM     14  H   UNL     1       3.008  13.361  18.014  0.00  0.00    +0.000 HD
ATOM     15  H   UNL     1       0.049  14.220  19.422  0.00  0.00    +0.000 HD
ATOM     16  H   UNL     1       1.462  14.830  18.692  0.00  0.00    +0.000 HD
ENDBRANCH   8   9
ENDBRANCH   4   7
BRANCH   1  17
ATOM     17  O   UNL     1       3.280   4.605  18.832  0.00  0.00    +0.000 OA
BRANCH  17  18
ATOM     18  S   UNL     1       4.879   4.308  19.036  0.00  0.00    +0.000 S 
ATOM     19  O   UNL     1       5.033   2.944  19.503  0.00  0.00    +0.000 OA
ATOM     20  O   UNL     1       5.494   5.421  19.739  0.00  0.00    +0.000 OA
BRANCH  18  25
ATOM     21  C   UNL     1       7.225   4.753  13.460  0.00  0.00    +0.000 C 
ATOM     22  C   UNL     1       6.642   4.608  14.836  0.00  0.00    +0.000 A 
ATOM     23  C   UNL     1       5.297   4.253  15.011  0.00  0.00    +0.000 A 
ATOM     24  C   UNL     1       4.756   4.134  16.293  0.00  0.00    +0.000 A 
ATOM     25  C   UNL     1       5.571   4.373  17.400  0.00  0.00    +0.000 A 
ATOM     26  C   UNL     1       6.916   4.723  17.243  0.00  0.00    +0.000 A 
ATOM     27  C   UNL     1       7.446   4.841  15.959  0.00  0.00    +0.000 A 
ENDBRANCH  18  25
ENDBRANCH  17  18
ENDBRANCH   1  17
TORSDOF 5
ENDMDL
MODEL 6
REMARK VINA RESULT:      -7.6      0.256      1.044
REMARK  Name = 
REMARK  6 active torsions:
REMARK  status: ('A' for Active; 'I' for Inactive)
REMARK    1  A    between atoms: C_1  and  C_2
REMARK    2  A    between atoms: C_5  and  S_6
REMARK    3  A    between atoms: S_6  and  O_9
REMARK    4  A    between atoms: O_9  and  C_10
REMARK    5  A    between atoms: C_13  and  C_14
REMARK    6  A    between atoms: N_15  and  N_16
REMARK                            x       y       z     vdW  Elec       q    Type
REMARK                         _______ _______ _______ _____ _____    ______ ____
ROOT
ATOM      1  C   UNL     1       2.586   5.870  19.199  0.00  0.00    +0.000 A 
ATOM      2  C   UNL     1       2.043   6.072  20.468  0.00  0.00    +0.000 A 
ATOM      3  C   UNL     1       1.525   7.317  20.821  0.00  0.00    +0.000 A 
ATOM      4  C   UNL     1       1.556   8.378  19.916  0.00  0.00    +0.000 A 
ATOM      5  C   UNL     1       2.137   8.201  18.658  0.00  0.00    +0.000 A 
ATOM      6  C   UNL     1       2.655   6.943  18.303  0.00  0.00    +0.000 A 
ENDROOT
BRANCH   4   7
ATOM      7  C   UNL     1       0.964   9.675  20.309  0.00  0.00    +0.000 C 
ATOM      8  N   UNL     1       0.684   9.922  21.551  0.00  0.00    +0.000 NA
BRANCH   8   9
ATOM      9  N   UNL     1       0.151  11.201  21.726  0.00  0.00    +0.000 NA
ATOM     10  C   UNL     1      -0.748  11.224  22.663  0.00  0.00    +0.000 C 
ATOM     11  N   UNL     1      -1.121  10.155  23.411  0.00  0.00    +0.000 N 
ATOM     12  N   UNL     1      -1.400  12.349  23.023  0.00  0.00    +0.000 N 
ATOM     13  H   UNL     1      -0.679   9.332  23.004  0.00  0.00    +0.000 HD
ATOM     14  H   UNL     1      -2.118  10.025  23.504  0.00  0.00    +0.000 HD
ATOM     15  H   UNL     1      -1.301  13.107  22.359  0.00  0.00    +0.000 HD
ATOM     16  H   UNL     1      -2.316  12.253  23.427  0.00  0.00    +0.000 HD
ENDBRANCH   8   9
ENDBRANCH   4   7
BRANCH   1  17
ATOM     17  O   UNL     1       3.100   4.663  18.778  0.00  0.00    +0.000 OA
BRANCH  17  18
ATOM     18  S   UNL     1       4.685   4.311  19.001  0.00  0.00    +0.000 S 
ATOM     19  O   UNL     1       4.794   2.913  19.371  0.00  0.00    +0.000 OA
ATOM     20  O   UNL     1       5.306   5.354  19.800  0.00  0.00    +0.000 OA
BRANCH  18  25
ATOM     21  C   UNL     1       7.220   4.658  13.502  0.00  0.00    +0.000 C 
ATOM     22  C   UNL     1       6.597   4.607  14.867  0.00  0.00    +0.000 A 
ATOM     23  C   UNL     1       7.369   4.822  16.017  0.00  0.00    +0.000 A 
ATOM     24  C   UNL     1       6.786   4.759  17.284  0.00  0.00    +0.000 A 
ATOM     25  C   UNL     1       5.424   4.478  17.393  0.00  0.00    +0.000 A 
ATOM     26  C   UNL     1       4.639   4.265  16.257  0.00  0.00    +0.000 A 
ATOM     27  C   UNL     1       5.229   4.330  14.995  0.00  0.00    +0.000 A 
ENDBRANCH  18  25
ENDBRANCH  17  18
ENDBRANCH   1  17
TORSDOF 5
ENDMDL
MODEL 7
REMARK VINA RESULT:      -7.6      1.869      2.342
REMARK  Name = 
REMARK  6 active torsions:
REMARK  status: ('A' for Active; 'I' for Inactive)
REMARK    1  A    between atoms: C_1  and  C_2
REMARK    2  A    between atoms: C_5  and  S_6
REMARK    3  A    between atoms: S_6  and  O_9
REMARK    4  A    between atoms: O_9  and  C_10
REMARK    5  A    between atoms: C_13  and  C_14
REMARK    6  A    between atoms: N_15  and  N_16
REMARK                            x       y       z     vdW  Elec       q    Type
REMARK                         _______ _______ _______ _____ _____    ______ ____
ROOT
ATOM      1  C   UNL     1       2.806   5.728  19.141  0.00  0.00    +0.000 A 
ATOM      2  C   UNL     1       2.204   6.106  20.341  0.00  0.00    +0.000 A 
ATOM      3  C   UNL     1       1.661   7.381  20.485  0.00  0.00    +0.000 A 
ATOM      4  C   UNL     1       1.726   8.299  19.437  0.00  0.00    +0.000 A 
ATOM      5  C   UNL     1       2.365   7.949  18.245  0.00  0.00    +0.000 A 
ATOM      6  C   UNL     1       2.908   6.660  18.102  0.00  0.00    +0.000 A 
ENDROOT
BRANCH   4   7
ATOM      7  C   UNL     1       1.108   9.632  19.609  0.00  0.00    +0.000 C 
ATOM      8  N   UNL     1       0.172  10.032  18.805  0.00  0.00    +0.000 NA
BRANCH   8   9
ATOM      9  N   UNL     1      -0.297  11.305  19.137  0.00  0.00    +0.000 NA
ATOM     10  C   UNL     1      -1.168  11.737  18.275  0.00  0.00    +0.000 C 
ATOM     11  N   UNL     1      -1.603  11.043  17.192  0.00  0.00    +0.000 N 
ATOM     12  N   UNL     1      -1.772  12.938  18.386  0.00  0.00    +0.000 N 
ATOM     13  H   UNL     1      -1.021  10.211  17.112  0.00  0.00    +0.000 HD
ATOM     14  H   UNL     1      -1.615  11.564  16.328  0.00  0.00    +0.000 HD
ATOM     15  H   UNL     1      -1.327  13.557  19.052  0.00  0.00    +0.000 HD
ATOM     16  H   UNL     1      -2.096  13.381  17.543  0.00  0.00    +0.000 HD
ENDBRANCH   8   9
ENDBRANCH   4   7
BRANCH   1  17
ATOM     17  O   UNL     1       3.347   4.480  18.924  0.00  0.00    +0.000 OA
BRANCH  17  18
ATOM     18  S   UNL     1       4.964   4.242  19.048  0.00  0.00    +0.000 S 
ATOM     19  O   UNL     1       5.193   2.869  19.458  0.00  0.00    +0.000 OA
ATOM     20  O   UNL     1       5.565   5.354  19.765  0.00  0.00    +0.000 OA
BRANCH  18  25
ATOM     21  C   UNL     1       7.096   4.538  13.378  0.00  0.00    +0.000 C 
ATOM     22  C   UNL     1       6.570   4.500  14.783  0.00  0.00    +0.000 A 
ATOM     23  C   UNL     1       7.396   4.828  15.868  0.00  0.00    +0.000 A 
ATOM     24  C   UNL     1       6.905   4.776  17.174  0.00  0.00    +0.000 A 
ATOM     25  C   UNL     1       5.580   4.393  17.388  0.00  0.00    +0.000 A 
ATOM     26  C   UNL     1       4.742   4.067  16.318  0.00  0.00    +0.000 A 
ATOM     27  C   UNL     1       5.242   4.121  15.017  0.00  0.00    +0.000 A 
ENDBRANCH  18  25
ENDBRANCH  17  18
ENDBRANCH   1  17
TORSDOF 5
ENDMDL
MODEL 8
REMARK VINA RESULT:      -7.6      1.792      2.225
REMARK  Name = 
REMARK  6 active torsions:
REMARK  status: ('A' for Active; 'I' for Inactive)
REMARK    1  A    between atoms: C_1  and  C_2
REMARK    2  A    between atoms: C_5  and  S_6
REMARK    3  A    between atoms: S_6  and  O_9
REMARK    4  A    between atoms: O_9  and  C_10
REMARK    5  A    between atoms: C_13  and  C_14
REMARK    6  A    between atoms: N_15  and  N_16
REMARK                            x       y       z     vdW  Elec       q    Type
REMARK                         _______ _______ _______ _____ _____    ______ ____
ROOT
ATOM      1  C   UNL     1       2.686   5.945  19.068  0.00  0.00    +0.000 A 
ATOM      2  C   UNL     1       2.703   6.915  18.066  0.00  0.00    +0.000 A 
ATOM      3  C   UNL     1       2.163   8.178  18.299  0.00  0.00    +0.000 A 
ATOM      4  C   UNL     1       1.586   8.483  19.532  0.00  0.00    +0.000 A 
ATOM      5  C   UNL     1       1.523   7.507  20.529  0.00  0.00    +0.000 A 
ATOM      6  C   UNL     1       2.072   6.235  20.292  0.00  0.00    +0.000 A 
ENDROOT
BRANCH   4   7
ATOM      7  C   UNL     1       1.055   9.844  19.761  0.00  0.00    +0.000 C 
ATOM      8  N   UNL     1       1.113  10.739  18.823  0.00  0.00    +0.000 NA
BRANCH   8   9
ATOM      9  N   UNL     1       0.548  11.953  19.221  0.00  0.00    +0.000 NA
ATOM     10  C   UNL     1      -0.573  12.186  18.606  0.00  0.00    +0.000 C 
ATOM     11  N   UNL     1      -1.155  11.355  17.705  0.00  0.00    +0.000 N 
ATOM     12  N   UNL     1      -1.312  13.292  18.830  0.00  0.00    +0.000 N 
ATOM     13  H   UNL     1      -0.488  10.611  17.504  0.00  0.00    +0.000 HD
ATOM     14  H   UNL     1      -1.472  11.799  16.857  0.00  0.00    +0.000 HD
ATOM     15  H   UNL     1      -0.816  14.019  19.330  0.00  0.00    +0.000 HD
ATOM     16  H   UNL     1      -1.909  13.616  18.088  0.00  0.00    +0.000 HD
ENDBRANCH   8   9
ENDBRANCH   4   7
BRANCH   1  17
ATOM     17  O   UNL     1       3.216   4.683  18.911  0.00  0.00    +0.000 OA
BRANCH  17  18
ATOM     18  S   UNL     1       4.822   4.425  19.110  0.00  0.00    +0.000 S 
ATOM     19  O   UNL     1       5.006   3.089  19.644  0.00  0.00    +0.000 OA
ATOM     20  O   UNL     1       5.425   5.583  19.747  0.00  0.00    +0.000 OA
BRANCH  18  25
ATOM     21  C   UNL     1       7.111   4.623  13.496  0.00  0.00    +0.000 C 
ATOM     22  C   UNL     1       6.539   4.539  14.882  0.00  0.00    +0.000 A 
ATOM     23  C   UNL     1       5.180   4.261  15.083  0.00  0.00    +0.000 A 
ATOM     24  C   UNL     1       4.652   4.198  16.374  0.00  0.00    +0.000 A 
ATOM     25  C   UNL     1       5.494   4.418  17.464  0.00  0.00    +0.000 A 
ATOM     26  C   UNL     1       6.852   4.693  17.282  0.00  0.00    +0.000 A 
ATOM     27  C   UNL     1       7.371   4.754  15.989  0.00  0.00    +0.000 A 
ENDBRANCH  18  25
ENDBRANCH  17  18
ENDBRANCH   1  17
TORSDOF 5
ENDMDL
MODEL 9
REMARK VINA RESULT:      -7.3      2.707      3.217
REMARK  Name = 
REMARK  6 active torsions:
REMARK  status: ('A' for Active; 'I' for Inactive)
REMARK    1  A    between atoms: C_1  and  C_2
REMARK    2  A    between atoms: C_5  and  S_6
REMARK    3  A    between atoms: S_6  and  O_9
REMARK    4  A    between atoms: O_9  and  C_10
REMARK    5  A    between atoms: C_13  and  C_14
REMARK    6  A    between atoms: N_15  and  N_16
REMARK                            x       y       z     vdW  Elec       q    Type
REMARK                         _______ _______ _______ _____ _____    ______ ____
ROOT
ATOM      1  C   UNL     1       2.413   7.611  19.240  0.00  0.00    +0.000 A 
ATOM      2  C   UNL     1       2.140   8.342  18.084  0.00  0.00    +0.000 A 
ATOM      3  C   UNL     1       1.178   9.350  18.099  0.00  0.00    +0.000 A 
ATOM      4  C   UNL     1       0.466   9.630  19.266  0.00  0.00    +0.000 A 
ATOM      5  C   UNL     1       0.697   8.876  20.418  0.00  0.00    +0.000 A 
ATOM      6  C   UNL     1       1.672   7.863  20.401  0.00  0.00    +0.000 A 
ENDROOT
BRANCH   4   7
ATOM      7  C   UNL     1      -0.523  10.730  19.259  0.00  0.00    +0.000 C 
ATOM      8  N   UNL     1      -1.483  10.747  18.387  0.00  0.00    +0.000 NA
BRANCH   8   9
ATOM      9  N   UNL     1      -2.321  11.852  18.550  0.00  0.00    +0.000 NA
ATOM     10  C   UNL     1      -3.550  11.575  18.232  0.00  0.00    +0.000 C 
ATOM     11  N   UNL     1      -3.992  10.362  17.815  0.00  0.00    +0.000 N 
ATOM     12  N   UNL     1      -4.548  12.480  18.316  0.00  0.00    +0.000 N 
ATOM     13  H   UNL     1      -3.173   9.776  17.664  0.00  0.00    +0.000 HD
ATOM     14  H   UNL     1      -4.582  10.380  16.997  0.00  0.00    +0.000 HD
ATOM     15  H   UNL     1      -4.225  13.433  18.421  0.00  0.00    +0.000 HD
ATOM     16  H   UNL     1      -5.341  12.361  17.709  0.00  0.00    +0.000 HD
ENDBRANCH   8   9
ENDBRANCH   4   7
BRANCH   1  17
ATOM     17  O   UNL     1       3.361   6.614  19.300  0.00  0.00    +0.000 OA
BRANCH  17  18
ATOM     18  S   UNL     1       3.079   5.156  18.607  0.00  0.00    +0.000 S 
ATOM     19  O   UNL     1       1.764   5.188  17.996  0.00  0.00    +0.000 OA
ATOM     20  O   UNL     1       3.458   4.098  19.528  0.00  0.00    +0.000 OA
BRANCH  18  25
ATOM     21  C   UNL     1       6.939   4.786  13.942  0.00  0.00    +0.000 C 
ATOM     22  C   UNL     1       6.009   4.867  15.118  0.00  0.00    +0.000 A 
ATOM     23  C   UNL     1       5.585   3.706  15.780  0.00  0.00    +0.000 A 
ATOM     24  C   UNL     1       4.709   3.787  16.864  0.00  0.00    +0.000 A 
ATOM     25  C   UNL     1       4.259   5.040  17.283  0.00  0.00    +0.000 A 
ATOM     26  C   UNL     1       4.676   6.208  16.638  0.00  0.00    +0.000 A 
ATOM     27  C   UNL     1       5.551   6.117  15.555  0.00  0.00    +0.000 A 
ENDBRANCH  18  25
ENDBRANCH  17  18
ENDBRANCH   1  17
TORSDOF 5
ENDMDL
