MODEL 1
REMARK VINA RESULT:      -8.2      0.000      0.000
REMARK  Name = 
REMARK  6 active torsions:
REMARK  status: ('A' for Active; 'I' for Inactive)
REMARK    1  A    between atoms: C_1  and  O_2
REMARK    2  A    between atoms: O_2  and  C_3
REMARK    3  A    between atoms: C_5  and  C_6
REMARK    4  A    between atoms: C_20  and  O_21
REMARK    5  A    between atoms: O_21  and  C_22
REMARK    6  A    between atoms: C_22  and  C_23
REMARK                            x       y       z     vdW  Elec       q    Type
REMARK                         _______ _______ _______ _____ _____    ______ ____
ROOT
ATOM      1  C   UNL     1       0.313  10.128  21.047  0.00  0.00    +0.000 A 
ATOM      2  C   UNL     1       0.683   8.800  21.321  0.00  0.00    +0.000 A 
ATOM      3  C   UNL     1       1.318   8.025  20.361  0.00  0.00    +0.000 A 
ATOM      4  C   UNL     1       1.507   8.559  19.073  0.00  0.00    +0.000 A 
ATOM      5  C   UNL     1       1.280   9.910  18.834  0.00  0.00    +0.000 A 
ATOM      6  C   UNL     1       0.757  10.719  19.841  0.00  0.00    +0.000 A 
ENDROOT
BRANCH   3   7
ATOM      7  C   UNL     1       2.187   6.889  20.706  0.00  0.00    +0.000 C 
ATOM      8  C   UNL     1       2.779   5.911  19.998  0.00  0.00    +0.000 C 
ATOM      9  C   UNL     1       1.941   4.682  20.342  0.00  0.00    +0.000 C 
ATOM     10  O   UNL     1       0.723   4.631  20.276  0.00  0.00    +0.000 OA
ATOM     11  N   UNL     1       2.804   3.616  20.190  0.00  0.00    +0.000 N 
ATOM     12  C   UNL     1       3.602   4.002  19.096  0.00  0.00    +0.000 A 
ATOM     13  C   UNL     1       4.147   3.067  18.245  0.00  0.00    +0.000 A 
ATOM     14  C   UNL     1       4.687   3.550  17.067  0.00  0.00    +0.000 A 
ATOM     15  C   UNL     1       4.725   4.939  16.825  0.00  0.00    +0.000 A 
ATOM     16 BR   UNL     1       5.445   5.518  15.171  0.00  0.00    +0.000 Br
ATOM     17  C   UNL     1       4.197   5.886  17.736  0.00  0.00    +0.000 A 
ATOM     18  C   UNL     1       3.558   5.400  18.860  0.00  0.00    +0.000 A 
ATOM     19  H   UNL     1       3.394   3.579  21.020  0.00  0.00    +0.000 HD
ENDBRANCH   3   7
BRANCH   1  21
ATOM     20  C   UNL     1      -0.804  10.179  23.158  0.00  0.00    +0.000 C 
ATOM     21  O   UNL     1      -0.387  10.868  21.968  0.00  0.00    +0.000 OA
ENDBRANCH   1  21
BRANCH   6  22
ATOM     22  O   UNL     1       0.753  12.056  19.502  0.00  0.00    +0.000 OA
BRANCH  22  23
ATOM     23  C   UNL     1      -0.217  12.380  18.518  0.00  0.00    +0.000 C 
BRANCH  23  24
ATOM     24  C   UNL     1      -1.698  12.340  18.921  0.00  0.00    +0.000 C 
ATOM     25  O   UNL     1      -2.154  12.974  19.888  0.00  0.00    +0.000 OA
ATOM     26  N   UNL     1      -2.509  11.547  18.084  0.00  0.00    +0.000 N 
ATOM     27  C   UNL     1      -2.005  10.676  17.025  0.00  0.00    +0.000 C 
ATOM     28  C   UNL     1      -2.801  10.902  15.738  0.00  0.00    +0.000 C 
ATOM     29  O   UNL     1      -4.209  10.747  15.966  0.00  0.00    +0.000 OA
ATOM     30  C   UNL     1      -4.670  11.686  16.954  0.00  0.00    +0.000 C 
ATOM     31  C   UNL     1      -3.946  11.483  18.294  0.00  0.00    +0.000 C 
ENDBRANCH  23  24
ENDBRANCH  22  23
ENDBRANCH   6  22
TORSDOF 5
ENDMDL
MODEL 2
REMARK VINA RESULT:      -8.0      3.596      8.938
REMARK  Name = 
REMARK  6 active torsions:
REMARK  status: ('A' for Active; 'I' for Inactive)
REMARK    1  A    between atoms: C_1  and  O_2
REMARK    2  A    between atoms: O_2  and  C_3
REMARK    3  A    between atoms: C_5  and  C_6
REMARK    4  A    between atoms: C_20  and  O_21
REMARK    5  A    between atoms: O_21  and  C_22
REMARK    6  A    between atoms: C_22  and  C_23
REMARK                            x       y       z     vdW  Elec       q    Type
REMARK                         _______ _______ _______ _____ _____    ______ ____
ROOT
ATOM      1  C   UNL     1       1.218   9.028  20.835  0.00  0.00    +0.000 A 
ATOM      2  C   UNL     1       0.574  10.210  20.432  0.00  0.00    +0.000 A 
ATOM      3  C   UNL     1       0.565  10.598  19.100  0.00  0.00    +0.000 A 
ATOM      4  C   UNL     1       1.289   9.835  18.166  0.00  0.00    +0.000 A 
ATOM      5  C   UNL     1       1.805   8.594  18.522  0.00  0.00    +0.000 A 
ATOM      6  C   UNL     1       1.703   8.148  19.839  0.00  0.00    +0.000 A 
ENDROOT
BRANCH   3   7
ATOM      7  C   UNL     1      -0.482  11.462  18.532  0.00  0.00    +0.000 C 
ATOM      8  C   UNL     1      -1.726  11.801  18.913  0.00  0.00    +0.000 C 
ATOM      9  C   UNL     1      -2.607  11.013  17.947  0.00  0.00    +0.000 C 
ATOM     10  O   UNL     1      -2.498   9.816  17.727  0.00  0.00    +0.000 OA
ATOM     11  N   UNL     1      -3.770  11.749  17.852  0.00  0.00    +0.000 N 
ATOM     12  C   UNL     1      -3.932  12.264  19.153  0.00  0.00    +0.000 A 
ATOM     13  C   UNL     1      -5.182  12.523  19.668  0.00  0.00    +0.000 A 
ATOM     14  C   UNL     1      -5.247  12.772  21.027  0.00  0.00    +0.000 A 
ATOM     15  C   UNL     1      -4.063  12.824  21.793  0.00  0.00    +0.000 A 
ATOM     16 BR   UNL     1      -4.240  13.131  23.654  0.00  0.00    +0.000 Br
ATOM     17  C   UNL     1      -2.783  12.596  21.233  0.00  0.00    +0.000 A 
ATOM     18  C   UNL     1      -2.726  12.238  19.900  0.00  0.00    +0.000 A 
ATOM     19  H   UNL     1      -3.589  12.528  17.220  0.00  0.00    +0.000 HD
ENDBRANCH   3   7
BRANCH   1  21
ATOM     20  C   UNL     1       0.406   9.376  23.054  0.00  0.00    +0.000 C 
ATOM     21  O   UNL     1       1.296   8.686  22.162  0.00  0.00    +0.000 OA
ENDBRANCH   1  21
BRANCH   6  22
ATOM     22  O   UNL     1       2.105   6.837  19.990  0.00  0.00    +0.000 OA
BRANCH  22  23
ATOM     23  C   UNL     1       2.650   6.280  18.803  0.00  0.00    +0.000 C 
BRANCH  23  24
ATOM     24  C   UNL     1       3.893   5.388  18.927  0.00  0.00    +0.000 C 
ATOM     25  O   UNL     1       3.980   4.458  19.746  0.00  0.00    +0.000 OA
ATOM     26  N   UNL     1       4.922   5.691  18.011  0.00  0.00    +0.000 N 
ATOM     27  C   UNL     1       4.928   6.854  17.127  0.00  0.00    +0.000 C 
ATOM     28  C   UNL     1       5.286   6.427  15.703  0.00  0.00    +0.000 C 
ATOM     29  O   UNL     1       6.522   5.698  15.676  0.00  0.00    +0.000 OA
ATOM     30  C   UNL     1       6.434   4.517  16.494  0.00  0.00    +0.000 C 
ATOM     31  C   UNL     1       6.124   4.876  17.955  0.00  0.00    +0.000 C 
ENDBRANCH  23  24
ENDBRANCH  22  23
ENDBRANCH   6  22
TORSDOF 5
ENDMDL
MODEL 3
REMARK VINA RESULT:      -8.0      3.536      8.930
REMARK  Name = 
REMARK  6 active torsions:
REMARK  status: ('A' for Active; 'I' for Inactive)
REMARK    1  A    between atoms: C_1  and  O_2
REMARK    2  A    between atoms: O_2  and  C_3
REMARK    3  A    between atoms: C_5  and  C_6
REMARK    4  A    between atoms: C_20  and  O_21
REMARK    5  A    between atoms: O_21  and  C_22
REMARK    6  A    between atoms: C_22  and  C_23
REMARK                            x       y       z     vdW  Elec       q    Type
REMARK                         _______ _______ _______ _____ _____    ______ ____
ROOT
ATOM      1  C   UNL     1       0.890   9.145  20.597  0.00  0.00    +0.000 A 
ATOM      2  C   UNL     1       0.111  10.284  20.330  0.00  0.00    +0.000 A 
ATOM      3  C   UNL     1       0.204  10.940  19.111  0.00  0.00    +0.000 A 
ATOM      4  C   UNL     1       1.158  10.502  18.174  0.00  0.00    +0.000 A 
ATOM      5  C   UNL     1       1.827   9.298  18.365  0.00  0.00    +0.000 A 
ATOM      6  C   UNL     1       1.638   8.573  19.540  0.00  0.00    +0.000 A 
ENDROOT
BRANCH   3   7
ATOM      7  C   UNL     1      -0.895  11.750  18.561  0.00  0.00    +0.000 C 
ATOM      8  C   UNL     1      -2.154  12.013  18.954  0.00  0.00    +0.000 C 
ATOM      9  C   UNL     1      -2.996  11.187  17.985  0.00  0.00    +0.000 C 
ATOM     10  O   UNL     1      -2.820  10.001  17.750  0.00  0.00    +0.000 OA
ATOM     11  N   UNL     1      -4.199  11.857  17.906  0.00  0.00    +0.000 N 
ATOM     12  C   UNL     1      -4.380  12.347  19.215  0.00  0.00    +0.000 A 
ATOM     13  C   UNL     1      -5.640  12.529  19.740  0.00  0.00    +0.000 A 
ATOM     14  C   UNL     1      -5.708  12.758  21.103  0.00  0.00    +0.000 A 
ATOM     15  C   UNL     1      -4.524  12.869  21.861  0.00  0.00    +0.000 A 
ATOM     16 BR   UNL     1      -4.704  13.144  23.727  0.00  0.00    +0.000 Br
ATOM     17  C   UNL     1      -3.237  12.721  21.290  0.00  0.00    +0.000 A 
ATOM     18  C   UNL     1      -3.169  12.381  19.953  0.00  0.00    +0.000 A 
ATOM     19  H   UNL     1      -4.067  12.652  17.282  0.00  0.00    +0.000 HD
ENDBRANCH   3   7
BRANCH   1  21
ATOM     20  C   UNL     1       0.457   9.370  22.935  0.00  0.00    +0.000 C 
ATOM     21  O   UNL     1       0.858   8.543  21.830  0.00  0.00    +0.000 OA
ENDBRANCH   1  21
BRANCH   6  22
ATOM     22  O   UNL     1       2.234   7.330  19.501  0.00  0.00    +0.000 OA
BRANCH  22  23
ATOM     23  C   UNL     1       2.566   6.912  18.186  0.00  0.00    +0.000 C 
BRANCH  23  24
ATOM     24  C   UNL     1       3.604   5.792  18.023  0.00  0.00    +0.000 C 
ATOM     25  O   UNL     1       4.829   5.997  18.038  0.00  0.00    +0.000 OA
ATOM     26  N   UNL     1       3.052   4.502  17.883  0.00  0.00    +0.000 N 
ATOM     27  C   UNL     1       1.627   4.223  17.720  0.00  0.00    +0.000 C 
ATOM     28  C   UNL     1       1.200   3.106  18.673  0.00  0.00    +0.000 C 
ATOM     29  O   UNL     1       2.020   1.941  18.508  0.00  0.00    +0.000 OA
ATOM     30  C   UNL     1       3.402   2.251  18.764  0.00  0.00    +0.000 C 
ATOM     31  C   UNL     1       3.915   3.335  17.804  0.00  0.00    +0.000 C 
ENDBRANCH  23  24
ENDBRANCH  22  23
ENDBRANCH   6  22
TORSDOF 5
ENDMDL
MODEL 4
REMARK VINA RESULT:      -8.0      3.481      8.966
REMARK  Name = 
REMARK  6 active torsions:
REMARK  status: ('A' for Active; 'I' for Inactive)
REMARK    1  A    between atoms: C_1  and  O_2
REMARK    2  A    between atoms: O_2  and  C_3
REMARK    3  A    between atoms: C_5  and  C_6
REMARK    4  A    between atoms: C_20  and  O_21
REMARK    5  A    between atoms: O_21  and  C_22
REMARK    6  A    between atoms: C_22  and  C_23
REMARK                            x       y       z     vdW  Elec       q    Type
REMARK                         _______ _______ _______ _____ _____    ______ ____
ROOT
ATOM      1  C   UNL     1       0.407  10.224  21.006  0.00  0.00    +0.000 A 
ATOM      2  C   UNL     1      -0.433  11.127  20.332  0.00  0.00    +0.000 A 
ATOM      3  C   UNL     1      -0.502  11.135  18.946  0.00  0.00    +0.000 A 
ATOM      4  C   UNL     1       0.350  10.286  18.218  0.00  0.00    +0.000 A 
ATOM      5  C   UNL     1       1.074   9.292  18.868  0.00  0.00    +0.000 A 
ATOM      6  C   UNL     1       1.045   9.206  20.259  0.00  0.00    +0.000 A 
ENDROOT
BRANCH   3   7
ATOM      7  C   UNL     1      -1.682  11.624  18.214  0.00  0.00    +0.000 C 
ATOM      8  C   UNL     1      -2.990  11.727  18.506  0.00  0.00    +0.000 C 
ATOM      9  C   UNL     1      -3.615  10.602  17.685  0.00  0.00    +0.000 C 
ATOM     10  O   UNL     1      -3.229   9.443  17.688  0.00  0.00    +0.000 OA
ATOM     11  N   UNL     1      -4.906  11.023  17.439  0.00  0.00    +0.000 N 
ATOM     12  C   UNL     1      -5.254  11.703  18.623  0.00  0.00    +0.000 A 
ATOM     13  C   UNL     1      -6.558  11.752  19.061  0.00  0.00    +0.000 A 
ATOM     14  C   UNL     1      -6.754  12.211  20.351  0.00  0.00    +0.000 A 
ATOM     15  C   UNL     1      -5.659  12.665  21.114  0.00  0.00    +0.000 A 
ATOM     16 BR   UNL     1      -6.007  13.240  22.885  0.00  0.00    +0.000 Br
ATOM     17  C   UNL     1      -4.330  12.646  20.626  0.00  0.00    +0.000 A 
ATOM     18  C   UNL     1      -4.117  12.085  19.381  0.00  0.00    +0.000 A 
ATOM     19  H   UNL     1      -4.868  11.701  16.679  0.00  0.00    +0.000 HD
ENDBRANCH   3   7
BRANCH   1  21
ATOM     20  C   UNL     1      -0.678  10.162  23.133  0.00  0.00    +0.000 C 
ATOM     21  O   UNL     1       0.537  10.269  22.372  0.00  0.00    +0.000 OA
ENDBRANCH   1  21
BRANCH   6  22
ATOM     22  O   UNL     1       1.671   8.072  20.735  0.00  0.00    +0.000 OA
BRANCH  22  23
ATOM     23  C   UNL     1       2.200   7.253  19.705  0.00  0.00    +0.000 C 
BRANCH  23  24
ATOM     24  C   UNL     1       2.359   5.751  19.984  0.00  0.00    +0.000 C 
ATOM     25  O   UNL     1       1.632   5.129  20.777  0.00  0.00    +0.000 OA
ATOM     26  N   UNL     1       3.381   5.125  19.242  0.00  0.00    +0.000 N 
ATOM     27  C   UNL     1       4.349   5.831  18.405  0.00  0.00    +0.000 C 
ATOM     28  C   UNL     1       4.452   5.154  17.038  0.00  0.00    +0.000 C 
ATOM     29  O   UNL     1       4.744   3.756  17.172  0.00  0.00    +0.000 OA
ATOM     30  C   UNL     1       3.716   3.092  17.930  0.00  0.00    +0.000 C 
ATOM     31  C   UNL     1       3.591   3.690  19.340  0.00  0.00    +0.000 C 
ENDBRANCH  23  24
ENDBRANCH  22  23
ENDBRANCH   6  22
TORSDOF 5
ENDMDL
MODEL 5
REMARK VINA RESULT:      -8.0      3.223      8.805
REMARK  Name = 
REMARK  6 active torsions:
REMARK  status: ('A' for Active; 'I' for Inactive)
REMARK    1  A    between atoms: C_1  and  O_2
REMARK    2  A    between atoms: O_2  and  C_3
REMARK    3  A    between atoms: C_5  and  C_6
REMARK    4  A    between atoms: C_20  and  O_21
REMARK    5  A    between atoms: O_21  and  C_22
REMARK    6  A    between atoms: C_22  and  C_23
REMARK                            x       y       z     vdW  Elec       q    Type
REMARK                         _______ _______ _______ _____ _____    ______ ____
ROOT
ATOM      1  C   UNL     1      -0.102   9.469  21.206  0.00  0.00    +0.000 A 
ATOM      2  C   UNL     1      -0.663  10.538  20.486  0.00  0.00    +0.000 A 
ATOM      3  C   UNL     1      -0.162  10.900  19.243  0.00  0.00    +0.000 A 
ATOM      4  C   UNL     1       0.978  10.238  18.752  0.00  0.00    +0.000 A 
ATOM      5  C   UNL     1       1.450   9.091  19.381  0.00  0.00    +0.000 A 
ATOM      6  C   UNL     1       0.864   8.655  20.568  0.00  0.00    +0.000 A 
ENDROOT
BRANCH   3   7
ATOM      7  C   UNL     1      -0.975  11.593  18.232  0.00  0.00    +0.000 C 
ATOM      8  C   UNL     1      -2.295  11.680  17.988  0.00  0.00    +0.000 C 
ATOM      9  C   UNL     1      -2.474  10.802  16.752  0.00  0.00    +0.000 C 
ATOM     10  O   UNL     1      -2.057   9.659  16.646  0.00  0.00    +0.000 OA
ATOM     11  N   UNL     1      -3.580  11.321  16.111  0.00  0.00    +0.000 N 
ATOM     12  C   UNL     1      -4.410  11.723  17.176  0.00  0.00    +0.000 A 
ATOM     13  C   UNL     1      -5.781  11.724  17.051  0.00  0.00    +0.000 A 
ATOM     14  C   UNL     1      -6.503  11.879  18.220  0.00  0.00    +0.000 A 
ATOM     15  C   UNL     1      -5.832  12.100  19.441  0.00  0.00    +0.000 A 
ATOM     16 BR   UNL     1      -6.892  12.263  21.003  0.00  0.00    +0.000 Br
ATOM     17  C   UNL     1      -4.420  12.138  19.538  0.00  0.00    +0.000 A 
ATOM     18  C   UNL     1      -3.696  11.872  18.392  0.00  0.00    +0.000 A 
ATOM     19  H   UNL     1      -3.279  12.155  15.607  0.00  0.00    +0.000 HD
ENDBRANCH   3   7
BRANCH   1  21
ATOM     20  C   UNL     1      -0.829  10.273  23.335  0.00  0.00    +0.000 C 
ATOM     21  O   UNL     1      -0.545   9.161  22.469  0.00  0.00    +0.000 OA
ENDBRANCH   1  21
BRANCH   6  22
ATOM     22  O   UNL     1       1.328   7.420  20.969  0.00  0.00    +0.000 OA
BRANCH  22  23
ATOM     23  C   UNL     1       2.234   6.837  20.045  0.00  0.00    +0.000 C 
BRANCH  23  24
ATOM     24  C   UNL     1       2.420   5.313  20.076  0.00  0.00    +0.000 C 
ATOM     25  O   UNL     1       1.728   4.561  20.782  0.00  0.00    +0.000 OA
ATOM     26  N   UNL     1       3.424   4.831  19.212  0.00  0.00    +0.000 N 
ATOM     27  C   UNL     1       4.355   5.677  18.469  0.00  0.00    +0.000 C 
ATOM     28  C   UNL     1       4.419   5.228  17.009  0.00  0.00    +0.000 C 
ATOM     29  O   UNL     1       4.733   3.831  16.909  0.00  0.00    +0.000 OA
ATOM     30  C   UNL     1       3.739   3.038  17.584  0.00  0.00    +0.000 C 
ATOM     31  C   UNL     1       3.655   3.402  19.074  0.00  0.00    +0.000 C 
ENDBRANCH  23  24
ENDBRANCH  22  23
ENDBRANCH   6  22
TORSDOF 5
ENDMDL
MODEL 6
REMARK VINA RESULT:      -8.0      3.597      8.984
REMARK  Name = 
REMARK  6 active torsions:
REMARK  status: ('A' for Active; 'I' for Inactive)
REMARK    1  A    between atoms: C_1  and  O_2
REMARK    2  A    between atoms: O_2  and  C_3
REMARK    3  A    between atoms: C_5  and  C_6
REMARK    4  A    between atoms: C_20  and  O_21
REMARK    5  A    between atoms: O_21  and  C_22
REMARK    6  A    between atoms: C_22  and  C_23
REMARK                            x       y       z     vdW  Elec       q    Type
REMARK                         _______ _______ _______ _____ _____    ______ ____
ROOT
ATOM      1  C   UNL     1       1.479   8.605  20.413  0.00  0.00    +0.000 A 
ATOM      2  C   UNL     1       0.912   9.854  20.102  0.00  0.00    +0.000 A 
ATOM      3  C   UNL     1       0.924  10.336  18.801  0.00  0.00    +0.000 A 
ATOM      4  C   UNL     1       1.593   9.597  17.808  0.00  0.00    +0.000 A 
ATOM      5  C   UNL     1       2.027   8.302  18.070  0.00  0.00    +0.000 A 
ATOM      6  C   UNL     1       1.901   7.770  19.352  0.00  0.00    +0.000 A 
ENDROOT
BRANCH   3   7
ATOM      7  C   UNL     1      -0.066  11.306  18.307  0.00  0.00    +0.000 C 
ATOM      8  C   UNL     1      -1.288  11.692  18.717  0.00  0.00    +0.000 C 
ATOM      9  C   UNL     1      -2.215  11.038  17.696  0.00  0.00    +0.000 C 
ATOM     10  O   UNL     1      -2.181   9.857  17.383  0.00  0.00    +0.000 OA
ATOM     11  N   UNL     1      -3.329  11.851  17.662  0.00  0.00    +0.000 N 
ATOM     12  C   UNL     1      -3.460  12.271  19.001  0.00  0.00    +0.000 A 
ATOM     13  C   UNL     1      -4.692  12.567  19.538  0.00  0.00    +0.000 A 
ATOM     14  C   UNL     1      -4.743  12.714  20.913  0.00  0.00    +0.000 A 
ATOM     15  C   UNL     1      -3.560  12.631  21.676  0.00  0.00    +0.000 A 
ATOM     16 BR   UNL     1      -3.719  12.803  23.556  0.00  0.00    +0.000 Br
ATOM     17  C   UNL     1      -2.295  12.368  21.095  0.00  0.00    +0.000 A 
ATOM     18  C   UNL     1      -2.259  12.112  19.738  0.00  0.00    +0.000 A 
ATOM     19  H   UNL     1      -3.099  12.664  17.092  0.00  0.00    +0.000 HD
ENDBRANCH   3   7
BRANCH   1  21
ATOM     20  C   UNL     1       1.136   9.099  22.725  0.00  0.00    +0.000 C 
ATOM     21  O   UNL     1       1.539   8.163  21.712  0.00  0.00    +0.000 OA
ENDBRANCH   1  21
BRANCH   6  22
ATOM     22  O   UNL     1       2.216   6.428  19.405  0.00  0.00    +0.000 OA
BRANCH  22  23
ATOM     23  C   UNL     1       3.565   6.158  19.056  0.00  0.00    +0.000 C 
BRANCH  23  24
ATOM     24  C   UNL     1       3.833   5.172  17.910  0.00  0.00    +0.000 C 
ATOM     25  O   UNL     1       2.945   4.469  17.401  0.00  0.00    +0.000 OA
ATOM     26  N   UNL     1       5.169   5.150  17.460  0.00  0.00    +0.000 N 
ATOM     27  C   UNL     1       6.275   5.850  18.111  0.00  0.00    +0.000 C 
ATOM     28  C   UNL     1       7.092   6.619  17.072  0.00  0.00    +0.000 C 
ATOM     29  O   UNL     1       7.525   5.756  16.010  0.00  0.00    +0.000 OA
ATOM     30  C   UNL     1       6.395   5.160  15.347  0.00  0.00    +0.000 C 
ATOM     31  C   UNL     1       5.552   4.327  16.325  0.00  0.00    +0.000 C 
ENDBRANCH  23  24
ENDBRANCH  22  23
ENDBRANCH   6  22
TORSDOF 5
ENDMDL
MODEL 7
REMARK VINA RESULT:      -7.9      2.263      3.090
REMARK  Name = 
REMARK  6 active torsions:
REMARK  status: ('A' for Active; 'I' for Inactive)
REMARK    1  A    between atoms: C_1  and  O_2
REMARK    2  A    between atoms: O_2  and  C_3
REMARK    3  A    between atoms: C_5  and  C_6
REMARK    4  A    between atoms: C_20  and  O_21
REMARK    5  A    between atoms: O_21  and  C_22
REMARK    6  A    between atoms: C_22  and  C_23
REMARK                            x       y       z     vdW  Elec       q    Type
REMARK                         _______ _______ _______ _____ _____    ______ ____
ROOT
ATOM      1  C   UNL     1       1.313  11.266  18.789  0.00  0.00    +0.000 A 
ATOM      2  C   UNL     1       1.985  10.249  18.090  0.00  0.00    +0.000 A 
ATOM      3  C   UNL     1       2.020   8.951  18.581  0.00  0.00    +0.000 A 
ATOM      4  C   UNL     1       1.448   8.685  19.838  0.00  0.00    +0.000 A 
ATOM      5  C   UNL     1       0.658   9.642  20.467  0.00  0.00    +0.000 A 
ATOM      6  C   UNL     1       0.522  10.911  19.907  0.00  0.00    +0.000 A 
ENDROOT
BRANCH   3   7
ATOM      7  C   UNL     1       2.206   7.779  17.711  0.00  0.00    +0.000 C 
ATOM      8  C   UNL     1       2.587   6.506  17.921  0.00  0.00    +0.000 C 
ATOM      9  C   UNL     1       4.005   6.476  17.359  0.00  0.00    +0.000 C 
ATOM     10  O   UNL     1       4.883   7.276  17.645  0.00  0.00    +0.000 OA
ATOM     11  N   UNL     1       4.201   5.166  16.972  0.00  0.00    +0.000 N 
ATOM     12  C   UNL     1       3.502   4.433  17.952  0.00  0.00    +0.000 A 
ATOM     13  C   UNL     1       3.901   3.167  18.316  0.00  0.00    +0.000 A 
ATOM     14  C   UNL     1       3.318   2.645  19.456  0.00  0.00    +0.000 A 
ATOM     15  C   UNL     1       2.318   3.372  20.135  0.00  0.00    +0.000 A 
ATOM     16 BR   UNL     1       1.597   2.604  21.710  0.00  0.00    +0.000 Br
ATOM     17  C   UNL     1       1.893   4.656  19.717  0.00  0.00    +0.000 A 
ATOM     18  C   UNL     1       2.552   5.226  18.645  0.00  0.00    +0.000 A 
ATOM     19  H   UNL     1       3.730   5.036  16.078  0.00  0.00    +0.000 HD
ENDBRANCH   3   7
BRANCH   1  21
ATOM     20  C   UNL     1       2.611  13.240  18.435  0.00  0.00    +0.000 C 
ATOM     21  O   UNL     1       1.346  12.565  18.345  0.00  0.00    +0.000 OA
ENDBRANCH   1  21
BRANCH   6  22
ATOM     22  O   UNL     1      -0.423  11.680  20.554  0.00  0.00    +0.000 OA
BRANCH  22  23
ATOM     23  C   UNL     1      -1.173  12.501  19.672  0.00  0.00    +0.000 C 
BRANCH  23  24
ATOM     24  C   UNL     1      -2.696  12.305  19.621  0.00  0.00    +0.000 C 
ATOM     25  O   UNL     1      -3.470  12.806  20.453  0.00  0.00    +0.000 OA
ATOM     26  N   UNL     1      -3.148  11.533  18.531  0.00  0.00    +0.000 N 
ATOM     27  C   UNL     1      -2.276  10.810  17.609  0.00  0.00    +0.000 C 
ATOM     28  C   UNL     1      -2.691  11.092  16.165  0.00  0.00    +0.000 C 
ATOM     29  O   UNL     1      -4.082  10.805  15.960  0.00  0.00    +0.000 OA
ATOM     30  C   UNL     1      -4.900  11.606  16.832  0.00  0.00    +0.000 C 
ATOM     31  C   UNL     1      -4.571  11.335  18.307  0.00  0.00    +0.000 C 
ENDBRANCH  23  24
ENDBRANCH  22  23
ENDBRANCH   6  22
TORSDOF 5
ENDMDL
MODEL 8
REMARK VINA RESULT:      -7.8      3.615      8.621
REMARK  Name = 
REMARK  6 active torsions:
REMARK  status: ('A' for Active; 'I' for Inactive)
REMARK    1  A    between atoms: C_1  and  O_2
REMARK    2  A    between atoms: O_2  and  C_3
REMARK    3  A    between atoms: C_5  and  C_6
REMARK    4  A    between atoms: C_20  and  O_21
REMARK    5  A    between atoms: O_21  and  C_22
REMARK    6  A    between atoms: C_22  and  C_23
REMARK                            x       y       z     vdW  Elec       q    Type
REMARK                         _______ _______ _______ _____ _____    ______ ____
ROOT
ATOM      1  C   UNL     1       2.710   4.584  19.656  0.00  0.00    +0.000 A 
ATOM      2  C   UNL     1       2.165   5.307  20.731  0.00  0.00    +0.000 A 
ATOM      3  C   UNL     1       1.875   6.659  20.605  0.00  0.00    +0.000 A 
ATOM      4  C   UNL     1       2.219   7.319  19.412  0.00  0.00    +0.000 A 
ATOM      5  C   UNL     1       2.620   6.591  18.297  0.00  0.00    +0.000 A 
ATOM      6  C   UNL     1       2.792   5.211  18.390  0.00  0.00    +0.000 A 
ENDROOT
BRANCH   3   7
ATOM      7  C   UNL     1       0.856   7.331  21.427  0.00  0.00    +0.000 C 
ATOM      8  C   UNL     1       0.249   8.530  21.374  0.00  0.00    +0.000 C 
ATOM      9  C   UNL     1       0.905   9.298  22.518  0.00  0.00    +0.000 C 
ATOM     10  O   UNL     1       2.111   9.395  22.688  0.00  0.00    +0.000 OA
ATOM     11  N   UNL     1      -0.043  10.220  22.911  0.00  0.00    +0.000 N 
ATOM     12  C   UNL     1      -0.664  10.578  21.698  0.00  0.00    +0.000 A 
ATOM     13  C   UNL     1      -1.203  11.832  21.516  0.00  0.00    +0.000 A 
ATOM     14  C   UNL     1      -1.549  12.168  20.219  0.00  0.00    +0.000 A 
ATOM     15  C   UNL     1      -1.412  11.221  19.183  0.00  0.00    +0.000 A 
ATOM     16 BR   UNL     1      -1.870  11.772  17.430  0.00  0.00    +0.000 Br
ATOM     17  C   UNL     1      -0.894   9.921  19.403  0.00  0.00    +0.000 A 
ATOM     18  C   UNL     1      -0.444   9.622  20.674  0.00  0.00    +0.000 A 
ATOM     19  H   UNL     1      -0.725   9.732  23.489  0.00  0.00    +0.000 HD
ENDBRANCH   3   7
BRANCH   1  21
ATOM     20  C   UNL     1       2.076   2.289  19.462  0.00  0.00    +0.000 C 
ATOM     21  O   UNL     1       3.071   3.268  19.805  0.00  0.00    +0.000 OA
ENDBRANCH   1  21
BRANCH   6  22
ATOM     22  O   UNL     1       3.023   4.619  17.166  0.00  0.00    +0.000 OA
BRANCH  22  23
ATOM     23  C   UNL     1       4.392   4.317  16.942  0.00  0.00    +0.000 C 
BRANCH  23  24
ATOM     24  C   UNL     1       5.290   5.417  16.359  0.00  0.00    +0.000 C 
ATOM     25  O   UNL     1       4.992   6.066  15.342  0.00  0.00    +0.000 OA
ATOM     26  N   UNL     1       6.472   5.654  17.091  0.00  0.00    +0.000 N 
ATOM     27  C   UNL     1       6.935   4.831  18.206  0.00  0.00    +0.000 C 
ATOM     28  C   UNL     1       7.333   5.722  19.383  0.00  0.00    +0.000 C 
ATOM     29  O   UNL     1       8.292   6.712  18.984  0.00  0.00    +0.000 OA
ATOM     30  C   UNL     1       7.754   7.549  17.944  0.00  0.00    +0.000 C 
ATOM     31  C   UNL     1       7.377   6.723  16.704  0.00  0.00    +0.000 C 
ENDBRANCH  23  24
ENDBRANCH  22  23
ENDBRANCH   6  22
TORSDOF 5
ENDMDL
MODEL 9
REMARK VINA RESULT:      -7.8      3.358      8.596
REMARK  Name = 
REMARK  6 active torsions:
REMARK  status: ('A' for Active; 'I' for Inactive)
REMARK    1  A    between atoms: C_1  and  O_2
REMARK    2  A    between atoms: O_2  and  C_3
REMARK    3  A    between atoms: C_5  and  C_6
REMARK    4  A    between atoms: C_20  and  O_21
REMARK    5  A    between atoms: O_21  and  C_22
REMARK    6  A    between atoms: C_22  and  C_23
REMARK                            x       y       z     vdW  Elec       q    Type
REMARK                         _______ _______ _______ _____ _____    ______ ____
ROOT
ATOM      1  C   UNL     1       2.318   5.211  19.862  0.00  0.00    +0.000 A 
ATOM      2  C   UNL     1       1.757   6.117  20.779  0.00  0.00    +0.000 A 
ATOM      3  C   UNL     1       1.617   7.460  20.456  0.00  0.00    +0.000 A 
ATOM      4  C   UNL     1       2.128   7.921  19.230  0.00  0.00    +0.000 A 
ATOM      5  C   UNL     1       2.550   7.017  18.261  0.00  0.00    +0.000 A 
ATOM      6  C   UNL     1       2.573   5.653  18.542  0.00  0.00    +0.000 A 
ENDROOT
BRANCH   3   7
ATOM      7  C   UNL     1       0.604   8.324  21.083  0.00  0.00    +0.000 C 
ATOM      8  C   UNL     1      -0.107   9.388  20.670  0.00  0.00    +0.000 C 
ATOM      9  C   UNL     1       0.559  10.550  21.402  0.00  0.00    +0.000 C 
ATOM     10  O   UNL     1       1.761  10.769  21.410  0.00  0.00    +0.000 OA
ATOM     11  N   UNL     1      -0.435  11.498  21.533  0.00  0.00    +0.000 N 
ATOM     12  C   UNL     1      -1.168  11.363  20.337  0.00  0.00    +0.000 A 
ATOM     13  C   UNL     1      -1.824  12.436  19.778  0.00  0.00    +0.000 A 
ATOM     14  C   UNL     1      -2.287  12.266  18.485  0.00  0.00    +0.000 A 
ATOM     15  C   UNL     1      -2.141  11.020  17.841  0.00  0.00    +0.000 A 
ATOM     16 BR   UNL     1      -2.766  10.880  16.058  0.00  0.00    +0.000 Br
ATOM     17  C   UNL     1      -1.499   9.916  18.453  0.00  0.00    +0.000 A 
ATOM     18  C   UNL     1      -0.938  10.117  19.699  0.00  0.00    +0.000 A 
ATOM     19  H   UNL     1      -1.032  11.211  22.308  0.00  0.00    +0.000 HD
ENDBRANCH   3   7
BRANCH   1  21
ATOM     20  C   UNL     1       1.910   3.452  21.427  0.00  0.00    +0.000 C 
ATOM     21  O   UNL     1       2.530   3.899  20.209  0.00  0.00    +0.000 OA
ENDBRANCH   1  21
BRANCH   6  22
ATOM     22  O   UNL     1       2.848   4.884  17.431  0.00  0.00    +0.000 OA
BRANCH  22  23
ATOM     23  C   UNL     1       4.225   4.565  17.301  0.00  0.00    +0.000 C 
BRANCH  23  24
ATOM     24  C   UNL     1       5.151   5.606  16.653  0.00  0.00    +0.000 C 
ATOM     25  O   UNL     1       4.821   6.282  15.665  0.00  0.00    +0.000 OA
ATOM     26  N   UNL     1       6.399   5.754  17.293  0.00  0.00    +0.000 N 
ATOM     27  C   UNL     1       6.887   4.892  18.366  0.00  0.00    +0.000 C 
ATOM     28  C   UNL     1       7.436   5.742  19.512  0.00  0.00    +0.000 C 
ATOM     29  O   UNL     1       8.428   6.667  19.043  0.00  0.00    +0.000 OA
ATOM     30  C   UNL     1       7.871   7.549  18.051  0.00  0.00    +0.000 C 
ATOM     31  C   UNL     1       7.344   6.762  16.841  0.00  0.00    +0.000 C 
ENDBRANCH  23  24
ENDBRANCH  22  23
ENDBRANCH   6  22
TORSDOF 5
ENDMDL
