MODEL 1
REMARK VINA RESULT:      -8.2      0.000      0.000
REMARK  Name = 
REMARK  11 active torsions:
REMARK  status: ('A' for Active; 'I' for Inactive)
REMARK    1  A    between atoms: C_1  and  O_2
REMARK    2  A    between atoms: O_2  and  C_3
REMARK    3  A    between atoms: C_5  and  C_6
REMARK    4  A    between atoms: N_10  and  C_11
REMARK    5  A    between atoms: C_14  and  N_15
REMARK    6  A    between atoms: N_24  and  C_25
REMARK    7  A    between atoms: C_25  and  C_26
REMARK    8  A    between atoms: C_26  and  C_27
REMARK    9  A    between atoms: C_26  and  C_28
REMARK   10  A    between atoms: C_26  and  O_29
REMARK   11  A    between atoms: O_29  and  C_30
REMARK                            x       y       z     vdW  Elec       q    Type
REMARK                         _______ _______ _______ _____ _____    ______ ____
ROOT
ATOM      1  N   UNL     1       1.437   7.646  20.798  0.00  0.00    +0.000 N 
ATOM      2  C   UNL     1       1.835   6.428  20.156  0.00  0.00    +0.000 A 
ATOM      3  N   UNL     1       0.956   5.494  20.495  0.00  0.00    +0.000 NA
ATOM      4  C   UNL     1       1.401   4.241  20.558  0.00  0.00    +0.000 A 
ATOM      5  C   UNL     1       2.707   3.864  20.399  0.00  0.00    +0.000 A 
ATOM      6  C   UNL     1       3.138   2.729  21.103  0.00  0.00    +0.000 A 
ATOM      7  C   UNL     1       4.337   2.174  20.776  0.00  0.00    +0.000 A 
ATOM      8  N   UNL     1       5.004   2.593  19.702  0.00  0.00    +0.000 NA
ATOM      9  C   UNL     1       4.610   3.754  19.079  0.00  0.00    +0.000 A 
ATOM     10  N   UNL     1       5.547   3.958  18.050  0.00  0.00    +0.000 N 
ATOM     11  C   UNL     1       3.493   4.654  19.576  0.00  0.00    +0.000 A 
ATOM     12  N   UNL     1       3.009   6.052  19.533  0.00  0.00    +0.000 NA
ATOM     13  H   UNL     1       0.670   7.322  21.393  0.00  0.00    +0.000 HD
ATOM     14  H   UNL     1       6.200   3.213  18.359  0.00  0.00    +0.000 HD
ENDROOT
BRANCH   1  20
ATOM     15  C   UNL     1       1.093   9.999  21.599  0.00  0.00    +0.000 A 
ATOM     16  N   UNL     1       0.922  11.356  21.441  0.00  0.00    +0.000 NA
ATOM     17  C   UNL     1       0.905  11.836  20.191  0.00  0.00    +0.000 A 
ATOM     18  C   UNL     1       1.059  10.982  19.098  0.00  0.00    +0.000 A 
ATOM     19  C   UNL     1       1.223   9.594  19.274  0.00  0.00    +0.000 A 
ATOM     20  C   UNL     1       1.232   9.032  20.541  0.00  0.00    +0.000 A 
BRANCH  17  21
ATOM     21  C   UNL     1       0.748  13.292  20.017  0.00  0.00    +0.000 A 
ATOM     22  N   UNL     1       1.724  14.123  19.668  0.00  0.00    +0.000 NA
ATOM     23  N   UNL     1       1.176  15.384  19.582  0.00  0.00    +0.000 NA
ATOM     24  N   UNL     1      -0.102  15.346  19.871  0.00  0.00    +0.000 NA
ATOM     25  N   UNL     1      -0.404  14.052  20.135  0.00  0.00    +0.000 N 
ATOM     26  C   UNL     1      -1.741  13.719  20.445  0.00  0.00    +0.000 C 
ENDBRANCH  17  21
BRANCH  15  28
ATOM     27  C   UNL     1      -0.269   9.496  23.469  0.00  0.00    +0.000 C 
ATOM     28  O   UNL     1       1.061   9.541  22.917  0.00  0.00    +0.000 OA
ENDBRANCH  15  28
ENDBRANCH   1  20
BRANCH  10  29
ATOM     29  C   UNL     1       5.313   3.493  16.635  0.00  0.00    +0.000 C 
BRANCH  29  30
ATOM     30  C   UNL     1       5.731   4.626  15.547  0.00  0.00    +0.000 C 
ATOM     31  C   UNL     1       5.111   5.988  15.937  0.00  0.00    +0.000 C 
ATOM     32  C   UNL     1       7.261   4.765  15.505  0.00  0.00    +0.000 C 
BRANCH  30  33
ATOM     33  O   UNL     1       5.238   4.253  14.231  0.00  0.00    +0.000 OA
ATOM     34  C   UNL     1       6.208   3.788  13.282  0.00  0.00    +0.000 C 
ENDBRANCH  30  33
ENDBRANCH  29  30
ENDBRANCH  10  29
TORSDOF 6
ENDMDL
MODEL 2
REMARK VINA RESULT:      -8.1      0.966      1.681
REMARK  Name = 
REMARK  11 active torsions:
REMARK  status: ('A' for Active; 'I' for Inactive)
REMARK    1  A    between atoms: C_1  and  O_2
REMARK    2  A    between atoms: O_2  and  C_3
REMARK    3  A    between atoms: C_5  and  C_6
REMARK    4  A    between atoms: N_10  and  C_11
REMARK    5  A    between atoms: C_14  and  N_15
REMARK    6  A    between atoms: N_24  and  C_25
REMARK    7  A    between atoms: C_25  and  C_26
REMARK    8  A    between atoms: C_26  and  C_27
REMARK    9  A    between atoms: C_26  and  C_28
REMARK   10  A    between atoms: C_26  and  O_29
REMARK   11  A    between atoms: O_29  and  C_30
REMARK                            x       y       z     vdW  Elec       q    Type
REMARK                         _______ _______ _______ _____ _____    ______ ____
ROOT
ATOM      1  N   UNL     1       1.406   7.659  20.703  0.00  0.00    +0.000 N 
ATOM      2  C   UNL     1       1.896   6.478  20.056  0.00  0.00    +0.000 A 
ATOM      3  N   UNL     1       0.977   5.533  20.202  0.00  0.00    +0.000 NA
ATOM      4  C   UNL     1       1.407   4.275  20.255  0.00  0.00    +0.000 A 
ATOM      5  C   UNL     1       2.722   3.896  20.272  0.00  0.00    +0.000 A 
ATOM      6  C   UNL     1       3.043   2.717  20.963  0.00  0.00    +0.000 A 
ATOM      7  C   UNL     1       4.277   2.172  20.788  0.00  0.00    +0.000 A 
ATOM      8  N   UNL     1       5.098   2.648  19.853  0.00  0.00    +0.000 NA
ATOM      9  C   UNL     1       4.803   3.849  19.249  0.00  0.00    +0.000 A 
ATOM     10  N   UNL     1       5.884   4.105  18.387  0.00  0.00    +0.000 N 
ATOM     11  C   UNL     1       3.623   4.726  19.626  0.00  0.00    +0.000 A 
ATOM     12  N   UNL     1       3.151   6.129  19.595  0.00  0.00    +0.000 NA
ATOM     13  H   UNL     1       0.558   7.307  21.155  0.00  0.00    +0.000 HD
ATOM     14  H   UNL     1       6.483   3.337  18.745  0.00  0.00    +0.000 HD
ENDROOT
BRANCH   1  20
ATOM     15  C   UNL     1       1.146   9.989  21.598  0.00  0.00    +0.000 A 
ATOM     16  N   UNL     1       1.015  11.355  21.494  0.00  0.00    +0.000 NA
ATOM     17  C   UNL     1       0.999  11.884  20.264  0.00  0.00    +0.000 A 
ATOM     18  C   UNL     1       1.113  11.068  19.137  0.00  0.00    +0.000 A 
ATOM     19  C   UNL     1       1.236   9.670  19.258  0.00  0.00    +0.000 A 
ATOM     20  C   UNL     1       1.242   9.060  20.502  0.00  0.00    +0.000 A 
BRANCH  17  21
ATOM     21  C   UNL     1       0.886  13.349  20.148  0.00  0.00    +0.000 A 
ATOM     22  N   UNL     1      -0.170  14.061  20.531  0.00  0.00    +0.000 NA
ATOM     23  N   UNL     1       0.121  15.385  20.288  0.00  0.00    +0.000 NA
ATOM     24  N   UNL     1       1.318  15.501  19.768  0.00  0.00    +0.000 NA
ATOM     25  N   UNL     1       1.828  14.249  19.679  0.00  0.00    +0.000 N 
ATOM     26  C   UNL     1       3.138  14.086  19.178  0.00  0.00    +0.000 C 
ENDBRANCH  17  21
BRANCH  15  28
ATOM     27  C   UNL     1      -0.203   9.500  23.482  0.00  0.00    +0.000 C 
ATOM     28  O   UNL     1       1.114   9.481  22.898  0.00  0.00    +0.000 OA
ENDBRANCH  15  28
ENDBRANCH   1  20
BRANCH  10  29
ATOM     29  C   UNL     1       5.866   3.727  16.928  0.00  0.00    +0.000 C 
BRANCH  29  30
ATOM     30  C   UNL     1       6.264   4.980  15.972  0.00  0.00    +0.000 C 
ATOM     31  C   UNL     1       6.500   4.486  14.525  0.00  0.00    +0.000 C 
ATOM     32  C   UNL     1       5.126   6.013  15.970  0.00  0.00    +0.000 C 
BRANCH  30  33
ATOM     33  O   UNL     1       7.487   5.601  16.454  0.00  0.00    +0.000 OA
ATOM     34  C   UNL     1       7.352   6.858  17.133  0.00  0.00    +0.000 C 
ENDBRANCH  30  33
ENDBRANCH  29  30
ENDBRANCH  10  29
TORSDOF 6
ENDMDL
MODEL 3
REMARK VINA RESULT:      -8.1      1.451      2.198
REMARK  Name = 
REMARK  11 active torsions:
REMARK  status: ('A' for Active; 'I' for Inactive)
REMARK    1  A    between atoms: C_1  and  O_2
REMARK    2  A    between atoms: O_2  and  C_3
REMARK    3  A    between atoms: C_5  and  C_6
REMARK    4  A    between atoms: N_10  and  C_11
REMARK    5  A    between atoms: C_14  and  N_15
REMARK    6  A    between atoms: N_24  and  C_25
REMARK    7  A    between atoms: C_25  and  C_26
REMARK    8  A    between atoms: C_26  and  C_27
REMARK    9  A    between atoms: C_26  and  C_28
REMARK   10  A    between atoms: C_26  and  O_29
REMARK   11  A    between atoms: O_29  and  C_30
REMARK                            x       y       z     vdW  Elec       q    Type
REMARK                         _______ _______ _______ _____ _____    ______ ____
ROOT
ATOM      1  N   UNL     1       1.199   7.086  21.294  0.00  0.00    +0.000 N 
ATOM      2  C   UNL     1       1.757   6.056  20.468  0.00  0.00    +0.000 A 
ATOM      3  N   UNL     1       0.904   5.040  20.469  0.00  0.00    +0.000 NA
ATOM      4  C   UNL     1       1.418   3.820  20.324  0.00  0.00    +0.000 A 
ATOM      5  C   UNL     1       2.756   3.534  20.276  0.00  0.00    +0.000 A 
ATOM      6  C   UNL     1       3.164   2.287  20.773  0.00  0.00    +0.000 A 
ATOM      7  C   UNL     1       4.429   1.861  20.510  0.00  0.00    +0.000 A 
ATOM      8  N   UNL     1       5.203   2.531  19.657  0.00  0.00    +0.000 NA
ATOM      9  C   UNL     1       4.819   3.787  19.248  0.00  0.00    +0.000 A 
ATOM     10  N   UNL     1       5.868   4.247  18.432  0.00  0.00    +0.000 N 
ATOM     11  C   UNL     1       3.589   4.514  19.763  0.00  0.00    +0.000 A 
ATOM     12  N   UNL     1       3.025   5.869  19.953  0.00  0.00    +0.000 NA
ATOM     13  H   UNL     1       0.383   6.611  21.689  0.00  0.00    +0.000 HD
ATOM     14  H   UNL     1       6.521   3.476  18.663  0.00  0.00    +0.000 HD
ENDROOT
BRANCH   1  20
ATOM     15  C   UNL     1       1.116   9.320  20.153  0.00  0.00    +0.000 A 
ATOM     16  N   UNL     1       0.862  10.670  20.078  0.00  0.00    +0.000 NA
ATOM     17  C   UNL     1       0.382  11.273  21.174  0.00  0.00    +0.000 A 
ATOM     18  C   UNL     1       0.150  10.545  22.342  0.00  0.00    +0.000 A 
ATOM     19  C   UNL     1       0.425   9.165  22.409  0.00  0.00    +0.000 A 
ATOM     20  C   UNL     1       0.939   8.487  21.314  0.00  0.00    +0.000 A 
BRANCH  17  21
ATOM     21  C   UNL     1       0.083  12.714  21.090  0.00  0.00    +0.000 A 
ATOM     22  N   UNL     1       0.901  13.682  21.491  0.00  0.00    +0.000 NA
ATOM     23  N   UNL     1       0.278  14.880  21.220  0.00  0.00    +0.000 NA
ATOM     24  N   UNL     1      -0.893  14.672  20.668  0.00  0.00    +0.000 NA
ATOM     25  N   UNL     1      -1.039  13.329  20.561  0.00  0.00    +0.000 N 
ATOM     26  C   UNL     1      -2.213  12.823  19.961  0.00  0.00    +0.000 C 
ENDBRANCH  17  21
BRANCH  15  28
ATOM     27  C   UNL     1       1.887   9.702  17.948  0.00  0.00    +0.000 C 
ATOM     28  O   UNL     1       1.655   8.746  19.001  0.00  0.00    +0.000 OA
ENDBRANCH  15  28
ENDBRANCH   1  20
BRANCH  10  29
ATOM     29  C   UNL     1       5.852   4.100  16.932  0.00  0.00    +0.000 C 
BRANCH  29  30
ATOM     30  C   UNL     1       6.052   5.528  16.180  0.00  0.00    +0.000 C 
ATOM     31  C   UNL     1       5.929   5.340  14.649  0.00  0.00    +0.000 C 
ATOM     32  C   UNL     1       4.975   6.517  16.651  0.00  0.00    +0.000 C 
BRANCH  30  33
ATOM     33  O   UNL     1       7.371   6.062  16.476  0.00  0.00    +0.000 OA
ATOM     34  C   UNL     1       7.427   7.222  17.320  0.00  0.00    +0.000 C 
ENDBRANCH  30  33
ENDBRANCH  29  30
ENDBRANCH  10  29
TORSDOF 6
ENDMDL
MODEL 4
REMARK VINA RESULT:      -8.1      0.805      1.248
REMARK  Name = 
REMARK  11 active torsions:
REMARK  status: ('A' for Active; 'I' for Inactive)
REMARK    1  A    between atoms: C_1  and  O_2
REMARK    2  A    between atoms: O_2  and  C_3
REMARK    3  A    between atoms: C_5  and  C_6
REMARK    4  A    between atoms: N_10  and  C_11
REMARK    5  A    between atoms: C_14  and  N_15
REMARK    6  A    between atoms: N_24  and  C_25
REMARK    7  A    between atoms: C_25  and  C_26
REMARK    8  A    between atoms: C_26  and  C_27
REMARK    9  A    between atoms: C_26  and  C_28
REMARK   10  A    between atoms: C_26  and  O_29
REMARK   11  A    between atoms: O_29  and  C_30
REMARK                            x       y       z     vdW  Elec       q    Type
REMARK                         _______ _______ _______ _____ _____    ______ ____
ROOT
ATOM      1  N   UNL     1       1.428   7.635  20.760  0.00  0.00    +0.000 N 
ATOM      2  C   UNL     1       1.898   6.449  20.108  0.00  0.00    +0.000 A 
ATOM      3  N   UNL     1       0.993   5.501  20.306  0.00  0.00    +0.000 NA
ATOM      4  C   UNL     1       1.434   4.245  20.357  0.00  0.00    +0.000 A 
ATOM      5  C   UNL     1       2.752   3.876  20.322  0.00  0.00    +0.000 A 
ATOM      6  C   UNL     1       3.110   2.709  21.014  0.00  0.00    +0.000 A 
ATOM      7  C   UNL     1       4.340   2.170  20.793  0.00  0.00    +0.000 A 
ATOM      8  N   UNL     1       5.116   2.639  19.817  0.00  0.00    +0.000 NA
ATOM      9  C   UNL     1       4.786   3.828  19.211  0.00  0.00    +0.000 A 
ATOM     10  N   UNL     1       5.827   4.080  18.300  0.00  0.00    +0.000 N 
ATOM     11  C   UNL     1       3.617   4.703  19.627  0.00  0.00    +0.000 A 
ATOM     12  N   UNL     1       3.134   6.102  19.597  0.00  0.00    +0.000 NA
ATOM     13  H   UNL     1       0.602   7.284  21.253  0.00  0.00    +0.000 HD
ATOM     14  H   UNL     1       6.446   3.321  18.641  0.00  0.00    +0.000 HD
ENDROOT
BRANCH   1  20
ATOM     15  C   UNL     1       1.124   9.967  21.636  0.00  0.00    +0.000 A 
ATOM     16  N   UNL     1       0.974  11.330  21.522  0.00  0.00    +0.000 NA
ATOM     17  C   UNL     1       0.962  11.851  20.288  0.00  0.00    +0.000 A 
ATOM     18  C   UNL     1       1.101  11.030  19.168  0.00  0.00    +0.000 A 
ATOM     19  C   UNL     1       1.242   9.634  19.299  0.00  0.00    +0.000 A 
ATOM     20  C   UNL     1       1.245   9.032  20.548  0.00  0.00    +0.000 A 
BRANCH  17  21
ATOM     21  C   UNL     1       0.829  13.313  20.161  0.00  0.00    +0.000 A 
ATOM     22  N   UNL     1       1.812  14.137  19.812  0.00  0.00    +0.000 NA
ATOM     23  N   UNL     1       1.286  15.409  19.778  0.00  0.00    +0.000 NA
ATOM     24  N   UNL     1       0.014  15.386  20.096  0.00  0.00    +0.000 NA
ATOM     25  N   UNL     1      -0.305  14.090  20.329  0.00  0.00    +0.000 N 
ATOM     26  C   UNL     1      -1.640  13.773  20.662  0.00  0.00    +0.000 C 
ENDBRANCH  17  21
BRANCH  15  28
ATOM     27  C   UNL     1      -0.231   9.498  23.520  0.00  0.00    +0.000 C 
ATOM     28  O   UNL     1       1.086   9.468  22.939  0.00  0.00    +0.000 OA
ENDBRANCH  15  28
ENDBRANCH   1  20
BRANCH  10  29
ATOM     29  C   UNL     1       5.749   3.683  16.848  0.00  0.00    +0.000 C 
BRANCH  29  30
ATOM     30  C   UNL     1       6.271   4.868  15.865  0.00  0.00    +0.000 C 
ATOM     31  C   UNL     1       6.569   4.295  14.459  0.00  0.00    +0.000 C 
ATOM     32  C   UNL     1       5.192   5.955  15.745  0.00  0.00    +0.000 C 
BRANCH  30  33
ATOM     33  O   UNL     1       7.493   5.449  16.397  0.00  0.00    +0.000 OA
ATOM     34  C   UNL     1       7.370   6.705  17.080  0.00  0.00    +0.000 C 
ENDBRANCH  30  33
ENDBRANCH  29  30
ENDBRANCH  10  29
TORSDOF 6
ENDMDL
MODEL 5
REMARK VINA RESULT:      -8.0      1.038      1.434
REMARK  Name = 
REMARK  11 active torsions:
REMARK  status: ('A' for Active; 'I' for Inactive)
REMARK    1  A    between atoms: C_1  and  O_2
REMARK    2  A    between atoms: O_2  and  C_3
REMARK    3  A    between atoms: C_5  and  C_6
REMARK    4  A    between atoms: N_10  and  C_11
REMARK    5  A    between atoms: C_14  and  N_15
REMARK    6  A    between atoms: N_24  and  C_25
REMARK    7  A    between atoms: C_25  and  C_26
REMARK    8  A    between atoms: C_26  and  C_27
REMARK    9  A    between atoms: C_26  and  C_28
REMARK   10  A    between atoms: C_26  and  O_29
REMARK   11  A    between atoms: O_29  and  C_30
REMARK                            x       y       z     vdW  Elec       q    Type
REMARK                         _______ _______ _______ _____ _____    ______ ____
ROOT
ATOM      1  N   UNL     1       1.392   7.679  20.390  0.00  0.00    +0.000 N 
ATOM      2  C   UNL     1       2.024   6.578  19.723  0.00  0.00    +0.000 A 
ATOM      3  N   UNL     1       1.116   5.619  19.593  0.00  0.00    +0.000 NA
ATOM      4  C   UNL     1       1.560   4.364  19.591  0.00  0.00    +0.000 A 
ATOM      5  C   UNL     1       2.859   3.992  19.814  0.00  0.00    +0.000 A 
ATOM      6  C   UNL     1       3.074   2.746  20.423  0.00  0.00    +0.000 A 
ATOM      7  C   UNL     1       4.333   2.229  20.426  0.00  0.00    +0.000 A 
ATOM      8  N   UNL     1       5.301   2.808  19.717  0.00  0.00    +0.000 NA
ATOM      9  C   UNL     1       5.094   4.065  19.200  0.00  0.00    +0.000 A 
ATOM     10  N   UNL     1       6.309   4.419  18.589  0.00  0.00    +0.000 N 
ATOM     11  C   UNL     1       3.843   4.892  19.441  0.00  0.00    +0.000 A 
ATOM     12  N   UNL     1       3.350   6.287  19.471  0.00  0.00    +0.000 NA
ATOM     13  H   UNL     1       0.484   7.276  20.634  0.00  0.00    +0.000 HD
ATOM     14  H   UNL     1       6.850   3.619  18.969  0.00  0.00    +0.000 HD
ENDROOT
BRANCH   1  20
ATOM     15  C   UNL     1       1.145   9.923  21.485  0.00  0.00    +0.000 A 
ATOM     16  N   UNL     1       1.021  11.293  21.501  0.00  0.00    +0.000 NA
ATOM     17  C   UNL     1       1.002  11.928  20.321  0.00  0.00    +0.000 A 
ATOM     18  C   UNL     1       1.110  11.213  19.127  0.00  0.00    +0.000 A 
ATOM     19  C   UNL     1       1.226   9.809  19.125  0.00  0.00    +0.000 A 
ATOM     20  C   UNL     1       1.234   9.093  20.312  0.00  0.00    +0.000 A 
BRANCH  17  21
ATOM     21  C   UNL     1       0.896  13.398  20.334  0.00  0.00    +0.000 A 
ATOM     22  N   UNL     1      -0.248  14.075  20.306  0.00  0.00    +0.000 NA
ATOM     23  N   UNL     1       0.070  15.414  20.362  0.00  0.00    +0.000 NA
ATOM     24  N   UNL     1       1.370  15.573  20.420  0.00  0.00    +0.000 NA
ATOM     25  N   UNL     1       1.914  14.333  20.418  0.00  0.00    +0.000 N 
ATOM     26  C   UNL     1       3.318  14.210  20.509  0.00  0.00    +0.000 C 
ENDBRANCH  17  21
BRANCH  15  28
ATOM     27  C   UNL     1      -0.121   9.515  23.443  0.00  0.00    +0.000 C 
ATOM     28  O   UNL     1       1.116   9.304  22.736  0.00  0.00    +0.000 OA
ENDBRANCH  15  28
ENDBRANCH   1  20
BRANCH  10  29
ATOM     29  C   UNL     1       6.572   4.204  17.120  0.00  0.00    +0.000 C 
BRANCH  29  30
ATOM     30  C   UNL     1       6.675   5.609  16.309  0.00  0.00    +0.000 C 
ATOM     31  C   UNL     1       5.262   6.092  15.908  0.00  0.00    +0.000 C 
ATOM     32  C   UNL     1       7.335   6.674  17.198  0.00  0.00    +0.000 C 
BRANCH  30  33
ATOM     33  O   UNL     1       7.461   5.425  15.100  0.00  0.00    +0.000 OA
ATOM     34  C   UNL     1       6.860   4.661  14.044  0.00  0.00    +0.000 C 
ENDBRANCH  30  33
ENDBRANCH  29  30
ENDBRANCH  10  29
TORSDOF 6
ENDMDL
MODEL 6
REMARK VINA RESULT:      -8.0      1.427      2.356
REMARK  Name = 
REMARK  11 active torsions:
REMARK  status: ('A' for Active; 'I' for Inactive)
REMARK    1  A    between atoms: C_1  and  O_2
REMARK    2  A    between atoms: O_2  and  C_3
REMARK    3  A    between atoms: C_5  and  C_6
REMARK    4  A    between atoms: N_10  and  C_11
REMARK    5  A    between atoms: C_14  and  N_15
REMARK    6  A    between atoms: N_24  and  C_25
REMARK    7  A    between atoms: C_25  and  C_26
REMARK    8  A    between atoms: C_26  and  C_27
REMARK    9  A    between atoms: C_26  and  C_28
REMARK   10  A    between atoms: C_26  and  O_29
REMARK   11  A    between atoms: O_29  and  C_30
REMARK                            x       y       z     vdW  Elec       q    Type
REMARK                         _______ _______ _______ _____ _____    ______ ____
ROOT
ATOM      1  N   UNL     1       1.214   7.189  21.244  0.00  0.00    +0.000 N 
ATOM      2  C   UNL     1       1.748   6.124  20.446  0.00  0.00    +0.000 A 
ATOM      3  N   UNL     1       0.905   5.104  20.530  0.00  0.00    +0.000 NA
ATOM      4  C   UNL     1       1.422   3.882  20.422  0.00  0.00    +0.000 A 
ATOM      5  C   UNL     1       2.760   3.603  20.334  0.00  0.00    +0.000 A 
ATOM      6  C   UNL     1       3.198   2.384  20.873  0.00  0.00    +0.000 A 
ATOM      7  C   UNL     1       4.455   1.954  20.580  0.00  0.00    +0.000 A 
ATOM      8  N   UNL     1       5.189   2.588  19.666  0.00  0.00    +0.000 NA
ATOM      9  C   UNL     1       4.779   3.821  19.215  0.00  0.00    +0.000 A 
ATOM     10  N   UNL     1       5.790   4.248  18.336  0.00  0.00    +0.000 N 
ATOM     11  C   UNL     1       3.564   4.563  19.743  0.00  0.00    +0.000 A 
ATOM     12  N   UNL     1       2.996   5.921  19.890  0.00  0.00    +0.000 NA
ATOM     13  H   UNL     1       0.419   6.728  21.693  0.00  0.00    +0.000 HD
ATOM     14  H   UNL     1       6.459   3.492  18.577  0.00  0.00    +0.000 HD
ENDROOT
BRANCH   1  20
ATOM     15  C   UNL     1       1.100   9.372  20.011  0.00  0.00    +0.000 A 
ATOM     16  N   UNL     1       0.834  10.716  19.882  0.00  0.00    +0.000 NA
ATOM     17  C   UNL     1       0.363  11.361  20.958  0.00  0.00    +0.000 A 
ATOM     18  C   UNL     1       0.151  10.682  22.158  0.00  0.00    +0.000 A 
ATOM     19  C   UNL     1       0.438   9.307  22.280  0.00  0.00    +0.000 A 
ATOM     20  C   UNL     1       0.944   8.588  21.209  0.00  0.00    +0.000 A 
BRANCH  17  21
ATOM     21  C   UNL     1       0.052  12.795  20.817  0.00  0.00    +0.000 A 
ATOM     22  N   UNL     1      -1.168  13.293  20.649  0.00  0.00    +0.000 NA
ATOM     23  N   UNL     1      -1.046  14.664  20.590  0.00  0.00    +0.000 NA
ATOM     24  N   UNL     1       0.211  15.015  20.714  0.00  0.00    +0.000 NA
ATOM     25  N   UNL     1       0.922  13.872  20.869  0.00  0.00    +0.000 N 
ATOM     26  C   UNL     1       2.318  13.964  21.061  0.00  0.00    +0.000 C 
ENDBRANCH  17  21
BRANCH  15  28
ATOM     27  C   UNL     1       1.934   9.681  17.817  0.00  0.00    +0.000 C 
ATOM     28  O   UNL     1       1.630   8.754  18.877  0.00  0.00    +0.000 OA
ENDBRANCH  15  28
ENDBRANCH   1  20
BRANCH  10  29
ATOM     29  C   UNL     1       5.717   4.030  16.846  0.00  0.00    +0.000 C 
BRANCH  29  30
ATOM     30  C   UNL     1       6.278   5.310  16.017  0.00  0.00    +0.000 C 
ATOM     31  C   UNL     1       6.642   4.887  14.575  0.00  0.00    +0.000 C 
ATOM     32  C   UNL     1       5.200   6.404  15.961  0.00  0.00    +0.000 C 
BRANCH  30  33
ATOM     33  O   UNL     1       7.472   5.833  16.662  0.00  0.00    +0.000 OA
ATOM     34  C   UNL     1       7.348   7.097  17.330  0.00  0.00    +0.000 C 
ENDBRANCH  30  33
ENDBRANCH  29  30
ENDBRANCH  10  29
TORSDOF 6
ENDMDL
MODEL 7
REMARK VINA RESULT:      -7.9      1.375      2.108
REMARK  Name = 
REMARK  11 active torsions:
REMARK  status: ('A' for Active; 'I' for Inactive)
REMARK    1  A    between atoms: C_1  and  O_2
REMARK    2  A    between atoms: O_2  and  C_3
REMARK    3  A    between atoms: C_5  and  C_6
REMARK    4  A    between atoms: N_10  and  C_11
REMARK    5  A    between atoms: C_14  and  N_15
REMARK    6  A    between atoms: N_24  and  C_25
REMARK    7  A    between atoms: C_25  and  C_26
REMARK    8  A    between atoms: C_26  and  C_27
REMARK    9  A    between atoms: C_26  and  C_28
REMARK   10  A    between atoms: C_26  and  O_29
REMARK   11  A    between atoms: O_29  and  C_30
REMARK                            x       y       z     vdW  Elec       q    Type
REMARK                         _______ _______ _______ _____ _____    ______ ____
ROOT
ATOM      1  N   UNL     1       1.085   7.218  21.288  0.00  0.00    +0.000 N 
ATOM      2  C   UNL     1       1.693   6.217  20.461  0.00  0.00    +0.000 A 
ATOM      3  N   UNL     1       0.846   5.200  20.380  0.00  0.00    +0.000 NA
ATOM      4  C   UNL     1       1.371   3.987  20.223  0.00  0.00    +0.000 A 
ATOM      5  C   UNL     1       2.710   3.705  20.242  0.00  0.00    +0.000 A 
ATOM      6  C   UNL     1       3.094   2.443  20.720  0.00  0.00    +0.000 A 
ATOM      7  C   UNL     1       4.374   2.028  20.515  0.00  0.00    +0.000 A 
ATOM      8  N   UNL     1       5.192   2.727  19.730  0.00  0.00    +0.000 NA
ATOM      9  C   UNL     1       4.828   3.996  19.343  0.00  0.00    +0.000 A 
ATOM     10  N   UNL     1       5.920   4.485  18.604  0.00  0.00    +0.000 N 
ATOM     11  C   UNL     1       3.568   4.703  19.811  0.00  0.00    +0.000 A 
ATOM     12  N   UNL     1       2.989   6.050  20.013  0.00  0.00    +0.000 NA
ATOM     13  H   UNL     1       0.250   6.729  21.620  0.00  0.00    +0.000 HD
ATOM     14  H   UNL     1       6.562   3.707  18.846  0.00  0.00    +0.000 HD
ENDROOT
BRANCH   1  20
ATOM     15  C   UNL     1       1.103   9.497  20.236  0.00  0.00    +0.000 A 
ATOM     16  N   UNL     1       0.853  10.849  20.192  0.00  0.00    +0.000 NA
ATOM     17  C   UNL     1       0.269  11.406  21.261  0.00  0.00    +0.000 A 
ATOM     18  C   UNL     1      -0.071  10.632  22.371  0.00  0.00    +0.000 A 
ATOM     19  C   UNL     1       0.201   9.249  22.407  0.00  0.00    +0.000 A 
ATOM     20  C   UNL     1       0.819   8.617  21.340  0.00  0.00    +0.000 A 
BRANCH  17  21
ATOM     21  C   UNL     1      -0.026  12.850  21.208  0.00  0.00    +0.000 A 
ATOM     22  N   UNL     1      -1.241  13.380  21.301  0.00  0.00    +0.000 NA
ATOM     23  N   UNL     1      -1.096  14.748  21.238  0.00  0.00    +0.000 NA
ATOM     24  N   UNL     1       0.169  15.067  21.107  0.00  0.00    +0.000 NA
ATOM     25  N   UNL     1       0.865  13.905  21.098  0.00  0.00    +0.000 N 
ATOM     26  C   UNL     1       2.272  13.961  21.001  0.00  0.00    +0.000 C 
ENDBRANCH  17  21
BRANCH  15  28
ATOM     27  C   UNL     1       1.122   9.333  17.875  0.00  0.00    +0.000 C 
ATOM     28  O   UNL     1       1.752   8.971  19.118  0.00  0.00    +0.000 OA
ENDBRANCH  15  28
ENDBRANCH   1  20
BRANCH  10  29
ATOM     29  C   UNL     1       5.991   4.389  17.101  0.00  0.00    +0.000 C 
BRANCH  29  30
ATOM     30  C   UNL     1       6.261   5.836  16.412  0.00  0.00    +0.000 C 
ATOM     31  C   UNL     1       4.935   6.625  16.302  0.00  0.00    +0.000 C 
ATOM     32  C   UNL     1       7.253   6.640  17.266  0.00  0.00    +0.000 C 
BRANCH  30  33
ATOM     33  O   UNL     1       6.803   5.653  15.075  0.00  0.00    +0.000 OA
ATOM     34  C   UNL     1       6.560   4.387  14.444  0.00  0.00    +0.000 C 
ENDBRANCH  30  33
ENDBRANCH  29  30
ENDBRANCH  10  29
TORSDOF 6
ENDMDL
MODEL 8
REMARK VINA RESULT:      -7.8      1.146      1.957
REMARK  Name = 
REMARK  11 active torsions:
REMARK  status: ('A' for Active; 'I' for Inactive)
REMARK    1  A    between atoms: C_1  and  O_2
REMARK    2  A    between atoms: O_2  and  C_3
REMARK    3  A    between atoms: C_5  and  C_6
REMARK    4  A    between atoms: N_10  and  C_11
REMARK    5  A    between atoms: C_14  and  N_15
REMARK    6  A    between atoms: N_24  and  C_25
REMARK    7  A    between atoms: C_25  and  C_26
REMARK    8  A    between atoms: C_26  and  C_27
REMARK    9  A    between atoms: C_26  and  C_28
REMARK   10  A    between atoms: C_26  and  O_29
REMARK   11  A    between atoms: O_29  and  C_30
REMARK                            x       y       z     vdW  Elec       q    Type
REMARK                         _______ _______ _______ _____ _____    ______ ____
ROOT
ATOM      1  N   UNL     1       1.376   7.521  20.954  0.00  0.00    +0.000 N 
ATOM      2  C   UNL     1       1.783   6.328  20.272  0.00  0.00    +0.000 A 
ATOM      3  N   UNL     1       0.929   5.369  20.605  0.00  0.00    +0.000 NA
ATOM      4  C   UNL     1       1.399   4.123  20.625  0.00  0.00    +0.000 A 
ATOM      5  C   UNL     1       2.708   3.776  20.430  0.00  0.00    +0.000 A 
ATOM      6  C   UNL     1       3.176   2.632  21.095  0.00  0.00    +0.000 A 
ATOM      7  C   UNL     1       4.378   2.109  20.730  0.00  0.00    +0.000 A 
ATOM      8  N   UNL     1       5.013   2.568  19.653  0.00  0.00    +0.000 NA
ATOM      9  C   UNL     1       4.585   3.737  19.068  0.00  0.00    +0.000 A 
ATOM     10  N   UNL     1       5.496   3.985  18.026  0.00  0.00    +0.000 N 
ATOM     11  C   UNL     1       3.461   4.601  19.612  0.00  0.00    +0.000 A 
ATOM     12  N   UNL     1       2.950   5.991  19.615  0.00  0.00    +0.000 NA
ATOM     13  H   UNL     1       0.627   7.167  21.555  0.00  0.00    +0.000 HD
ATOM     14  H   UNL     1       6.169   3.245  18.302  0.00  0.00    +0.000 HD
ENDROOT
BRANCH   1  20
ATOM     15  C   UNL     1       1.025   9.474  19.417  0.00  0.00    +0.000 A 
ATOM     16  N   UNL     1       0.769  10.793  19.120  0.00  0.00    +0.000 NA
ATOM     17  C   UNL     1       0.584  11.636  20.145  0.00  0.00    +0.000 A 
ATOM     18  C   UNL     1       0.648  11.178  21.462  0.00  0.00    +0.000 A 
ATOM     19  C   UNL     1       0.921   9.827  21.753  0.00  0.00    +0.000 A 
ATOM     20  C   UNL     1       1.139   8.909  20.737  0.00  0.00    +0.000 A 
BRANCH  17  21
ATOM     21  C   UNL     1       0.284  13.044  19.830  0.00  0.00    +0.000 A 
ATOM     22  N   UNL     1      -0.867  13.652  20.096  0.00  0.00    +0.000 NA
ATOM     23  N   UNL     1      -0.745  14.959  19.681  0.00  0.00    +0.000 NA
ATOM     24  N   UNL     1       0.444  15.165  19.168  0.00  0.00    +0.000 NA
ATOM     25  N   UNL     1       1.116  13.992  19.258  0.00  0.00    +0.000 N 
ATOM     26  C   UNL     1       2.452  13.942  18.803  0.00  0.00    +0.000 C 
ENDBRANCH  17  21
BRANCH  15  28
ATOM     27  C   UNL     1       2.509   8.905  17.663  0.00  0.00    +0.000 C 
ATOM     28  O   UNL     1       1.253   8.645  18.318  0.00  0.00    +0.000 OA
ENDBRANCH  15  28
ENDBRANCH   1  20
BRANCH  10  29
ATOM     29  C   UNL     1       5.241   3.553  16.605  0.00  0.00    +0.000 C 
BRANCH  29  30
ATOM     30  C   UNL     1       5.738   4.668  15.532  0.00  0.00    +0.000 C 
ATOM     31  C   UNL     1       5.155   6.052  15.900  0.00  0.00    +0.000 C 
ATOM     32  C   UNL     1       7.272   4.750  15.544  0.00  0.00    +0.000 C 
BRANCH  30  33
ATOM     33  O   UNL     1       5.278   4.311  14.199  0.00  0.00    +0.000 OA
ATOM     34  C   UNL     1       6.271   3.852  13.271  0.00  0.00    +0.000 C 
ENDBRANCH  30  33
ENDBRANCH  29  30
ENDBRANCH  10  29
TORSDOF 6
ENDMDL
MODEL 9
REMARK VINA RESULT:      -7.6      1.188      2.176
REMARK  Name = 
REMARK  11 active torsions:
REMARK  status: ('A' for Active; 'I' for Inactive)
REMARK    1  A    between atoms: C_1  and  O_2
REMARK    2  A    between atoms: O_2  and  C_3
REMARK    3  A    between atoms: C_5  and  C_6
REMARK    4  A    between atoms: N_10  and  C_11
REMARK    5  A    between atoms: C_14  and  N_15
REMARK    6  A    between atoms: N_24  and  C_25
REMARK    7  A    between atoms: C_25  and  C_26
REMARK    8  A    between atoms: C_26  and  C_27
REMARK    9  A    between atoms: C_26  and  C_28
REMARK   10  A    between atoms: C_26  and  O_29
REMARK   11  A    between atoms: O_29  and  C_30
REMARK                            x       y       z     vdW  Elec       q    Type
REMARK                         _______ _______ _______ _____ _____    ______ ____
ROOT
ATOM      1  N   UNL     1       1.349   7.433  21.066  0.00  0.00    +0.000 N 
ATOM      2  C   UNL     1       1.764   6.267  20.342  0.00  0.00    +0.000 A 
ATOM      3  N   UNL     1       0.920   5.290  20.645  0.00  0.00    +0.000 NA
ATOM      4  C   UNL     1       1.400   4.049  20.622  0.00  0.00    +0.000 A 
ATOM      5  C   UNL     1       2.712   3.720  20.410  0.00  0.00    +0.000 A 
ATOM      6  C   UNL     1       3.192   2.558  21.034  0.00  0.00    +0.000 A 
ATOM      7  C   UNL     1       4.397   2.058  20.647  0.00  0.00    +0.000 A 
ATOM      8  N   UNL     1       5.025   2.559  19.584  0.00  0.00    +0.000 NA
ATOM      9  C   UNL     1       4.584   3.744  19.041  0.00  0.00    +0.000 A 
ATOM     10  N   UNL     1       5.488   4.035  18.005  0.00  0.00    +0.000 N 
ATOM     11  C   UNL     1       3.455   4.579  19.618  0.00  0.00    +0.000 A 
ATOM     12  N   UNL     1       2.932   5.963  19.670  0.00  0.00    +0.000 NA
ATOM     13  H   UNL     1       0.606   7.052  21.658  0.00  0.00    +0.000 HD
ATOM     14  H   UNL     1       6.169   3.292  18.252  0.00  0.00    +0.000 HD
ENDROOT
BRANCH   1  20
ATOM     15  C   UNL     1       1.032   9.445  19.599  0.00  0.00    +0.000 A 
ATOM     16  N   UNL     1       0.768  10.771  19.345  0.00  0.00    +0.000 NA
ATOM     17  C   UNL     1       0.527  11.567  20.396  0.00  0.00    +0.000 A 
ATOM     18  C   UNL     1       0.543  11.055  21.694  0.00  0.00    +0.000 A 
ATOM     19  C   UNL     1       0.825   9.696  21.940  0.00  0.00    +0.000 A 
ATOM     20  C   UNL     1       1.100   8.826  20.897  0.00  0.00    +0.000 A 
BRANCH  17  21
ATOM     21  C   UNL     1       0.218  12.983  20.128  0.00  0.00    +0.000 A 
ATOM     22  N   UNL     1      -0.994  13.522  20.204  0.00  0.00    +0.000 NA
ATOM     23  N   UNL     1      -0.865  14.862  19.913  0.00  0.00    +0.000 NA
ATOM     24  N   UNL     1       0.388  15.154  19.660  0.00  0.00    +0.000 NA
ATOM     25  N   UNL     1       1.092  14.005  19.798  0.00  0.00    +0.000 N 
ATOM     26  C   UNL     1       2.491  14.044  19.613  0.00  0.00    +0.000 C 
ENDBRANCH  17  21
BRANCH  15  28
ATOM     27  C   UNL     1       2.461   9.140  17.736  0.00  0.00    +0.000 C 
ATOM     28  O   UNL     1       1.320   8.666  18.477  0.00  0.00    +0.000 OA
ENDBRANCH  15  28
ENDBRANCH   1  20
BRANCH  10  29
ATOM     29  C   UNL     1       5.231   3.649  16.570  0.00  0.00    +0.000 C 
BRANCH  29  30
ATOM     30  C   UNL     1       5.988   4.641  15.529  0.00  0.00    +0.000 C 
ATOM     31  C   UNL     1       7.318   5.138  16.143  0.00  0.00    +0.000 C 
ATOM     32  C   UNL     1       6.289   3.890  14.222  0.00  0.00    +0.000 C 
BRANCH  30  33
ATOM     33  O   UNL     1       5.149   5.795  15.248  0.00  0.00    +0.000 OA
ATOM     34  C   UNL     1       4.954   6.732  16.317  0.00  0.00    +0.000 C 
ENDBRANCH  30  33
ENDBRANCH  29  30
ENDBRANCH  10  29
TORSDOF 6
ENDMDL
