MODEL 1
REMARK VINA RESULT:      -9.4      0.000      0.000
REMARK  Name = 
REMARK  6 active torsions:
REMARK  status: ('A' for Active; 'I' for Inactive)
REMARK    1  A    between atoms: C_1  and  C_2
REMARK    2  A    between atoms: C_2  and  C_3
REMARK    3  A    between atoms: N_17  and  C_18
REMARK    4  A    between atoms: C_18  and  C_19
REMARK    5  A    between atoms: N_21  and  C_22
REMARK    6  A    between atoms: C_26  and  C_27
REMARK                            x       y       z     vdW  Elec       q    Type
REMARK                         _______ _______ _______ _____ _____    ______ ____
ROOT
ATOM      1  C   UNL     1       5.276   4.943  15.126  0.00  0.00    +0.000 C 
ATOM      2  C   UNL     1       5.579   4.767  16.614  0.00  0.00    +0.000 C 
ATOM      3  N   UNL     1       6.805   4.013  16.794  0.00  0.00    +0.000 N 
ATOM      4  C   UNL     1       7.703   4.660  17.606  0.00  0.00    +0.000 C 
ATOM      5  O   UNL     1       8.727   4.161  18.043  0.00  0.00    +0.000 OA
ATOM      6  N   UNL     1       7.267   5.923  17.832  0.00  0.00    +0.000 N 
ATOM      7  C   UNL     1       6.029   6.102  17.275  0.00  0.00    +0.000 C 
ATOM      8  O   UNL     1       5.354   7.121  17.349  0.00  0.00    +0.000 OA
ATOM      9  H   UNL     1       6.909   3.028  16.589  0.00  0.00    +0.000 HD
ENDROOT
BRANCH   2  10
ATOM     10  C   UNL     1       4.394   4.164  17.373  0.00  0.00    +0.000 A 
ATOM     11  C   UNL     1       3.360   3.521  16.666  0.00  0.00    +0.000 A 
ATOM     12  C   UNL     1       2.246   2.998  17.327  0.00  0.00    +0.000 A 
ATOM     13  C   UNL     1       2.134   3.100  18.712  0.00  0.00    +0.000 A 
ATOM     14  C   UNL     1       3.177   3.679  19.441  0.00  0.00    +0.000 A 
ATOM     15  C   UNL     1       4.278   4.230  18.773  0.00  0.00    +0.000 A 
ATOM     16  O   UNL     1       3.231   3.774  20.810  0.00  0.00    +0.000 OA
ATOM     17  C   UNL     1       2.714   2.615  21.464  0.00  0.00    +0.000 C 
ATOM     18  C   UNL     1       1.211   2.720  21.653  0.00  0.00    +0.000 C 
ATOM     19  C   UNL     1       0.522   3.262  20.411  0.00  0.00    +0.000 C 
ATOM     20  O   UNL     1       0.975   2.587  19.236  0.00  0.00    +0.000 OA
ENDBRANCH   2  10
BRANCH   6  21
ATOM     21  C   UNL     1       7.919   6.850  18.735  0.00  0.00    +0.000 C 
BRANCH  21  22
ATOM     22  C   UNL     1       8.249   8.196  18.089  0.00  0.00    +0.000 C 
ATOM     23  O   UNL     1       7.965   8.438  16.918  0.00  0.00    +0.000 OA
ATOM     24  N   UNL     1       8.931   9.074  18.924  0.00  0.00    +0.000 N 
ATOM     25  H   UNL     1       9.525   8.641  19.629  0.00  0.00    +0.000 HD
BRANCH  24  26
ATOM     26  C   UNL     1       9.254  10.389  18.524  0.00  0.00    +0.000 A 
ATOM     27  C   UNL     1      10.599  10.760  18.474  0.00  0.00    +0.000 A 
ATOM     28  C   UNL     1      10.960  12.048  18.070  0.00  0.00    +0.000 A 
ATOM     29  C   UNL     1       9.973  12.994  17.779  0.00  0.00    +0.000 A 
ATOM     30  C   UNL     1       8.620  12.643  17.868  0.00  0.00    +0.000 A 
ATOM     31  C   UNL     1       8.263  11.332  18.216  0.00  0.00    +0.000 A 
BRANCH  30  32
ATOM     32  C   UNL     1       7.610  13.639  17.632  0.00  0.00    +0.000 C 
ATOM     33  N   UNL     1       6.783  14.419  17.436  0.00  0.00    +0.000 NA
ENDBRANCH  30  32
ENDBRANCH  24  26
ENDBRANCH  21  22
ENDBRANCH   6  21
TORSDOF 5
ENDMDL
MODEL 2
REMARK VINA RESULT:      -8.8      1.323      1.412
REMARK  Name = 
REMARK  6 active torsions:
REMARK  status: ('A' for Active; 'I' for Inactive)
REMARK    1  A    between atoms: C_1  and  C_2
REMARK    2  A    between atoms: C_2  and  C_3
REMARK    3  A    between atoms: N_17  and  C_18
REMARK    4  A    between atoms: C_18  and  C_19
REMARK    5  A    between atoms: N_21  and  C_22
REMARK    6  A    between atoms: C_26  and  C_27
REMARK                            x       y       z     vdW  Elec       q    Type
REMARK                         _______ _______ _______ _____ _____    ______ ____
ROOT
ATOM      1  C   UNL     1       5.184   5.400  15.150  0.00  0.00    +0.000 C 
ATOM      2  C   UNL     1       5.548   5.003  16.581  0.00  0.00    +0.000 C 
ATOM      3  N   UNL     1       6.745   4.184  16.588  0.00  0.00    +0.000 N 
ATOM      4  C   UNL     1       7.709   4.673  17.433  0.00  0.00    +0.000 C 
ATOM      5  O   UNL     1       8.729   4.078  17.742  0.00  0.00    +0.000 OA
ATOM      6  N   UNL     1       7.344   5.908  17.857  0.00  0.00    +0.000 N 
ATOM      7  C   UNL     1       6.090   6.213  17.397  0.00  0.00    +0.000 C 
ATOM      8  O   UNL     1       5.467   7.236  17.648  0.00  0.00    +0.000 OA
ATOM      9  H   UNL     1       6.794   3.235  16.243  0.00  0.00    +0.000 HD
ENDROOT
BRANCH   2  10
ATOM     10  C   UNL     1       4.374   4.346  17.310  0.00  0.00    +0.000 A 
ATOM     11  C   UNL     1       3.372   3.684  16.575  0.00  0.00    +0.000 A 
ATOM     12  C   UNL     1       2.267   3.111  17.209  0.00  0.00    +0.000 A 
ATOM     13  C   UNL     1       2.132   3.180  18.594  0.00  0.00    +0.000 A 
ATOM     14  C   UNL     1       3.146   3.778  19.350  0.00  0.00    +0.000 A 
ATOM     15  C   UNL     1       4.236   4.379  18.709  0.00  0.00    +0.000 A 
ATOM     16  O   UNL     1       3.178   3.846  20.721  0.00  0.00    +0.000 OA
ATOM     17  C   UNL     1       2.690   2.657  21.344  0.00  0.00    +0.000 C 
ATOM     18  C   UNL     1       1.183   2.708  21.513  0.00  0.00    +0.000 C 
ATOM     19  C   UNL     1       0.493   3.253  20.273  0.00  0.00    +0.000 C 
ATOM     20  O   UNL     1       0.984   2.619  19.092  0.00  0.00    +0.000 OA
ENDBRANCH   2  10
BRANCH   6  21
ATOM     21  C   UNL     1       8.080   6.671  18.844  0.00  0.00    +0.000 C 
BRANCH  21  22
ATOM     22  C   UNL     1       8.356   8.113  18.415  0.00  0.00    +0.000 C 
ATOM     23  O   UNL     1       8.061   8.521  17.294  0.00  0.00    +0.000 OA
ATOM     24  N   UNL     1       9.005   8.877  19.378  0.00  0.00    +0.000 N 
ATOM     25  H   UNL     1       9.617   8.364  20.010  0.00  0.00    +0.000 HD
BRANCH  24  26
ATOM     26  C   UNL     1       9.276  10.250  19.186  0.00  0.00    +0.000 A 
ATOM     27  C   UNL     1       9.614  10.690  17.905  0.00  0.00    +0.000 A 
ATOM     28  C   UNL     1       9.875  12.043  17.671  0.00  0.00    +0.000 A 
ATOM     29  C   UNL     1       9.866  12.952  18.732  0.00  0.00    +0.000 A 
ATOM     30  C   UNL     1       9.570  12.512  20.029  0.00  0.00    +0.000 A 
ATOM     31  C   UNL     1       9.250  11.163  20.249  0.00  0.00    +0.000 A 
BRANCH  30  32
ATOM     32  C   UNL     1       9.628  13.439  21.126  0.00  0.00    +0.000 C 
ATOM     33  N   UNL     1       9.692  14.197  21.993  0.00  0.00    +0.000 NA
ENDBRANCH  30  32
ENDBRANCH  24  26
ENDBRANCH  21  22
ENDBRANCH   6  21
TORSDOF 5
ENDMDL
MODEL 3
REMARK VINA RESULT:      -8.7      3.497      3.967
REMARK  Name = 
REMARK  6 active torsions:
REMARK  status: ('A' for Active; 'I' for Inactive)
REMARK    1  A    between atoms: C_1  and  C_2
REMARK    2  A    between atoms: C_2  and  C_3
REMARK    3  A    between atoms: N_17  and  C_18
REMARK    4  A    between atoms: C_18  and  C_19
REMARK    5  A    between atoms: N_21  and  C_22
REMARK    6  A    between atoms: C_26  and  C_27
REMARK                            x       y       z     vdW  Elec       q    Type
REMARK                         _______ _______ _______ _____ _____    ______ ____
ROOT
ATOM      1  C   UNL     1       3.194   4.564  17.723  0.00  0.00    +0.000 C 
ATOM      2  C   UNL     1       3.990   5.751  18.268  0.00  0.00    +0.000 C 
ATOM      3  N   UNL     1       4.839   5.328  19.365  0.00  0.00    +0.000 N 
ATOM      4  C   UNL     1       6.151   5.685  19.180  0.00  0.00    +0.000 C 
ATOM      5  O   UNL     1       7.022   5.594  20.030  0.00  0.00    +0.000 OA
ATOM      6  N   UNL     1       6.312   6.143  17.915  0.00  0.00    +0.000 N 
ATOM      7  C   UNL     1       5.101   6.206  17.277  0.00  0.00    +0.000 C 
ATOM      8  O   UNL     1       4.913   6.623  16.142  0.00  0.00    +0.000 OA
ATOM      9  H   UNL     1       4.502   5.050  20.277  0.00  0.00    +0.000 HD
ENDROOT
BRANCH   2  10
ATOM     10  C   UNL     1       3.084   6.928  18.637  0.00  0.00    +0.000 A 
ATOM     11  C   UNL     1       2.806   7.927  17.684  0.00  0.00    +0.000 A 
ATOM     12  C   UNL     1       2.016   9.034  18.004  0.00  0.00    +0.000 A 
ATOM     13  C   UNL     1       1.480   9.174  19.282  0.00  0.00    +0.000 A 
ATOM     14  C   UNL     1       1.691   8.164  20.226  0.00  0.00    +0.000 A 
ATOM     15  C   UNL     1       2.509   7.071  19.913  0.00  0.00    +0.000 A 
ATOM     16  O   UNL     1       1.159   8.137  21.492  0.00  0.00    +0.000 OA
ATOM     17  C   UNL     1      -0.182   8.626  21.538  0.00  0.00    +0.000 C 
ATOM     18  C   UNL     1      -0.206  10.135  21.707  0.00  0.00    +0.000 C 
ATOM     19  C   UNL     1       0.821  10.820  20.821  0.00  0.00    +0.000 C 
ATOM     20  O   UNL     1       0.760  10.323  19.484  0.00  0.00    +0.000 OA
ENDBRANCH   2  10
BRANCH   6  21
ATOM     21  C   UNL     1       7.550   6.704  17.413  0.00  0.00    +0.000 C 
BRANCH  21  22
ATOM     22  C   UNL     1       7.728   8.184  17.753  0.00  0.00    +0.000 C 
ATOM     23  O   UNL     1       6.967   9.044  17.315  0.00  0.00    +0.000 OA
ATOM     24  N   UNL     1       8.839   8.456  18.544  0.00  0.00    +0.000 N 
ATOM     25  H   UNL     1       9.625   7.817  18.434  0.00  0.00    +0.000 HD
BRANCH  24  26
ATOM     26  C   UNL     1       9.121   9.755  19.019  0.00  0.00    +0.000 A 
ATOM     27  C   UNL     1       8.884  10.038  20.365  0.00  0.00    +0.000 A 
ATOM     28  C   UNL     1       9.163  11.309  20.878  0.00  0.00    +0.000 A 
ATOM     29  C   UNL     1       9.615  12.323  20.028  0.00  0.00    +0.000 A 
ATOM     30  C   UNL     1       9.814  12.059  18.667  0.00  0.00    +0.000 A 
ATOM     31  C   UNL     1       9.590  10.767  18.169  0.00  0.00    +0.000 A 
BRANCH  30  32
ATOM     32  C   UNL     1      10.215  13.123  17.787  0.00  0.00    +0.000 C 
ATOM     33  N   UNL     1      10.517  13.992  17.090  0.00  0.00    +0.000 NA
ENDBRANCH  30  32
ENDBRANCH  24  26
ENDBRANCH  21  22
ENDBRANCH   6  21
TORSDOF 5
ENDMDL
MODEL 4
REMARK VINA RESULT:      -8.6      3.567      4.394
REMARK  Name = 
REMARK  6 active torsions:
REMARK  status: ('A' for Active; 'I' for Inactive)
REMARK    1  A    between atoms: C_1  and  C_2
REMARK    2  A    between atoms: C_2  and  C_3
REMARK    3  A    between atoms: N_17  and  C_18
REMARK    4  A    between atoms: C_18  and  C_19
REMARK    5  A    between atoms: N_21  and  C_22
REMARK    6  A    between atoms: C_26  and  C_27
REMARK                            x       y       z     vdW  Elec       q    Type
REMARK                         _______ _______ _______ _____ _____    ______ ____
ROOT
ATOM      1  C   UNL     1       3.402   4.505  17.452  0.00  0.00    +0.000 C 
ATOM      2  C   UNL     1       4.167   5.625  18.159  0.00  0.00    +0.000 C 
ATOM      3  N   UNL     1       4.986   5.080  19.226  0.00  0.00    +0.000 N 
ATOM      4  C   UNL     1       6.299   5.467  19.127  0.00  0.00    +0.000 C 
ATOM      5  O   UNL     1       7.144   5.282  19.988  0.00  0.00    +0.000 OA
ATOM      6  N   UNL     1       6.495   6.073  17.931  0.00  0.00    +0.000 N 
ATOM      7  C   UNL     1       5.304   6.203  17.266  0.00  0.00    +0.000 C 
ATOM      8  O   UNL     1       5.147   6.750  16.183  0.00  0.00    +0.000 OA
ATOM      9  H   UNL     1       4.624   4.694  20.087  0.00  0.00    +0.000 HD
ENDROOT
BRANCH   2  10
ATOM     10  C   UNL     1       3.236   6.743  18.635  0.00  0.00    +0.000 A 
ATOM     11  C   UNL     1       2.596   6.640  19.884  0.00  0.00    +0.000 A 
ATOM     12  C   UNL     1       1.709   7.625  20.328  0.00  0.00    +0.000 A 
ATOM     13  C   UNL     1       1.439   8.740  19.537  0.00  0.00    +0.000 A 
ATOM     14  C   UNL     1       2.110   8.893  18.320  0.00  0.00    +0.000 A 
ATOM     15  C   UNL     1       2.975   7.890  17.865  0.00  0.00    +0.000 A 
ATOM     16  O   UNL     1       1.998   9.976  17.483  0.00  0.00    +0.000 OA
ATOM     17  C   UNL     1       1.902  11.213  18.190  0.00  0.00    +0.000 C 
ATOM     18  C   UNL     1       0.463  11.521  18.559  0.00  0.00    +0.000 C 
ATOM     19  C   UNL     1      -0.262  10.292  19.081  0.00  0.00    +0.000 C 
ATOM     20  O   UNL     1       0.520   9.611  20.063  0.00  0.00    +0.000 OA
ENDBRANCH   2  10
BRANCH   6  21
ATOM     21  C   UNL     1       7.741   6.699  17.540  0.00  0.00    +0.000 C 
BRANCH  21  22
ATOM     22  C   UNL     1       7.779   8.202  17.818  0.00  0.00    +0.000 C 
ATOM     23  O   UNL     1       6.932   8.966  17.361  0.00  0.00    +0.000 OA
ATOM     24  N   UNL     1       8.871   8.612  18.576  0.00  0.00    +0.000 N 
ATOM     25  H   UNL     1       9.713   8.048  18.477  0.00  0.00    +0.000 HD
BRANCH  24  26
ATOM     26  C   UNL     1       9.032   9.952  18.993  0.00  0.00    +0.000 A 
ATOM     27  C   UNL     1       9.417  10.902  18.047  0.00  0.00    +0.000 A 
ATOM     28  C   UNL     1       9.574  12.241  18.416  0.00  0.00    +0.000 A 
ATOM     29  C   UNL     1       9.413  12.623  19.751  0.00  0.00    +0.000 A 
ATOM     30  C   UNL     1       9.069  11.667  20.716  0.00  0.00    +0.000 A 
ATOM     31  C   UNL     1       8.854  10.336  20.329  0.00  0.00    +0.000 A 
BRANCH  30  32
ATOM     32  C   UNL     1       8.970  12.054  22.097  0.00  0.00    +0.000 C 
ATOM     33  N   UNL     1       8.870  12.378  23.200  0.00  0.00    +0.000 NA
ENDBRANCH  30  32
ENDBRANCH  24  26
ENDBRANCH  21  22
ENDBRANCH   6  21
TORSDOF 5
ENDMDL
MODEL 5
REMARK VINA RESULT:      -8.5      4.416      7.031
REMARK  Name = 
REMARK  6 active torsions:
REMARK  status: ('A' for Active; 'I' for Inactive)
REMARK    1  A    between atoms: C_1  and  C_2
REMARK    2  A    between atoms: C_2  and  C_3
REMARK    3  A    between atoms: N_17  and  C_18
REMARK    4  A    between atoms: C_18  and  C_19
REMARK    5  A    between atoms: N_21  and  C_22
REMARK    6  A    between atoms: C_26  and  C_27
REMARK                            x       y       z     vdW  Elec       q    Type
REMARK                         _______ _______ _______ _____ _____    ______ ____
ROOT
ATOM      1  C   UNL     1       1.743   5.034  17.284  0.00  0.00    +0.000 C 
ATOM      2  C   UNL     1       2.728   5.554  18.331  0.00  0.00    +0.000 C 
ATOM      3  N   UNL     1       3.165   4.473  19.194  0.00  0.00    +0.000 N 
ATOM      4  C   UNL     1       4.532   4.376  19.260  0.00  0.00    +0.000 C 
ATOM      5  O   UNL     1       5.141   3.665  20.043  0.00  0.00    +0.000 OA
ATOM      6  N   UNL     1       5.081   5.187  18.323  0.00  0.00    +0.000 N 
ATOM      7  C   UNL     1       4.104   5.917  17.700  0.00  0.00    +0.000 C 
ATOM      8  O   UNL     1       4.289   6.770  16.841  0.00  0.00    +0.000 OA
ATOM      9  H   UNL     1       2.580   4.013  19.878  0.00  0.00    +0.000 HD
ENDROOT
BRANCH   2  10
ATOM     10  C   UNL     1       2.163   6.745  19.109  0.00  0.00    +0.000 A 
ATOM     11  C   UNL     1       1.954   6.642  20.497  0.00  0.00    +0.000 A 
ATOM     12  C   UNL     1       1.401   7.697  21.227  0.00  0.00    +0.000 A 
ATOM     13  C   UNL     1       1.043   8.885  20.592  0.00  0.00    +0.000 A 
ATOM     14  C   UNL     1       1.299   9.032  19.225  0.00  0.00    +0.000 A 
ATOM     15  C   UNL     1       1.824   7.962  18.491  0.00  0.00    +0.000 A 
ATOM     16  O   UNL     1       1.069  10.171  18.493  0.00  0.00    +0.000 OA
ATOM     17  C   UNL     1       1.377  11.364  19.217  0.00  0.00    +0.000 C 
ATOM     18  C   UNL     1       0.190  11.821  20.046  0.00  0.00    +0.000 C 
ATOM     19  C   UNL     1      -0.486  10.658  20.753  0.00  0.00    +0.000 C 
ATOM     20  O   UNL     1       0.472   9.827  21.408  0.00  0.00    +0.000 OA
ENDBRANCH   2  10
BRANCH   6  21
ATOM     21  C   UNL     1       6.506   5.411  18.187  0.00  0.00    +0.000 C 
BRANCH  21  22
ATOM     22  C   UNL     1       7.075   4.910  16.858  0.00  0.00    +0.000 C 
ATOM     23  O   UNL     1       8.062   4.179  16.812  0.00  0.00    +0.000 OA
ATOM     24  N   UNL     1       6.411   5.396  15.737  0.00  0.00    +0.000 N 
ATOM     25  H   UNL     1       5.981   6.314  15.842  0.00  0.00    +0.000 HD
BRANCH  24  26
ATOM     26  C   UNL     1       6.749   4.984  14.430  0.00  0.00    +0.000 A 
ATOM     27  C   UNL     1       7.709   5.715  13.728  0.00  0.00    +0.000 A 
ATOM     28  C   UNL     1       8.082   5.332  12.437  0.00  0.00    +0.000 A 
ATOM     29  C   UNL     1       7.445   4.254  11.815  0.00  0.00    +0.000 A 
ATOM     30  C   UNL     1       6.449   3.541  12.495  0.00  0.00    +0.000 A 
ATOM     31  C   UNL     1       6.121   3.893  13.813  0.00  0.00    +0.000 A 
BRANCH  30  32
ATOM     32  C   UNL     1       5.752   2.477  11.826  0.00  0.00    +0.000 C 
ATOM     33  N   UNL     1       5.205   1.629  11.266  0.00  0.00    +0.000 NA
ENDBRANCH  30  32
ENDBRANCH  24  26
ENDBRANCH  21  22
ENDBRANCH   6  21
TORSDOF 5
ENDMDL
MODEL 6
REMARK VINA RESULT:      -8.3      4.361      6.864
REMARK  Name = 
REMARK  6 active torsions:
REMARK  status: ('A' for Active; 'I' for Inactive)
REMARK    1  A    between atoms: C_1  and  C_2
REMARK    2  A    between atoms: C_2  and  C_3
REMARK    3  A    between atoms: N_17  and  C_18
REMARK    4  A    between atoms: C_18  and  C_19
REMARK    5  A    between atoms: N_21  and  C_22
REMARK    6  A    between atoms: C_26  and  C_27
REMARK                            x       y       z     vdW  Elec       q    Type
REMARK                         _______ _______ _______ _____ _____    ______ ____
ROOT
ATOM      1  C   UNL     1       1.903   4.810  17.573  0.00  0.00    +0.000 C 
ATOM      2  C   UNL     1       2.895   5.671  18.357  0.00  0.00    +0.000 C 
ATOM      3  N   UNL     1       3.502   4.897  19.423  0.00  0.00    +0.000 N 
ATOM      4  C   UNL     1       4.873   4.939  19.385  0.00  0.00    +0.000 C 
ATOM      5  O   UNL     1       5.605   4.514  20.264  0.00  0.00    +0.000 OA
ATOM      6  N   UNL     1       5.268   5.519  18.226  0.00  0.00    +0.000 N 
ATOM      7  C   UNL     1       4.179   5.972  17.530  0.00  0.00    +0.000 C 
ATOM      8  O   UNL     1       4.213   6.582  16.468  0.00  0.00    +0.000 OA
ATOM      9  H   UNL     1       3.017   4.584  20.253  0.00  0.00    +0.000 HD
ENDROOT
BRANCH   2  10
ATOM     10  C   UNL     1       2.258   6.971  18.854  0.00  0.00    +0.000 A 
ATOM     11  C   UNL     1       2.032   8.031  17.956  0.00  0.00    +0.000 A 
ATOM     12  C   UNL     1       1.491   9.244  18.388  0.00  0.00    +0.000 A 
ATOM     13  C   UNL     1       1.158   9.432  19.728  0.00  0.00    +0.000 A 
ATOM     14  C   UNL     1       1.316   8.373  20.626  0.00  0.00    +0.000 A 
ATOM     15  C   UNL     1       1.888   7.169  20.196  0.00  0.00    +0.000 A 
ATOM     16  O   UNL     1       0.957   8.395  21.951  0.00  0.00    +0.000 OA
ATOM     17  C   UNL     1      -0.263   9.101  22.181  0.00  0.00    +0.000 C 
ATOM     18  C   UNL     1      -0.009  10.586  22.365  0.00  0.00    +0.000 C 
ATOM     19  C   UNL     1       0.995  11.116  21.355  0.00  0.00    +0.000 C 
ATOM     20  O   UNL     1       0.676  10.679  20.034  0.00  0.00    +0.000 OA
ENDBRANCH   2  10
BRANCH   6  21
ATOM     21  C   UNL     1       6.648   5.821  17.905  0.00  0.00    +0.000 C 
BRANCH  21  22
ATOM     22  C   UNL     1       7.136   5.144  16.624  0.00  0.00    +0.000 C 
ATOM     23  O   UNL     1       7.928   4.204  16.651  0.00  0.00    +0.000 OA
ATOM     24  N   UNL     1       6.647   5.718  15.456  0.00  0.00    +0.000 N 
ATOM     25  H   UNL     1       6.438   6.714  15.508  0.00  0.00    +0.000 HD
BRANCH  24  26
ATOM     26  C   UNL     1       6.931   5.180  14.182  0.00  0.00    +0.000 A 
ATOM     27  C   UNL     1       7.878   5.824  13.383  0.00  0.00    +0.000 A 
ATOM     28  C   UNL     1       8.197   5.316  12.121  0.00  0.00    +0.000 A 
ATOM     29  C   UNL     1       7.520   4.199  11.623  0.00  0.00    +0.000 A 
ATOM     30  C   UNL     1       6.537   3.573  12.401  0.00  0.00    +0.000 A 
ATOM     31  C   UNL     1       6.262   4.050  13.691  0.00  0.00    +0.000 A 
BRANCH  30  32
ATOM     32  C   UNL     1       5.798   2.466  11.857  0.00  0.00    +0.000 C 
ATOM     33  N   UNL     1       5.224   1.562  11.427  0.00  0.00    +0.000 NA
ENDBRANCH  30  32
ENDBRANCH  24  26
ENDBRANCH  21  22
ENDBRANCH   6  21
TORSDOF 5
ENDMDL
MODEL 7
REMARK VINA RESULT:      -8.2      3.427      4.290
REMARK  Name = 
REMARK  6 active torsions:
REMARK  status: ('A' for Active; 'I' for Inactive)
REMARK    1  A    between atoms: C_1  and  C_2
REMARK    2  A    between atoms: C_2  and  C_3
REMARK    3  A    between atoms: N_17  and  C_18
REMARK    4  A    between atoms: C_18  and  C_19
REMARK    5  A    between atoms: N_21  and  C_22
REMARK    6  A    between atoms: C_26  and  C_27
REMARK                            x       y       z     vdW  Elec       q    Type
REMARK                         _______ _______ _______ _____ _____    ______ ____
ROOT
ATOM      1  C   UNL     1       2.844   4.417  17.756  0.00  0.00    +0.000 C 
ATOM      2  C   UNL     1       3.757   5.528  18.279  0.00  0.00    +0.000 C 
ATOM      3  N   UNL     1       4.648   5.010  19.299  0.00  0.00    +0.000 N 
ATOM      4  C   UNL     1       5.966   5.283  19.031  0.00  0.00    +0.000 C 
ATOM      5  O   UNL     1       6.885   5.104  19.814  0.00  0.00    +0.000 OA
ATOM      6  N   UNL     1       6.071   5.774  17.773  0.00  0.00    +0.000 N 
ATOM      7  C   UNL     1       4.826   5.941  17.225  0.00  0.00    +0.000 C 
ATOM      8  O   UNL     1       4.590   6.409  16.119  0.00  0.00    +0.000 OA
ATOM      9  H   UNL     1       4.357   4.724  20.225  0.00  0.00    +0.000 HD
ENDROOT
BRANCH   2  10
ATOM     10  C   UNL     1       2.963   6.750  18.746  0.00  0.00    +0.000 A 
ATOM     11  C   UNL     1       2.341   6.743  20.009  0.00  0.00    +0.000 A 
ATOM     12  C   UNL     1       1.576   7.827  20.446  0.00  0.00    +0.000 A 
ATOM     13  C   UNL     1       1.411   8.948  19.636  0.00  0.00    +0.000 A 
ATOM     14  C   UNL     1       2.070   9.003  18.404  0.00  0.00    +0.000 A 
ATOM     15  C   UNL     1       2.811   7.903  17.955  0.00  0.00    +0.000 A 
ATOM     16  O   UNL     1       2.058  10.074  17.545  0.00  0.00    +0.000 OA
ATOM     17  C   UNL     1       2.112  11.329  18.225  0.00  0.00    +0.000 C 
ATOM     18  C   UNL     1       0.722  11.799  18.614  0.00  0.00    +0.000 C 
ATOM     19  C   UNL     1      -0.121  10.666  19.177  0.00  0.00    +0.000 C 
ATOM     20  O   UNL     1       0.603   9.925  20.159  0.00  0.00    +0.000 OA
ENDBRANCH   2  10
BRANCH   6  21
ATOM     21  C   UNL     1       7.307   6.267  17.201  0.00  0.00    +0.000 C 
BRANCH  21  22
ATOM     22  C   UNL     1       7.931   7.412  17.999  0.00  0.00    +0.000 C 
ATOM     23  O   UNL     1       8.531   7.213  19.054  0.00  0.00    +0.000 OA
ATOM     24  N   UNL     1       7.711   8.672  17.453  0.00  0.00    +0.000 N 
ATOM     25  H   UNL     1       6.849   8.776  16.920  0.00  0.00    +0.000 HD
BRANCH  24  26
ATOM     26  C   UNL     1       8.274   9.839  18.012  0.00  0.00    +0.000 A 
ATOM     27  C   UNL     1       9.199   9.702  19.048  0.00  0.00    +0.000 A 
ATOM     28  C   UNL     1       9.790  10.832  19.620  0.00  0.00    +0.000 A 
ATOM     29  C   UNL     1       9.406  12.110  19.204  0.00  0.00    +0.000 A 
ATOM     30  C   UNL     1       8.445  12.258  18.195  0.00  0.00    +0.000 A 
ATOM     31  C   UNL     1       7.899  11.120  17.582  0.00  0.00    +0.000 A 
BRANCH  30  32
ATOM     32  C   UNL     1       8.005  13.574  17.818  0.00  0.00    +0.000 C 
ATOM     33  N   UNL     1       7.635  14.630  17.535  0.00  0.00    +0.000 NA
ENDBRANCH  30  32
ENDBRANCH  24  26
ENDBRANCH  21  22
ENDBRANCH   6  21
TORSDOF 5
ENDMDL
MODEL 8
REMARK VINA RESULT:      -8.1      6.550      8.550
REMARK  Name = 
REMARK  6 active torsions:
REMARK  status: ('A' for Active; 'I' for Inactive)
REMARK    1  A    between atoms: C_1  and  C_2
REMARK    2  A    between atoms: C_2  and  C_3
REMARK    3  A    between atoms: N_17  and  C_18
REMARK    4  A    between atoms: C_18  and  C_19
REMARK    5  A    between atoms: N_21  and  C_22
REMARK    6  A    between atoms: C_26  and  C_27
REMARK                            x       y       z     vdW  Elec       q    Type
REMARK                         _______ _______ _______ _____ _____    ______ ____
ROOT
ATOM      1  C   UNL     1       1.380  11.823  19.394  0.00  0.00    +0.000 C 
ATOM      2  C   UNL     1       0.840  10.499  18.849  0.00  0.00    +0.000 C 
ATOM      3  N   UNL     1       1.682  10.018  17.771  0.00  0.00    +0.000 N 
ATOM      4  C   UNL     1       2.105   8.728  17.974  0.00  0.00    +0.000 C 
ATOM      5  O   UNL     1       2.677   8.046  17.139  0.00  0.00    +0.000 OA
ATOM      6  N   UNL     1       1.789   8.350  19.236  0.00  0.00    +0.000 N 
ATOM      7  C   UNL     1       1.056   9.329  19.853  0.00  0.00    +0.000 C 
ATOM      8  O   UNL     1       0.584   9.264  20.980  0.00  0.00    +0.000 OA
ATOM      9  H   UNL     1       1.744  10.445  16.856  0.00  0.00    +0.000 HD
ENDROOT
BRANCH   2  10
ATOM     10  C   UNL     1      -0.635  10.602  18.452  0.00  0.00    +0.000 A 
ATOM     11  C   UNL     1      -1.153   9.760  17.451  0.00  0.00    +0.000 A 
ATOM     12  C   UNL     1      -2.485   9.859  17.038  0.00  0.00    +0.000 A 
ATOM     13  C   UNL     1      -3.336  10.798  17.616  0.00  0.00    +0.000 A 
ATOM     14  C   UNL     1      -2.860  11.603  18.656  0.00  0.00    +0.000 A 
ATOM     15  C   UNL     1      -1.517  11.523  19.045  0.00  0.00    +0.000 A 
ATOM     16  O   UNL     1      -3.608  12.511  19.363  0.00  0.00    +0.000 OA
ATOM     17  C   UNL     1      -4.936  12.051  19.620  0.00  0.00    +0.000 C 
ATOM     18  C   UNL     1      -5.864  12.389  18.467  0.00  0.00    +0.000 C 
ATOM     19  C   UNL     1      -5.214  12.116  17.121  0.00  0.00    +0.000 C 
ATOM     20  O   UNL     1      -4.604  10.825  17.096  0.00  0.00    +0.000 OA
ENDBRANCH   2  10
BRANCH   6  21
ATOM     21  C   UNL     1       1.996   7.012  19.752  0.00  0.00    +0.000 C 
BRANCH  21  22
ATOM     22  C   UNL     1       2.880   6.145  18.855  0.00  0.00    +0.000 C 
ATOM     23  O   UNL     1       2.407   5.275  18.127  0.00  0.00    +0.000 OA
ATOM     24  N   UNL     1       4.241   6.399  18.983  0.00  0.00    +0.000 N 
ATOM     25  H   UNL     1       4.543   6.734  19.897  0.00  0.00    +0.000 HD
BRANCH  24  26
ATOM     26  C   UNL     1       5.203   5.747  18.181  0.00  0.00    +0.000 A 
ATOM     27  C   UNL     1       6.484   5.556  18.701  0.00  0.00    +0.000 A 
ATOM     28  C   UNL     1       7.462   4.903  17.945  0.00  0.00    +0.000 A 
ATOM     29  C   UNL     1       7.181   4.499  16.636  0.00  0.00    +0.000 A 
ATOM     30  C   UNL     1       5.910   4.727  16.091  0.00  0.00    +0.000 A 
ATOM     31  C   UNL     1       4.915   5.329  16.875  0.00  0.00    +0.000 A 
BRANCH  30  32
ATOM     32  C   UNL     1       5.649   4.370  14.723  0.00  0.00    +0.000 C 
ATOM     33  N   UNL     1       5.431   4.107  13.620  0.00  0.00    +0.000 NA
ENDBRANCH  30  32
ENDBRANCH  24  26
ENDBRANCH  21  22
ENDBRANCH   6  21
TORSDOF 5
ENDMDL
MODEL 9
REMARK VINA RESULT:      -8.1      8.070     10.182
REMARK  Name = 
REMARK  6 active torsions:
REMARK  status: ('A' for Active; 'I' for Inactive)
REMARK    1  A    between atoms: C_1  and  C_2
REMARK    2  A    between atoms: C_2  and  C_3
REMARK    3  A    between atoms: N_17  and  C_18
REMARK    4  A    between atoms: C_18  and  C_19
REMARK    5  A    between atoms: N_21  and  C_22
REMARK    6  A    between atoms: C_26  and  C_27
REMARK                            x       y       z     vdW  Elec       q    Type
REMARK                         _______ _______ _______ _____ _____    ______ ____
ROOT
ATOM      1  C   UNL     1      11.223  15.552  16.930  0.00  0.00    +0.000 C 
ATOM      2  C   UNL     1      10.243  14.689  17.726  0.00  0.00    +0.000 C 
ATOM      3  N   UNL     1      10.055  13.407  17.073  0.00  0.00    +0.000 N 
ATOM      4  C   UNL     1      10.279  12.351  17.920  0.00  0.00    +0.000 C 
ATOM      5  O   UNL     1      10.024  11.186  17.660  0.00  0.00    +0.000 OA
ATOM      6  N   UNL     1      10.826  12.812  19.071  0.00  0.00    +0.000 N 
ATOM      7  C   UNL     1      10.870  14.181  19.057  0.00  0.00    +0.000 C 
ATOM      8  O   UNL     1      11.266  14.892  19.972  0.00  0.00    +0.000 OA
ATOM      9  H   UNL     1       9.564  13.274  16.199  0.00  0.00    +0.000 HD
ENDROOT
BRANCH   2  10
ATOM     10  C   UNL     1       8.925  15.418  17.996  0.00  0.00    +0.000 A 
ATOM     11  C   UNL     1       8.923  16.807  18.221  0.00  0.00    +0.000 A 
ATOM     12  C   UNL     1       7.742  17.494  18.511  0.00  0.00    +0.000 A 
ATOM     13  C   UNL     1       6.528  16.813  18.582  0.00  0.00    +0.000 A 
ATOM     14  C   UNL     1       6.496  15.444  18.301  0.00  0.00    +0.000 A 
ATOM     15  C   UNL     1       7.686  14.753  18.042  0.00  0.00    +0.000 A 
ATOM     16  O   UNL     1       5.363  14.668  18.260  0.00  0.00    +0.000 OA
ATOM     17  C   UNL     1       4.250  15.349  17.680  0.00  0.00    +0.000 C 
ATOM     18  C   UNL     1       3.497  16.153  18.726  0.00  0.00    +0.000 C 
ATOM     19  C   UNL     1       4.442  16.897  19.654  0.00  0.00    +0.000 C 
ATOM     20  O   UNL     1       5.449  17.590  18.916  0.00  0.00    +0.000 OA
ENDBRANCH   2  10
BRANCH   6  21
ATOM     21  C   UNL     1      11.092  11.980  20.226  0.00  0.00    +0.000 C 
BRANCH  21  22
ATOM     22  C   UNL     1       9.876  11.792  21.133  0.00  0.00    +0.000 C 
ATOM     23  O   UNL     1       9.216  10.755  21.123  0.00  0.00    +0.000 OA
ATOM     24  N   UNL     1       9.570  12.904  21.910  0.00  0.00    +0.000 N 
ATOM     25  H   UNL     1       9.825  13.805  21.510  0.00  0.00    +0.000 HD
BRANCH  24  26
ATOM     26  C   UNL     1       8.525  12.889  22.861  0.00  0.00    +0.000 A 
ATOM     27  C   UNL     1       8.662  12.076  23.987  0.00  0.00    +0.000 A 
ATOM     28  C   UNL     1       7.658  12.043  24.958  0.00  0.00    +0.000 A 
ATOM     29  C   UNL     1       6.479  12.771  24.772  0.00  0.00    +0.000 A 
ATOM     30  C   UNL     1       6.315  13.555  23.623  0.00  0.00    +0.000 A 
ATOM     31  C   UNL     1       7.351  13.633  22.681  0.00  0.00    +0.000 A 
BRANCH  30  32
ATOM     32  C   UNL     1       5.074  14.249  23.406  0.00  0.00    +0.000 C 
ATOM     33  N   UNL     1       4.092  14.827  23.228  0.00  0.00    +0.000 NA
ENDBRANCH  30  32
ENDBRANCH  24  26
ENDBRANCH  21  22
ENDBRANCH   6  21
TORSDOF 5
ENDMDL
