MODEL 1
REMARK VINA RESULT:     -10.0      0.000      0.000
REMARK  Name = 
REMARK  5 active torsions:
REMARK  status: ('A' for Active; 'I' for Inactive)
REMARK    1  A    between atoms: N_1  and  C_2
REMARK    2  A    between atoms: C_5  and  C_6
REMARK    3  A    between atoms: C_14  and  N_15
REMARK    4  A    between atoms: C_16  and  C_18
REMARK    5  A    between atoms: C_21  and  C_22
REMARK                            x       y       z     vdW  Elec       q    Type
REMARK                         _______ _______ _______ _____ _____    ______ ____
ROOT
ATOM      1  N   UNL     1       6.820   7.700  17.127  0.00  0.00    +0.000 N 
ATOM      2  C   UNL     1       7.801   7.921  18.072  0.00  0.00    +0.000 C 
ATOM      3  O   UNL     1       8.284   7.099  18.843  0.00  0.00    +0.000 OA
ATOM      4  H   UNL     1       6.699   8.397  16.410  0.00  0.00    +0.000 HD
ENDROOT
BRANCH   1  10
ATOM      5  C   UNL     1       6.452   5.601  15.940  0.00  0.00    +0.000 A 
ATOM      6  C   UNL     1       5.736   4.402  15.826  0.00  0.00    +0.000 A 
ATOM      7  C   UNL     1       4.632   4.130  16.642  0.00  0.00    +0.000 A 
ATOM      8  C   UNL     1       4.230   5.014  17.648  0.00  0.00    +0.000 A 
ATOM      9  C   UNL     1       4.972   6.205  17.770  0.00  0.00    +0.000 A 
ATOM     10  C   UNL     1       6.079   6.503  16.956  0.00  0.00    +0.000 A 
BRANCH   8  11
ATOM     11  C   UNL     1       3.118   4.714  18.581  0.00  0.00    +0.000 A 
ATOM     12  C   UNL     1       3.059   5.288  19.869  0.00  0.00    +0.000 A 
ATOM     13  C   UNL     1       2.039   4.968  20.772  0.00  0.00    +0.000 A 
ATOM     14  C   UNL     1       1.041   4.073  20.409  0.00  0.00    +0.000 A 
ATOM     15  C   UNL     1       1.063   3.498  19.143  0.00  0.00    +0.000 A 
ATOM     16  C   UNL     1       2.089   3.813  18.253  0.00  0.00    +0.000 A 
ATOM     17  F   UNL     1       2.076   3.194  17.060  0.00  0.00    +0.000 F 
ENDBRANCH   8  11
BRANCH   5  18
ATOM     18  N   UNL     1       7.649   5.731  15.206  0.00  0.00    +0.000 N 
ATOM     19  H   UNL     1       8.096   6.636  15.330  0.00  0.00    +0.000 HD
ATOM     20  H   UNL     1       8.310   4.976  15.297  0.00  0.00    +0.000 HD
ENDBRANCH   5  18
ENDBRANCH   1  10
BRANCH   2  21
ATOM     21  C   UNL     1       8.362   9.293  18.112  0.00  0.00    +0.000 A 
ATOM     22  C   UNL     1       7.848  10.343  17.343  0.00  0.00    +0.000 A 
ATOM     23  C   UNL     1       8.403  11.624  17.462  0.00  0.00    +0.000 A 
ATOM     24  C   UNL     1       9.457  11.865  18.356  0.00  0.00    +0.000 A 
ATOM     25  C   UNL     1       9.896  10.825  19.179  0.00  0.00    +0.000 A 
ATOM     26  C   UNL     1       9.380   9.541  19.036  0.00  0.00    +0.000 A 
BRANCH  24  27
ATOM     27  C   UNL     1       9.974  13.253  18.505  0.00  0.00    +0.000 C 
ATOM     28  O   UNL     1      11.001  13.530  17.886  0.00  0.00    +0.000 OA
ATOM     29  N   UNL     1       9.290  14.190  19.279  0.00  0.00    +0.000 N 
ATOM     30  C   UNL     1       9.623  15.603  19.128  0.00  0.00    +0.000 C 
ATOM     31  C   UNL     1       8.375  16.366  18.686  0.00  0.00    +0.000 C 
ATOM     32  C   UNL     1       7.182  16.164  19.649  0.00  0.00    +0.000 C 
ATOM     33  C   UNL     1       5.903  16.794  19.055  0.00  0.00    +0.000 C 
ATOM     34  C   UNL     1       5.414  17.766  20.111  0.00  0.00    +0.000 C 
ATOM     35  C   UNL     1       6.681  18.145  20.840  0.00  0.00    +0.000 C 
ATOM     36  N   UNL     1       7.428  16.886  20.923  0.00  0.00    +0.000 NA
ATOM     37  C   UNL     1       6.971  14.658  19.928  0.00  0.00    +0.000 C 
ATOM     38  C   UNL     1       8.272  13.940  20.299  0.00  0.00    +0.000 C 
ATOM     39  H   UNL     1       7.035  16.350  21.697  0.00  0.00    +0.000 HD
ENDBRANCH  24  27
ENDBRANCH   2  21
TORSDOF 5
ENDMDL
MODEL 2
REMARK VINA RESULT:      -9.9      0.697      1.072
REMARK  Name = 
REMARK  5 active torsions:
REMARK  status: ('A' for Active; 'I' for Inactive)
REMARK    1  A    between atoms: N_1  and  C_2
REMARK    2  A    between atoms: C_5  and  C_6
REMARK    3  A    between atoms: C_14  and  N_15
REMARK    4  A    between atoms: C_16  and  C_18
REMARK    5  A    between atoms: C_21  and  C_22
REMARK                            x       y       z     vdW  Elec       q    Type
REMARK                         _______ _______ _______ _____ _____    ______ ____
ROOT
ATOM      1  N   UNL     1       6.779   7.440  17.196  0.00  0.00    +0.000 N 
ATOM      2  C   UNL     1       7.757   7.687  18.139  0.00  0.00    +0.000 C 
ATOM      3  O   UNL     1       8.286   6.873  18.888  0.00  0.00    +0.000 OA
ATOM      4  H   UNL     1       6.618   8.145  16.496  0.00  0.00    +0.000 HD
ENDROOT
BRANCH   1  10
ATOM      5  C   UNL     1       6.430   5.401  15.902  0.00  0.00    +0.000 A 
ATOM      6  C   UNL     1       5.777   4.170  15.766  0.00  0.00    +0.000 A 
ATOM      7  C   UNL     1       4.763   3.778  16.649  0.00  0.00    +0.000 A 
ATOM      8  C   UNL     1       4.399   4.569  17.743  0.00  0.00    +0.000 A 
ATOM      9  C   UNL     1       5.081   5.794  17.884  0.00  0.00    +0.000 A 
ATOM     10  C   UNL     1       6.096   6.212  17.006  0.00  0.00    +0.000 A 
BRANCH   8  11
ATOM     11  C   UNL     1       3.391   4.142  18.740  0.00  0.00    +0.000 A 
ATOM     12  C   UNL     1       3.761   3.462  19.921  0.00  0.00    +0.000 A 
ATOM     13  C   UNL     1       2.808   3.012  20.841  0.00  0.00    +0.000 A 
ATOM     14  C   UNL     1       1.456   3.238  20.614  0.00  0.00    +0.000 A 
ATOM     15  C   UNL     1       1.058   3.915  19.466  0.00  0.00    +0.000 A 
ATOM     16  C   UNL     1       2.013   4.351  18.547  0.00  0.00    +0.000 A 
ATOM     17  F   UNL     1       1.563   4.964  17.440  0.00  0.00    +0.000 F 
ENDBRANCH   8  11
BRANCH   5  18
ATOM     18  N   UNL     1       7.551   5.651  15.085  0.00  0.00    +0.000 N 
ATOM     19  H   UNL     1       8.322   6.085  15.586  0.00  0.00    +0.000 HD
ATOM     20  H   UNL     1       7.867   4.882  14.514  0.00  0.00    +0.000 HD
ENDBRANCH   5  18
ENDBRANCH   1  10
BRANCH   2  21
ATOM     21  C   UNL     1       8.251   9.083  18.204  0.00  0.00    +0.000 A 
ATOM     22  C   UNL     1       9.340   9.465  18.997  0.00  0.00    +0.000 A 
ATOM     23  C   UNL     1       9.777  10.796  18.978  0.00  0.00    +0.000 A 
ATOM     24  C   UNL     1       9.143  11.743  18.159  0.00  0.00    +0.000 A 
ATOM     25  C   UNL     1       8.117  11.324  17.309  0.00  0.00    +0.000 A 
ATOM     26  C   UNL     1       7.649  10.015  17.355  0.00  0.00    +0.000 A 
BRANCH  24  27
ATOM     27  C   UNL     1       9.680  13.131  18.114  0.00  0.00    +0.000 C 
ATOM     28  O   UNL     1      10.576  13.351  17.298  0.00  0.00    +0.000 OA
ATOM     29  N   UNL     1       9.152  14.128  18.933  0.00  0.00    +0.000 N 
ATOM     30  C   UNL     1       9.453  15.523  18.624  0.00  0.00    +0.000 C 
ATOM     31  C   UNL     1       8.146  16.271  18.367  0.00  0.00    +0.000 C 
ATOM     32  C   UNL     1       7.150  16.152  19.544  0.00  0.00    +0.000 C 
ATOM     33  C   UNL     1       5.784  16.757  19.152  0.00  0.00    +0.000 C 
ATOM     34  C   UNL     1       5.499  17.806  20.209  0.00  0.00    +0.000 C 
ATOM     35  C   UNL     1       6.879  18.217  20.666  0.00  0.00    +0.000 C 
ATOM     36  N   UNL     1       7.627  16.956  20.698  0.00  0.00    +0.000 NA
ATOM     37  C   UNL     1       6.992  14.672  19.961  0.00  0.00    +0.000 C 
ATOM     38  C   UNL     1       8.338  13.963  20.137  0.00  0.00    +0.000 C 
ATOM     39  H   UNL     1       7.382  16.479  21.567  0.00  0.00    +0.000 HD
ENDBRANCH  24  27
ENDBRANCH   2  21
TORSDOF 5
ENDMDL
MODEL 3
REMARK VINA RESULT:      -9.9      0.925      1.288
REMARK  Name = 
REMARK  5 active torsions:
REMARK  status: ('A' for Active; 'I' for Inactive)
REMARK    1  A    between atoms: N_1  and  C_2
REMARK    2  A    between atoms: C_5  and  C_6
REMARK    3  A    between atoms: C_14  and  N_15
REMARK    4  A    between atoms: C_16  and  C_18
REMARK    5  A    between atoms: C_21  and  C_22
REMARK                            x       y       z     vdW  Elec       q    Type
REMARK                         _______ _______ _______ _____ _____    ______ ____
ROOT
ATOM      1  N   UNL     1       6.759   7.482  17.259  0.00  0.00    +0.000 N 
ATOM      2  C   UNL     1       7.781   7.713  18.159  0.00  0.00    +0.000 C 
ATOM      3  O   UNL     1       8.343   6.886  18.868  0.00  0.00    +0.000 OA
ATOM      4  H   UNL     1       6.567   8.199  16.579  0.00  0.00    +0.000 HD
ENDROOT
BRANCH   1  10
ATOM      5  C   UNL     1       6.382   5.443  15.973  0.00  0.00    +0.000 A 
ATOM      6  C   UNL     1       5.720   4.216  15.847  0.00  0.00    +0.000 A 
ATOM      7  C   UNL     1       4.716   3.831  16.744  0.00  0.00    +0.000 A 
ATOM      8  C   UNL     1       4.371   4.626  17.841  0.00  0.00    +0.000 A 
ATOM      9  C   UNL     1       5.062   5.847  17.972  0.00  0.00    +0.000 A 
ATOM     10  C   UNL     1       6.067   6.257  17.079  0.00  0.00    +0.000 A 
BRANCH   8  11
ATOM     11  C   UNL     1       3.374   4.206  18.853  0.00  0.00    +0.000 A 
ATOM     12  C   UNL     1       2.096   4.802  18.922  0.00  0.00    +0.000 A 
ATOM     13  C   UNL     1       1.169   4.444  19.907  0.00  0.00    +0.000 A 
ATOM     14  C   UNL     1       1.488   3.471  20.846  0.00  0.00    +0.000 A 
ATOM     15  C   UNL     1       2.734   2.856  20.799  0.00  0.00    +0.000 A 
ATOM     16  C   UNL     1       3.658   3.226  19.821  0.00  0.00    +0.000 A 
ATOM     17  F   UNL     1       4.858   2.623  19.852  0.00  0.00    +0.000 F 
ENDBRANCH   8  11
BRANCH   5  18
ATOM     18  N   UNL     1       7.493   5.686  15.140  0.00  0.00    +0.000 N 
ATOM     19  H   UNL     1       8.362   5.797  15.656  0.00  0.00    +0.000 HD
ATOM     20  H   UNL     1       7.605   5.063  14.355  0.00  0.00    +0.000 HD
ENDBRANCH   5  18
ENDBRANCH   1  10
BRANCH   2  21
ATOM     21  C   UNL     1       8.279   9.108  18.225  0.00  0.00    +0.000 A 
ATOM     22  C   UNL     1       9.351   9.490  19.039  0.00  0.00    +0.000 A 
ATOM     23  C   UNL     1       9.794  10.820  19.020  0.00  0.00    +0.000 A 
ATOM     24  C   UNL     1       9.182  11.764  18.180  0.00  0.00    +0.000 A 
ATOM     25  C   UNL     1       8.173  11.342  17.311  0.00  0.00    +0.000 A 
ATOM     26  C   UNL     1       7.699  10.035  17.356  0.00  0.00    +0.000 A 
BRANCH  24  27
ATOM     27  C   UNL     1       9.725  13.149  18.137  0.00  0.00    +0.000 C 
ATOM     28  O   UNL     1      10.633  13.362  17.332  0.00  0.00    +0.000 OA
ATOM     29  N   UNL     1       9.190  14.152  18.945  0.00  0.00    +0.000 N 
ATOM     30  C   UNL     1       9.501  15.544  18.636  0.00  0.00    +0.000 C 
ATOM     31  C   UNL     1       8.201  16.296  18.359  0.00  0.00    +0.000 C 
ATOM     32  C   UNL     1       7.189  16.186  19.524  0.00  0.00    +0.000 C 
ATOM     33  C   UNL     1       5.831  16.795  19.112  0.00  0.00    +0.000 C 
ATOM     34  C   UNL     1       5.537  17.849  20.161  0.00  0.00    +0.000 C 
ATOM     35  C   UNL     1       6.913  18.256  20.634  0.00  0.00    +0.000 C 
ATOM     36  N   UNL     1       7.655  16.992  20.680  0.00  0.00    +0.000 NA
ATOM     37  C   UNL     1       7.020  14.708  19.944  0.00  0.00    +0.000 C 
ATOM     38  C   UNL     1       8.360  13.994  20.139  0.00  0.00    +0.000 C 
ATOM     39  H   UNL     1       7.397  16.519  21.548  0.00  0.00    +0.000 HD
ENDBRANCH  24  27
ENDBRANCH   2  21
TORSDOF 5
ENDMDL
MODEL 4
REMARK VINA RESULT:      -9.6      1.045      1.093
REMARK  Name = 
REMARK  5 active torsions:
REMARK  status: ('A' for Active; 'I' for Inactive)
REMARK    1  A    between atoms: N_1  and  C_2
REMARK    2  A    between atoms: C_5  and  C_6
REMARK    3  A    between atoms: C_14  and  N_15
REMARK    4  A    between atoms: C_16  and  C_18
REMARK    5  A    between atoms: C_21  and  C_22
REMARK                            x       y       z     vdW  Elec       q    Type
REMARK                         _______ _______ _______ _____ _____    ______ ____
ROOT
ATOM      1  N   UNL     1       6.815   7.440  17.125  0.00  0.00    +0.000 N 
ATOM      2  C   UNL     1       7.769   7.717  18.084  0.00  0.00    +0.000 C 
ATOM      3  O   UNL     1       8.285   6.925  18.864  0.00  0.00    +0.000 OA
ATOM      4  H   UNL     1       6.666   8.128  16.404  0.00  0.00    +0.000 HD
ENDROOT
BRANCH   1  10
ATOM      5  C   UNL     1       6.486   5.384  15.854  0.00  0.00    +0.000 A 
ATOM      6  C   UNL     1       5.845   4.145  15.732  0.00  0.00    +0.000 A 
ATOM      7  C   UNL     1       4.835   3.753  16.619  0.00  0.00    +0.000 A 
ATOM      8  C   UNL     1       4.464   4.553  17.704  0.00  0.00    +0.000 A 
ATOM      9  C   UNL     1       5.133   5.786  17.832  0.00  0.00    +0.000 A 
ATOM     10  C   UNL     1       6.144   6.204  16.948  0.00  0.00    +0.000 A 
BRANCH   8  11
ATOM     11  C   UNL     1       3.460   4.127  18.707  0.00  0.00    +0.000 A 
ATOM     12  C   UNL     1       3.819   3.346  19.826  0.00  0.00    +0.000 A 
ATOM     13  C   UNL     1       2.867   2.899  20.749  0.00  0.00    +0.000 A 
ATOM     14  C   UNL     1       1.527   3.228  20.585  0.00  0.00    +0.000 A 
ATOM     15  C   UNL     1       1.141   4.007  19.499  0.00  0.00    +0.000 A 
ATOM     16  C   UNL     1       2.095   4.439  18.578  0.00  0.00    +0.000 A 
ATOM     17  F   UNL     1       1.653   5.155  17.529  0.00  0.00    +0.000 F 
ENDBRANCH   8  11
BRANCH   5  18
ATOM     18  N   UNL     1       7.603   5.636  15.033  0.00  0.00    +0.000 N 
ATOM     19  H   UNL     1       8.159   6.429  15.347  0.00  0.00    +0.000 HD
ATOM     20  H   UNL     1       8.184   4.841  14.814  0.00  0.00    +0.000 HD
ENDBRANCH   5  18
ENDBRANCH   1  10
BRANCH   2  21
ATOM     21  C   UNL     1       8.253   9.118  18.127  0.00  0.00    +0.000 A 
ATOM     22  C   UNL     1       7.663  10.145  17.381  0.00  0.00    +0.000 A 
ATOM     23  C   UNL     1       8.148  11.454  17.502  0.00  0.00    +0.000 A 
ATOM     24  C   UNL     1       9.208  11.744  18.376  0.00  0.00    +0.000 A 
ATOM     25  C   UNL     1       9.723  10.723  19.177  0.00  0.00    +0.000 A 
ATOM     26  C   UNL     1       9.276   9.413  19.031  0.00  0.00    +0.000 A 
BRANCH  24  27
ATOM     27  C   UNL     1       9.649  13.158  18.530  0.00  0.00    +0.000 C 
ATOM     28  O   UNL     1      10.344  13.621  17.625  0.00  0.00    +0.000 OA
ATOM     29  N   UNL     1       9.250  13.915  19.630  0.00  0.00    +0.000 N 
ATOM     30  C   UNL     1       9.406  15.366  19.579  0.00  0.00    +0.000 C 
ATOM     31  C   UNL     1       8.037  16.022  19.744  0.00  0.00    +0.000 C 
ATOM     32  C   UNL     1       7.314  15.574  21.037  0.00  0.00    +0.000 C 
ATOM     33  C   UNL     1       5.867  16.113  21.054  0.00  0.00    +0.000 C 
ATOM     34  C   UNL     1       5.752  16.896  22.347  0.00  0.00    +0.000 C 
ATOM     35  C   UNL     1       7.173  17.336  22.608  0.00  0.00    +0.000 C 
ATOM     36  N   UNL     1       7.977  16.171  22.223  0.00  0.00    +0.000 NA
ATOM     37  C   UNL     1       7.325  14.032  21.146  0.00  0.00    +0.000 C 
ATOM     38  C   UNL     1       8.714  13.434  20.903  0.00  0.00    +0.000 C 
ATOM     39  H   UNL     1       7.944  15.509  22.999  0.00  0.00    +0.000 HD
ENDBRANCH  24  27
ENDBRANCH   2  21
TORSDOF 5
ENDMDL
MODEL 5
REMARK VINA RESULT:      -9.6      3.034     10.653
REMARK  Name = 
REMARK  5 active torsions:
REMARK  status: ('A' for Active; 'I' for Inactive)
REMARK    1  A    between atoms: N_1  and  C_2
REMARK    2  A    between atoms: C_5  and  C_6
REMARK    3  A    between atoms: C_14  and  N_15
REMARK    4  A    between atoms: C_16  and  C_18
REMARK    5  A    between atoms: C_21  and  C_22
REMARK                            x       y       z     vdW  Elec       q    Type
REMARK                         _______ _______ _______ _____ _____    ______ ____
ROOT
ATOM      1  N   UNL     1       9.062  11.044  18.069  0.00  0.00    +0.000 N 
ATOM      2  C   UNL     1       9.016  10.026  19.000  0.00  0.00    +0.000 C 
ATOM      3  O   UNL     1       9.357  10.084  20.177  0.00  0.00    +0.000 OA
ATOM      4  H   UNL     1       8.529  10.926  17.223  0.00  0.00    +0.000 HD
ENDROOT
BRANCH   1  10
ATOM      5  C   UNL     1      11.021  12.498  18.018  0.00  0.00    +0.000 A 
ATOM      6  C   UNL     1      11.559  13.782  18.164  0.00  0.00    +0.000 A 
ATOM      7  C   UNL     1      10.780  14.855  18.612  0.00  0.00    +0.000 A 
ATOM      8  C   UNL     1       9.414  14.709  18.874  0.00  0.00    +0.000 A 
ATOM      9  C   UNL     1       8.878  13.418  18.699  0.00  0.00    +0.000 A 
ATOM     10  C   UNL     1       9.644  12.324  18.259  0.00  0.00    +0.000 A 
BRANCH   8  11
ATOM     11  C   UNL     1       8.548  15.844  19.267  0.00  0.00    +0.000 A 
ATOM     12  C   UNL     1       8.839  16.639  20.397  0.00  0.00    +0.000 A 
ATOM     13  C   UNL     1       7.996  17.681  20.800  0.00  0.00    +0.000 A 
ATOM     14  C   UNL     1       6.842  17.965  20.081  0.00  0.00    +0.000 A 
ATOM     15  C   UNL     1       6.532  17.208  18.957  0.00  0.00    +0.000 A 
ATOM     16  C   UNL     1       7.371  16.164  18.566  0.00  0.00    +0.000 A 
ATOM     17  F   UNL     1       6.996  15.445  17.495  0.00  0.00    +0.000 F 
ENDBRANCH   8  11
BRANCH   5  18
ATOM     18  N   UNL     1      11.818  11.511  17.403  0.00  0.00    +0.000 N 
ATOM     19  H   UNL     1      11.273  10.754  16.997  0.00  0.00    +0.000 HD
ATOM     20  H   UNL     1      12.524  11.842  16.765  0.00  0.00    +0.000 HD
ENDBRANCH   5  18
ENDBRANCH   1  10
BRANCH   2  21
ATOM     21  C   UNL     1       8.439   8.745  18.527  0.00  0.00    +0.000 A 
ATOM     22  C   UNL     1       8.583   7.544  19.232  0.00  0.00    +0.000 A 
ATOM     23  C   UNL     1       7.976   6.379  18.744  0.00  0.00    +0.000 A 
ATOM     24  C   UNL     1       7.213   6.411  17.567  0.00  0.00    +0.000 A 
ATOM     25  C   UNL     1       7.006   7.636  16.928  0.00  0.00    +0.000 A 
ATOM     26  C   UNL     1       7.642   8.788  17.381  0.00  0.00    +0.000 A 
BRANCH  24  27
ATOM     27  C   UNL     1       6.526   5.169  17.119  0.00  0.00    +0.000 C 
ATOM     28  O   UNL     1       7.214   4.341  16.521  0.00  0.00    +0.000 OA
ATOM     29  N   UNL     1       5.179   4.953  17.409  0.00  0.00    +0.000 N 
ATOM     30  C   UNL     1       4.636   3.606  17.266  0.00  0.00    +0.000 C 
ATOM     31  C   UNL     1       4.091   3.141  18.615  0.00  0.00    +0.000 C 
ATOM     32  C   UNL     1       3.043   4.115  19.201  0.00  0.00    +0.000 C 
ATOM     33  C   UNL     1       2.673   3.699  20.642  0.00  0.00    +0.000 C 
ATOM     34  C   UNL     1       1.167   3.526  20.630  0.00  0.00    +0.000 C 
ATOM     35  C   UNL     1       0.875   3.168  19.192  0.00  0.00    +0.000 C 
ATOM     36  N   UNL     1       1.780   4.031  18.425  0.00  0.00    +0.000 NA
ATOM     37  C   UNL     1       3.585   5.562  19.172  0.00  0.00    +0.000 C 
ATOM     38  C   UNL     1       4.178   5.941  17.812  0.00  0.00    +0.000 C 
ATOM     39  H   UNL     1       1.350   4.956  18.377  0.00  0.00    +0.000 HD
ENDBRANCH  24  27
ENDBRANCH   2  21
TORSDOF 5
ENDMDL
MODEL 6
REMARK VINA RESULT:      -9.6      1.453      1.640
REMARK  Name = 
REMARK  5 active torsions:
REMARK  status: ('A' for Active; 'I' for Inactive)
REMARK    1  A    between atoms: N_1  and  C_2
REMARK    2  A    between atoms: C_5  and  C_6
REMARK    3  A    between atoms: C_14  and  N_15
REMARK    4  A    between atoms: C_16  and  C_18
REMARK    5  A    between atoms: C_21  and  C_22
REMARK                            x       y       z     vdW  Elec       q    Type
REMARK                         _______ _______ _______ _____ _____    ______ ____
ROOT
ATOM      1  N   UNL     1       6.771   7.459  17.198  0.00  0.00    +0.000 N 
ATOM      2  C   UNL     1       7.794   7.700  18.094  0.00  0.00    +0.000 C 
ATOM      3  O   UNL     1       8.368   6.878  18.799  0.00  0.00    +0.000 OA
ATOM      4  H   UNL     1       6.568   8.176  16.519  0.00  0.00    +0.000 HD
ENDROOT
BRANCH   1  10
ATOM      5  C   UNL     1       6.425   5.408  15.923  0.00  0.00    +0.000 A 
ATOM      6  C   UNL     1       5.775   4.174  15.799  0.00  0.00    +0.000 A 
ATOM      7  C   UNL     1       4.764   3.788  16.687  0.00  0.00    +0.000 A 
ATOM      8  C   UNL     1       4.400   4.588  17.775  0.00  0.00    +0.000 A 
ATOM      9  C   UNL     1       5.079   5.816  17.904  0.00  0.00    +0.000 A 
ATOM     10  C   UNL     1       6.091   6.228  17.019  0.00  0.00    +0.000 A 
BRANCH   8  11
ATOM     11  C   UNL     1       3.395   4.167  18.778  0.00  0.00    +0.000 A 
ATOM     12  C   UNL     1       2.092   4.710  18.791  0.00  0.00    +0.000 A 
ATOM     13  C   UNL     1       1.155   4.352  19.767  0.00  0.00    +0.000 A 
ATOM     14  C   UNL     1       1.490   3.433  20.754  0.00  0.00    +0.000 A 
ATOM     15  C   UNL     1       2.762   2.871  20.763  0.00  0.00    +0.000 A 
ATOM     16  C   UNL     1       3.694   3.240  19.793  0.00  0.00    +0.000 A 
ATOM     17  F   UNL     1       4.918   2.691  19.879  0.00  0.00    +0.000 F 
ENDBRANCH   8  11
BRANCH   5  18
ATOM     18  N   UNL     1       7.543   5.654  15.100  0.00  0.00    +0.000 N 
ATOM     19  H   UNL     1       8.219   4.894  15.107  0.00  0.00    +0.000 HD
ATOM     20  H   UNL     1       7.346   5.966  14.162  0.00  0.00    +0.000 HD
ENDBRANCH   5  18
ENDBRANCH   1  10
BRANCH   2  21
ATOM     21  C   UNL     1       8.277   9.100  18.159  0.00  0.00    +0.000 A 
ATOM     22  C   UNL     1       7.724  10.129  17.388  0.00  0.00    +0.000 A 
ATOM     23  C   UNL     1       8.205  11.437  17.532  0.00  0.00    +0.000 A 
ATOM     24  C   UNL     1       9.223  11.725  18.454  0.00  0.00    +0.000 A 
ATOM     25  C   UNL     1       9.699  10.703  19.278  0.00  0.00    +0.000 A 
ATOM     26  C   UNL     1       9.258   9.394  19.110  0.00  0.00    +0.000 A 
BRANCH  24  27
ATOM     27  C   UNL     1       9.658  13.138  18.629  0.00  0.00    +0.000 C 
ATOM     28  O   UNL     1      10.142  13.694  17.641  0.00  0.00    +0.000 OA
ATOM     29  N   UNL     1       9.481  13.795  19.846  0.00  0.00    +0.000 N 
ATOM     30  C   UNL     1       9.595  15.250  19.882  0.00  0.00    +0.000 C 
ATOM     31  C   UNL     1       8.276  15.842  20.377  0.00  0.00    +0.000 C 
ATOM     32  C   UNL     1       7.846  15.272  21.749  0.00  0.00    +0.000 C 
ATOM     33  C   UNL     1       6.423  15.756  22.106  0.00  0.00    +0.000 C 
ATOM     34  C   UNL     1       6.563  16.434  23.454  0.00  0.00    +0.000 C 
ATOM     35  C   UNL     1       7.998  16.904  23.454  0.00  0.00    +0.000 C 
ATOM     36  N   UNL     1       8.728  15.802  22.819  0.00  0.00    +0.000 NA
ATOM     37  C   UNL     1       7.909  13.728  21.728  0.00  0.00    +0.000 C 
ATOM     38  C   UNL     1       9.229  13.201  21.158  0.00  0.00    +0.000 C 
ATOM     39  H   UNL     1       8.869  15.082  23.529  0.00  0.00    +0.000 HD
ENDBRANCH  24  27
ENDBRANCH   2  21
TORSDOF 5
ENDMDL
MODEL 7
REMARK VINA RESULT:      -9.4      3.420     10.828
REMARK  Name = 
REMARK  5 active torsions:
REMARK  status: ('A' for Active; 'I' for Inactive)
REMARK    1  A    between atoms: N_1  and  C_2
REMARK    2  A    between atoms: C_5  and  C_6
REMARK    3  A    between atoms: C_14  and  N_15
REMARK    4  A    between atoms: C_16  and  C_18
REMARK    5  A    between atoms: C_21  and  C_22
REMARK                            x       y       z     vdW  Elec       q    Type
REMARK                         _______ _______ _______ _____ _____    ______ ____
ROOT
ATOM      1  N   UNL     1       9.216  11.119  18.089  0.00  0.00    +0.000 N 
ATOM      2  C   UNL     1       9.065  10.128  19.039  0.00  0.00    +0.000 C 
ATOM      3  O   UNL     1       9.299  10.211  20.240  0.00  0.00    +0.000 OA
ATOM      4  H   UNL     1       8.759  10.987  17.202  0.00  0.00    +0.000 HD
ENDROOT
BRANCH   1  10
ATOM      5  C   UNL     1      11.183  12.562  18.050  0.00  0.00    +0.000 A 
ATOM      6  C   UNL     1      11.730  13.841  18.215  0.00  0.00    +0.000 A 
ATOM      7  C   UNL     1      10.960  14.910  18.688  0.00  0.00    +0.000 A 
ATOM      8  C   UNL     1       9.596  14.766  18.959  0.00  0.00    +0.000 A 
ATOM      9  C   UNL     1       9.051  13.481  18.765  0.00  0.00    +0.000 A 
ATOM     10  C   UNL     1       9.806  12.391  18.299  0.00  0.00    +0.000 A 
BRANCH   8  11
ATOM     11  C   UNL     1       8.738  15.898  19.379  0.00  0.00    +0.000 A 
ATOM     12  C   UNL     1       7.518  16.182  18.729  0.00  0.00    +0.000 A 
ATOM     13  C   UNL     1       6.730  17.281  19.089  0.00  0.00    +0.000 A 
ATOM     14  C   UNL     1       7.133  18.123  20.118  0.00  0.00    +0.000 A 
ATOM     15  C   UNL     1       8.324  17.865  20.787  0.00  0.00    +0.000 A 
ATOM     16  C   UNL     1       9.111  16.774  20.415  0.00  0.00    +0.000 A 
ATOM     17  F   UNL     1      10.269  16.601  21.073  0.00  0.00    +0.000 F 
ENDBRANCH   8  11
BRANCH   5  18
ATOM     18  N   UNL     1      11.969  11.582  17.411  0.00  0.00    +0.000 N 
ATOM     19  H   UNL     1      11.797  11.522  16.410  0.00  0.00    +0.000 HD
ATOM     20  H   UNL     1      12.956  11.600  17.616  0.00  0.00    +0.000 HD
ENDBRANCH   5  18
ENDBRANCH   1  10
BRANCH   2  21
ATOM     21  C   UNL     1       8.504   8.846  18.549  0.00  0.00    +0.000 A 
ATOM     22  C   UNL     1       8.630   7.645  19.257  0.00  0.00    +0.000 A 
ATOM     23  C   UNL     1       8.039   6.479  18.752  0.00  0.00    +0.000 A 
ATOM     24  C   UNL     1       7.311   6.510  17.553  0.00  0.00    +0.000 A 
ATOM     25  C   UNL     1       7.121   7.734  16.908  0.00  0.00    +0.000 A 
ATOM     26  C   UNL     1       7.741   8.887  17.380  0.00  0.00    +0.000 A 
BRANCH  24  27
ATOM     27  C   UNL     1       6.640   5.266  17.085  0.00  0.00    +0.000 C 
ATOM     28  O   UNL     1       7.346   4.443  16.501  0.00  0.00    +0.000 OA
ATOM     29  N   UNL     1       5.287   5.044  17.342  0.00  0.00    +0.000 N 
ATOM     30  C   UNL     1       4.754   3.695  17.182  0.00  0.00    +0.000 C 
ATOM     31  C   UNL     1       4.179   3.223  18.516  0.00  0.00    +0.000 C 
ATOM     32  C   UNL     1       3.113   4.191  19.081  0.00  0.00    +0.000 C 
ATOM     33  C   UNL     1       2.712   3.769  20.511  0.00  0.00    +0.000 C 
ATOM     34  C   UNL     1       1.207   3.590  20.463  0.00  0.00    +0.000 C 
ATOM     35  C   UNL     1       0.950   3.236  19.017  0.00  0.00    +0.000 C 
ATOM     36  N   UNL     1       1.869   4.105  18.275  0.00  0.00    +0.000 NA
ATOM     37  C   UNL     1       3.650   5.641  19.069  0.00  0.00    +0.000 C 
ATOM     38  C   UNL     1       4.273   6.027  17.725  0.00  0.00    +0.000 C 
ATOM     39  H   UNL     1       1.437   5.028  18.220  0.00  0.00    +0.000 HD
ENDBRANCH  24  27
ENDBRANCH   2  21
TORSDOF 5
ENDMDL
MODEL 8
REMARK VINA RESULT:      -9.3      3.418     10.915
REMARK  Name = 
REMARK  5 active torsions:
REMARK  status: ('A' for Active; 'I' for Inactive)
REMARK    1  A    between atoms: N_1  and  C_2
REMARK    2  A    between atoms: C_5  and  C_6
REMARK    3  A    between atoms: C_14  and  N_15
REMARK    4  A    between atoms: C_16  and  C_18
REMARK    5  A    between atoms: C_21  and  C_22
REMARK                            x       y       z     vdW  Elec       q    Type
REMARK                         _______ _______ _______ _____ _____    ______ ____
ROOT
ATOM      1  N   UNL     1       9.510  11.136  18.160  0.00  0.00    +0.000 N 
ATOM      2  C   UNL     1       9.156  10.202  19.114  0.00  0.00    +0.000 C 
ATOM      3  O   UNL     1       9.305  10.290  20.327  0.00  0.00    +0.000 OA
ATOM      4  H   UNL     1       9.111  11.038  17.241  0.00  0.00    +0.000 HD
ENDROOT
BRANCH   1  10
ATOM      5  C   UNL     1      11.641  12.324  18.205  0.00  0.00    +0.000 A 
ATOM      6  C   UNL     1      12.333  13.527  18.391  0.00  0.00    +0.000 A 
ATOM      7  C   UNL     1      11.682  14.687  18.825  0.00  0.00    +0.000 A 
ATOM      8  C   UNL     1      10.299  14.715  19.035  0.00  0.00    +0.000 A 
ATOM      9  C   UNL     1       9.609  13.506  18.820  0.00  0.00    +0.000 A 
ATOM     10  C   UNL     1      10.244  12.327  18.392  0.00  0.00    +0.000 A 
BRANCH   8  11
ATOM     11  C   UNL     1       9.571  15.949  19.412  0.00  0.00    +0.000 A 
ATOM     12  C   UNL     1       9.144  16.178  20.738  0.00  0.00    +0.000 A 
ATOM     13  C   UNL     1       8.412  17.318  21.089  0.00  0.00    +0.000 A 
ATOM     14  C   UNL     1       8.095  18.268  20.127  0.00  0.00    +0.000 A 
ATOM     15  C   UNL     1       8.510  18.079  18.813  0.00  0.00    +0.000 A 
ATOM     16  C   UNL     1       9.230  16.934  18.468  0.00  0.00    +0.000 A 
ATOM     17  F   UNL     1       9.568  16.790  17.176  0.00  0.00    +0.000 F 
ENDBRANCH   8  11
BRANCH   5  18
ATOM     18  N   UNL     1      12.327  11.249  17.605  0.00  0.00    +0.000 N 
ATOM     19  H   UNL     1      13.268  11.123  17.970  0.00  0.00    +0.000 HD
ATOM     20  H   UNL     1      11.829  10.374  17.557  0.00  0.00    +0.000 HD
ENDBRANCH   5  18
ENDBRANCH   1  10
BRANCH   2  21
ATOM     21  C   UNL     1       8.473   8.988  18.605  0.00  0.00    +0.000 A 
ATOM     22  C   UNL     1       7.742   8.976  17.411  0.00  0.00    +0.000 A 
ATOM     23  C   UNL     1       7.156   7.782  16.971  0.00  0.00    +0.000 A 
ATOM     24  C   UNL     1       7.311   6.597  17.708  0.00  0.00    +0.000 A 
ATOM     25  C   UNL     1       8.118   6.610  18.847  0.00  0.00    +0.000 A 
ATOM     26  C   UNL     1       8.667   7.801  19.314  0.00  0.00    +0.000 A 
BRANCH  24  27
ATOM     27  C   UNL     1       6.733   5.334  17.172  0.00  0.00    +0.000 C 
ATOM     28  O   UNL     1       7.521   4.540  16.657  0.00  0.00    +0.000 OA
ATOM     29  N   UNL     1       5.370   5.064  17.295  0.00  0.00    +0.000 N 
ATOM     30  C   UNL     1       4.902   3.699  17.078  0.00  0.00    +0.000 C 
ATOM     31  C   UNL     1       4.216   3.199  18.348  0.00  0.00    +0.000 C 
ATOM     32  C   UNL     1       3.067   4.126  18.808  0.00  0.00    +0.000 C 
ATOM     33  C   UNL     1       2.542   3.681  20.191  0.00  0.00    +0.000 C 
ATOM     34  C   UNL     1       1.057   3.451  19.995  0.00  0.00    +0.000 C 
ATOM     35  C   UNL     1       0.955   3.098  18.530  0.00  0.00    +0.000 C 
ATOM     36  N   UNL     1       1.912   4.003  17.884  0.00  0.00    +0.000 NA
ATOM     37  C   UNL     1       3.552   5.593  18.854  0.00  0.00    +0.000 C 
ATOM     38  C   UNL     1       4.290   6.009  17.579  0.00  0.00    +0.000 C 
ATOM     39  H   UNL     1       1.455   4.911  17.790  0.00  0.00    +0.000 HD
ENDBRANCH  24  27
ENDBRANCH   2  21
TORSDOF 5
ENDMDL
MODEL 9
REMARK VINA RESULT:      -9.1      5.446      7.317
REMARK  Name = 
REMARK  5 active torsions:
REMARK  status: ('A' for Active; 'I' for Inactive)
REMARK    1  A    between atoms: N_1  and  C_2
REMARK    2  A    between atoms: C_5  and  C_6
REMARK    3  A    between atoms: C_14  and  N_15
REMARK    4  A    between atoms: C_16  and  C_18
REMARK    5  A    between atoms: C_21  and  C_22
REMARK                            x       y       z     vdW  Elec       q    Type
REMARK                         _______ _______ _______ _____ _____    ______ ____
ROOT
ATOM      1  N   UNL     1       4.604   6.788  18.023  0.00  0.00    +0.000 N 
ATOM      2  C   UNL     1       3.252   6.522  18.103  0.00  0.00    +0.000 C 
ATOM      3  O   UNL     1       2.684   5.478  17.800  0.00  0.00    +0.000 OA
ATOM      4  H   UNL     1       4.953   7.585  18.530  0.00  0.00    +0.000 HD
ENDROOT
BRANCH   1  10
ATOM      5  C   UNL     1       6.612   5.421  18.254  0.00  0.00    +0.000 A 
ATOM      6  C   UNL     1       7.540   4.552  17.666  0.00  0.00    +0.000 A 
ATOM      7  C   UNL     1       7.508   4.267  16.296  0.00  0.00    +0.000 A 
ATOM      8  C   UNL     1       6.512   4.787  15.463  0.00  0.00    +0.000 A 
ATOM      9  C   UNL     1       5.569   5.639  16.071  0.00  0.00    +0.000 A 
ATOM     10  C   UNL     1       5.587   5.947  17.442  0.00  0.00    +0.000 A 
BRANCH   8  11
ATOM     11  C   UNL     1       6.404   4.435  14.028  0.00  0.00    +0.000 A 
ATOM     12  C   UNL     1       5.350   3.632  13.542  0.00  0.00    +0.000 A 
ATOM     13  C   UNL     1       5.271   3.256  12.196  0.00  0.00    +0.000 A 
ATOM     14  C   UNL     1       6.239   3.680  11.294  0.00  0.00    +0.000 A 
ATOM     15  C   UNL     1       7.284   4.482  11.738  0.00  0.00    +0.000 A 
ATOM     16  C   UNL     1       7.362   4.844  13.083  0.00  0.00    +0.000 A 
ATOM     17  F   UNL     1       8.417   5.587  13.457  0.00  0.00    +0.000 F 
ENDBRANCH   8  11
BRANCH   5  18
ATOM     18  N   UNL     1       6.600   5.526  19.660  0.00  0.00    +0.000 N 
ATOM     19  H   UNL     1       6.793   4.644  20.127  0.00  0.00    +0.000 HD
ATOM     20  H   UNL     1       7.141   6.280  20.055  0.00  0.00    +0.000 HD
ENDBRANCH   5  18
ENDBRANCH   1  10
BRANCH   2  21
ATOM     21  C   UNL     1       2.414   7.605  18.672  0.00  0.00    +0.000 A 
ATOM     22  C   UNL     1       1.866   8.627  17.889  0.00  0.00    +0.000 A 
ATOM     23  C   UNL     1       1.050   9.596  18.488  0.00  0.00    +0.000 A 
ATOM     24  C   UNL     1       0.765   9.539  19.861  0.00  0.00    +0.000 A 
ATOM     25  C   UNL     1       1.248   8.461  20.607  0.00  0.00    +0.000 A 
ATOM     26  C   UNL     1       2.094   7.521  20.029  0.00  0.00    +0.000 A 
BRANCH  24  27
ATOM     27  C   UNL     1      -0.161  10.545  20.448  0.00  0.00    +0.000 C 
ATOM     28  O   UNL     1      -0.725  10.233  21.497  0.00  0.00    +0.000 OA
ATOM     29  N   UNL     1      -0.337  11.791  19.846  0.00  0.00    +0.000 N 
ATOM     30  C   UNL     1      -0.967  12.860  20.614  0.00  0.00    +0.000 C 
ATOM     31  C   UNL     1       0.003  14.034  20.726  0.00  0.00    +0.000 C 
ATOM     32  C   UNL     1       0.489  14.538  19.346  0.00  0.00    +0.000 C 
ATOM     33  C   UNL     1       1.608  15.588  19.524  0.00  0.00    +0.000 C 
ATOM     34  C   UNL     1       1.118  16.816  18.783  0.00  0.00    +0.000 C 
ATOM     35  C   UNL     1      -0.385  16.678  18.845  0.00  0.00    +0.000 C 
ATOM     36  N   UNL     1      -0.613  15.243  18.644  0.00  0.00    +0.000 NA
ATOM     37  C   UNL     1       0.986  13.350  18.490  0.00  0.00    +0.000 C 
ATOM     38  C   UNL     1      -0.003  12.181  18.476  0.00  0.00    +0.000 C 
ATOM     39  H   UNL     1      -0.547  15.061  17.642  0.00  0.00    +0.000 HD
ENDBRANCH  24  27
ENDBRANCH   2  21
TORSDOF 5
ENDMDL
