MODEL 1
REMARK VINA RESULT:      -7.2      0.000      0.000
REMARK  Name = 
REMARK  9 active torsions:
REMARK  status: ('A' for Active; 'I' for Inactive)
REMARK    1  A    between atoms: C_1  and  O_2
REMARK    2  A    between atoms: O_2  and  C_3
REMARK    3  A    between atoms: C_6  and  O_7
REMARK    4  A    between atoms: O_7  and  C_8
REMARK    5  A    between atoms: C_11  and  O_12
REMARK    6  A    between atoms: O_12  and  C_13
REMARK    7  A    between atoms: C_19  and  C_20
REMARK    8  A    between atoms: C_24  and  C_25
REMARK    9  A    between atoms: C_25  and  O_27
REMARK                            x       y       z     vdW  Elec       q    Type
REMARK                         _______ _______ _______ _____ _____    ______ ____
ROOT
ATOM      1  C   UNL     1      -5.396  12.647  18.722  0.00  0.00    +0.000 A 
ATOM      2  C   UNL     1      -5.576  12.140  17.440  0.00  0.00    +0.000 A 
ATOM      3  C   UNL     1      -4.620  11.325  16.872  0.00  0.00    +0.000 A 
ATOM      4  C   UNL     1      -3.434  11.028  17.547  0.00  0.00    +0.000 A 
ATOM      5  C   UNL     1      -3.172  11.567  18.856  0.00  0.00    +0.000 A 
ATOM      6  C   UNL     1      -4.191  12.392  19.459  0.00  0.00    +0.000 A 
ATOM      7  C   UNL     1      -3.954  12.934  20.769  0.00  0.00    +0.000 A 
ATOM      8  C   UNL     1      -2.767  12.696  21.452  0.00  0.00    +0.000 A 
ATOM      9  C   UNL     1      -1.781  11.923  20.866  0.00  0.00    +0.000 A 
ATOM     10  C   UNL     1      -0.539  11.703  21.617  0.00  0.00    +0.000 A 
ATOM     11  O   UNL     1      -0.319  12.223  22.703  0.00  0.00    +0.000 OA
ATOM     12  C   UNL     1       0.442  10.808  21.010  0.00  0.00    +0.000 A 
ATOM     13  C   UNL     1       0.197  10.303  19.798  0.00  0.00    +0.000 A 
ATOM     14  O   UNL     1      -0.961  10.561  19.062  0.00  0.00    +0.000 OA
ATOM     15  C   UNL     1      -1.962  11.350  19.605  0.00  0.00    +0.000 A 
ENDROOT
BRANCH  13  16
ATOM     16  C   UNL     1       1.146   9.359  19.164  0.00  0.00    +0.000 A 
ATOM     17  C   UNL     1       1.700   9.564  17.896  0.00  0.00    +0.000 A 
ATOM     18  N   UNL     1       2.593   8.738  17.297  0.00  0.00    +0.000 NA
ATOM     19  C   UNL     1       2.953   7.630  17.985  0.00  0.00    +0.000 A 
ATOM     20  C   UNL     1       2.468   7.324  19.249  0.00  0.00    +0.000 A 
ATOM     21  C   UNL     1       1.541   8.193  19.834  0.00  0.00    +0.000 A 
BRANCH  20  22
ATOM     22  C   UNL     1       2.925   6.075  19.885  0.00  0.00    +0.000 C 
ATOM     23  O   UNL     1       3.889   5.450  19.481  0.00  0.00    +0.000 OA
BRANCH  22  24
ATOM     24  O   UNL     1       2.207   5.704  20.965  0.00  0.00    +0.000 OA
ATOM     25  H   UNL     1       2.112   6.372  21.669  0.00  0.00    +0.000 HD
ENDBRANCH  22  24
ENDBRANCH  20  22
ENDBRANCH  13  16
BRANCH   1  27
ATOM     26  C   UNL     1      -7.673  13.431  18.736  0.00  0.00    +0.000 C 
ATOM     27  O   UNL     1      -6.371  13.419  19.312  0.00  0.00    +0.000 OA
ENDBRANCH   1  27
BRANCH   4  28
ATOM     28  O   UNL     1      -2.499  10.186  16.975  0.00  0.00    +0.000 OA
ATOM     29  C   UNL     1      -2.668   9.894  15.584  0.00  0.00    +0.000 C 
ENDBRANCH   4  28
BRANCH   7  30
ATOM     30  O   UNL     1      -4.964  13.656  21.365  0.00  0.00    +0.000 OA
ATOM     31  C   UNL     1      -5.278  13.361  22.721  0.00  0.00    +0.000 C 
ENDBRANCH   7  30
TORSDOF 6
ENDMDL
MODEL 2
REMARK VINA RESULT:      -6.4      3.342      3.625
REMARK  Name = 
REMARK  9 active torsions:
REMARK  status: ('A' for Active; 'I' for Inactive)
REMARK    1  A    between atoms: C_1  and  O_2
REMARK    2  A    between atoms: O_2  and  C_3
REMARK    3  A    between atoms: C_6  and  O_7
REMARK    4  A    between atoms: O_7  and  C_8
REMARK    5  A    between atoms: C_11  and  O_12
REMARK    6  A    between atoms: O_12  and  C_13
REMARK    7  A    between atoms: C_19  and  C_20
REMARK    8  A    between atoms: C_24  and  C_25
REMARK    9  A    between atoms: C_25  and  O_27
REMARK                            x       y       z     vdW  Elec       q    Type
REMARK                         _______ _______ _______ _____ _____    ______ ____
ROOT
ATOM      1  C   UNL     1      -1.233  15.223  20.803  0.00  0.00    +0.000 A 
ATOM      2  C   UNL     1      -0.669  15.715  19.632  0.00  0.00    +0.000 A 
ATOM      3  C   UNL     1       0.068  14.888  18.812  0.00  0.00    +0.000 A 
ATOM      4  C   UNL     1       0.304  13.555  19.157  0.00  0.00    +0.000 A 
ATOM      5  C   UNL     1      -0.213  13.006  20.383  0.00  0.00    +0.000 A 
ATOM      6  C   UNL     1      -1.012  13.867  21.222  0.00  0.00    +0.000 A 
ATOM      7  C   UNL     1      -1.545  13.337  22.446  0.00  0.00    +0.000 A 
ATOM      8  C   UNL     1      -1.294  12.029  22.844  0.00  0.00    +0.000 A 
ATOM      9  C   UNL     1      -0.511  11.208  22.051  0.00  0.00    +0.000 A 
ATOM     10  C   UNL     1      -0.264   9.836  22.512  0.00  0.00    +0.000 A 
ATOM     11  O   UNL     1      -0.667   9.415  23.588  0.00  0.00    +0.000 OA
ATOM     12  C   UNL     1       0.489   8.970  21.608  0.00  0.00    +0.000 A 
ATOM     13  C   UNL     1       0.964   9.478  20.468  0.00  0.00    +0.000 A 
ATOM     14  O   UNL     1       0.774  10.800  20.060  0.00  0.00    +0.000 OA
ATOM     15  C   UNL     1       0.015  11.660  20.838  0.00  0.00    +0.000 A 
ENDROOT
BRANCH  13  16
ATOM     16  C   UNL     1       1.696   8.624  19.505  0.00  0.00    +0.000 A 
ATOM     17  C   UNL     1       1.934   8.995  18.177  0.00  0.00    +0.000 A 
ATOM     18  N   UNL     1       2.625   8.253  17.276  0.00  0.00    +0.000 NA
ATOM     19  C   UNL     1       3.099   7.061  17.707  0.00  0.00    +0.000 A 
ATOM     20  C   UNL     1       2.924   6.591  19.000  0.00  0.00    +0.000 A 
ATOM     21  C   UNL     1       2.198   7.377  19.902  0.00  0.00    +0.000 A 
BRANCH  20  22
ATOM     22  C   UNL     1       3.475   5.266  19.339  0.00  0.00    +0.000 C 
ATOM     23  O   UNL     1       2.773   4.340  19.703  0.00  0.00    +0.000 OA
BRANCH  22  24
ATOM     24  O   UNL     1       4.810   5.159  19.180  0.00  0.00    +0.000 OA
ATOM     25  H   UNL     1       5.150   5.310  18.279  0.00  0.00    +0.000 HD
ENDBRANCH  22  24
ENDBRANCH  20  22
ENDBRANCH  13  16
BRANCH   1  27
ATOM     26  C   UNL     1      -1.582  17.368  21.839  0.00  0.00    +0.000 C 
ATOM     27  O   UNL     1      -2.011  16.033  21.599  0.00  0.00    +0.000 OA
ENDBRANCH   1  27
BRANCH   4  28
ATOM     28  O   UNL     1       1.020  12.732  18.309  0.00  0.00    +0.000 OA
ATOM     29  C   UNL     1       2.403  13.052  18.126  0.00  0.00    +0.000 C 
ENDBRANCH   4  28
BRANCH   7  30
ATOM     30  O   UNL     1      -2.367  14.145  23.199  0.00  0.00    +0.000 OA
ATOM     31  C   UNL     1      -3.437  13.526  23.906  0.00  0.00    +0.000 C 
ENDBRANCH   7  30
TORSDOF 6
ENDMDL
MODEL 3
REMARK VINA RESULT:      -6.4      1.020      1.111
REMARK  Name = 
REMARK  9 active torsions:
REMARK  status: ('A' for Active; 'I' for Inactive)
REMARK    1  A    between atoms: C_1  and  O_2
REMARK    2  A    between atoms: O_2  and  C_3
REMARK    3  A    between atoms: C_6  and  O_7
REMARK    4  A    between atoms: O_7  and  C_8
REMARK    5  A    between atoms: C_11  and  O_12
REMARK    6  A    between atoms: O_12  and  C_13
REMARK    7  A    between atoms: C_19  and  C_20
REMARK    8  A    between atoms: C_24  and  C_25
REMARK    9  A    between atoms: C_25  and  O_27
REMARK                            x       y       z     vdW  Elec       q    Type
REMARK                         _______ _______ _______ _____ _____    ______ ____
ROOT
ATOM      1  C   UNL     1      -5.721  13.334  19.773  0.00  0.00    +0.000 A 
ATOM      2  C   UNL     1      -6.039  12.839  18.514  0.00  0.00    +0.000 A 
ATOM      3  C   UNL     1      -5.147  12.040  17.833  0.00  0.00    +0.000 A 
ATOM      4  C   UNL     1      -3.890  11.747  18.366  0.00  0.00    +0.000 A 
ATOM      5  C   UNL     1      -3.486  12.274  19.644  0.00  0.00    +0.000 A 
ATOM      6  C   UNL     1      -4.438  13.083  20.367  0.00  0.00    +0.000 A 
ATOM      7  C   UNL     1      -4.060  13.613  21.649  0.00  0.00    +0.000 A 
ATOM      8  C   UNL     1      -2.801  13.379  22.191  0.00  0.00    +0.000 A 
ATOM      9  C   UNL     1      -1.880  12.621  21.488  0.00  0.00    +0.000 A 
ATOM     10  C   UNL     1      -0.560  12.406  22.092  0.00  0.00    +0.000 A 
ATOM     11  O   UNL     1      -0.224  12.916  23.153  0.00  0.00    +0.000 OA
ATOM     12  C   UNL     1       0.354  11.527  21.367  0.00  0.00    +0.000 A 
ATOM     13  C   UNL     1      -0.022  11.032  20.185  0.00  0.00    +0.000 A 
ATOM     14  O   UNL     1      -1.258  11.287  19.587  0.00  0.00    +0.000 OA
ATOM     15  C   UNL     1      -2.198  12.060  20.248  0.00  0.00    +0.000 A 
ENDROOT
BRANCH  13  16
ATOM     16  C   UNL     1       0.857  10.105  19.437  0.00  0.00    +0.000 A 
ATOM     17  C   UNL     1       1.443  10.427  18.207  0.00  0.00    +0.000 A 
ATOM     18  N   UNL     1       2.275   9.615  17.509  0.00  0.00    +0.000 NA
ATOM     19  C   UNL     1       2.536   8.403  18.049  0.00  0.00    +0.000 A 
ATOM     20  C   UNL     1       2.011   7.976  19.260  0.00  0.00    +0.000 A 
ATOM     21  C   UNL     1       1.148   8.834  19.951  0.00  0.00    +0.000 A 
BRANCH  20  22
ATOM     22  C   UNL     1       2.358   6.623  19.730  0.00  0.00    +0.000 C 
ATOM     23  O   UNL     1       2.863   5.786  19.002  0.00  0.00    +0.000 OA
BRANCH  22  24
ATOM     24  O   UNL     1       2.101   6.401  21.036  0.00  0.00    +0.000 OA
ATOM     25  H   UNL     1       2.749   5.852  21.516  0.00  0.00    +0.000 HD
ENDBRANCH  22  24
ENDBRANCH  20  22
ENDBRANCH  13  16
BRANCH   1  27
ATOM     26  C   UNL     1      -7.714  14.684  19.774  0.00  0.00    +0.000 C 
ATOM     27  O   UNL     1      -6.630  14.090  20.479  0.00  0.00    +0.000 OA
ENDBRANCH   1  27
BRANCH   4  28
ATOM     28  O   UNL     1      -3.018  10.921  17.682  0.00  0.00    +0.000 OA
ATOM     29  C   UNL     1      -3.562  10.191  16.578  0.00  0.00    +0.000 C 
ENDBRANCH   4  28
BRANCH   7  30
ATOM     30  O   UNL     1      -5.002  14.318  22.363  0.00  0.00    +0.000 OA
ATOM     31  C   UNL     1      -4.575  14.981  23.548  0.00  0.00    +0.000 C 
ENDBRANCH   7  30
TORSDOF 6
ENDMDL
MODEL 4
REMARK VINA RESULT:      -6.3      1.665      2.373
REMARK  Name = 
REMARK  9 active torsions:
REMARK  status: ('A' for Active; 'I' for Inactive)
REMARK    1  A    between atoms: C_1  and  O_2
REMARK    2  A    between atoms: O_2  and  C_3
REMARK    3  A    between atoms: C_6  and  O_7
REMARK    4  A    between atoms: O_7  and  C_8
REMARK    5  A    between atoms: C_11  and  O_12
REMARK    6  A    between atoms: O_12  and  C_13
REMARK    7  A    between atoms: C_19  and  C_20
REMARK    8  A    between atoms: C_24  and  C_25
REMARK    9  A    between atoms: C_25  and  O_27
REMARK                            x       y       z     vdW  Elec       q    Type
REMARK                         _______ _______ _______ _____ _____    ______ ____
ROOT
ATOM      1  C   UNL     1      -3.410  12.825  20.464  0.00  0.00    +0.000 A 
ATOM      2  C   UNL     1      -3.593  12.837  19.086  0.00  0.00    +0.000 A 
ATOM      3  C   UNL     1      -2.854  11.999  18.278  0.00  0.00    +0.000 A 
ATOM      4  C   UNL     1      -1.878  11.156  18.814  0.00  0.00    +0.000 A 
ATOM      5  C   UNL     1      -1.611  11.140  20.229  0.00  0.00    +0.000 A 
ATOM      6  C   UNL     1      -2.409  11.995  21.074  0.00  0.00    +0.000 A 
ATOM      7  C   UNL     1      -2.165  11.988  22.490  0.00  0.00    +0.000 A 
ATOM      8  C   UNL     1      -1.172  11.196  23.054  0.00  0.00    +0.000 A 
ATOM      9  C   UNL     1      -0.391  10.391  22.242  0.00  0.00    +0.000 A 
ATOM     10  C   UNL     1       0.652   9.577  22.877  0.00  0.00    +0.000 A 
ATOM     11  O   UNL     1       0.897   9.628  24.075  0.00  0.00    +0.000 OA
ATOM     12  C   UNL     1       1.395   8.672  22.004  0.00  0.00    +0.000 A 
ATOM     13  C   UNL     1       1.143   8.682  20.693  0.00  0.00    +0.000 A 
ATOM     14  O   UNL     1       0.189   9.501  20.086  0.00  0.00    +0.000 OA
ATOM     15  C   UNL     1      -0.597  10.338  20.861  0.00  0.00    +0.000 A 
ENDROOT
BRANCH  13  16
ATOM     16  C   UNL     1       1.845   7.752  19.779  0.00  0.00    +0.000 A 
ATOM     17  C   UNL     1       2.333   8.132  18.523  0.00  0.00    +0.000 A 
ATOM     18  N   UNL     1       3.004   7.317  17.674  0.00  0.00    +0.000 NA
ATOM     19  C   UNL     1       3.195   6.040  18.079  0.00  0.00    +0.000 A 
ATOM     20  C   UNL     1       2.755   5.552  19.301  0.00  0.00    +0.000 A 
ATOM     21  C   UNL     1       2.056   6.418  20.151  0.00  0.00    +0.000 A 
BRANCH  20  22
ATOM     22  C   UNL     1       3.009   4.135  19.616  0.00  0.00    +0.000 C 
ATOM     23  O   UNL     1       2.110   3.344  19.842  0.00  0.00    +0.000 OA
BRANCH  22  24
ATOM     24  O   UNL     1       4.311   3.784  19.602  0.00  0.00    +0.000 OA
ATOM     25  H   UNL     1       4.659   3.383  20.420  0.00  0.00    +0.000 HD
ENDBRANCH  22  24
ENDBRANCH  20  22
ENDBRANCH  13  16
BRANCH   1  27
ATOM     26  C   UNL     1      -5.590  13.630  21.090  0.00  0.00    +0.000 C 
ATOM     27  O   UNL     1      -4.180  13.624  21.279  0.00  0.00    +0.000 OA
ENDBRANCH   1  27
BRANCH   4  28
ATOM     28  O   UNL     1      -1.167  10.302  17.993  0.00  0.00    +0.000 OA
ATOM     29  C   UNL     1      -1.848   9.819  16.830  0.00  0.00    +0.000 C 
ENDBRANCH   4  28
BRANCH   7  30
ATOM     30  O   UNL     1      -2.984  12.750  23.293  0.00  0.00    +0.000 OA
ATOM     31  C   UNL     1      -3.808  12.070  24.233  0.00  0.00    +0.000 C 
ENDBRANCH   7  30
TORSDOF 6
ENDMDL
MODEL 5
REMARK VINA RESULT:      -6.2      3.193      8.416
REMARK  Name = 
REMARK  9 active torsions:
REMARK  status: ('A' for Active; 'I' for Inactive)
REMARK    1  A    between atoms: C_1  and  O_2
REMARK    2  A    between atoms: O_2  and  C_3
REMARK    3  A    between atoms: C_6  and  O_7
REMARK    4  A    between atoms: O_7  and  C_8
REMARK    5  A    between atoms: C_11  and  O_12
REMARK    6  A    between atoms: O_12  and  C_13
REMARK    7  A    between atoms: C_19  and  C_20
REMARK    8  A    between atoms: C_24  and  C_25
REMARK    9  A    between atoms: C_25  and  O_27
REMARK                            x       y       z     vdW  Elec       q    Type
REMARK                         _______ _______ _______ _____ _____    ______ ____
ROOT
ATOM      1  C   UNL     1      -0.143  10.482  18.705  0.00  0.00    +0.000 A 
ATOM      2  C   UNL     1       0.723  10.880  19.716  0.00  0.00    +0.000 A 
ATOM      3  C   UNL     1       0.275  11.685  20.741  0.00  0.00    +0.000 A 
ATOM      4  C   UNL     1      -1.040  12.156  20.765  0.00  0.00    +0.000 A 
ATOM      5  C   UNL     1      -1.967  11.818  19.717  0.00  0.00    +0.000 A 
ATOM      6  C   UNL     1      -1.501  10.947  18.664  0.00  0.00    +0.000 A 
ATOM      7  C   UNL     1      -2.412  10.590  17.611  0.00  0.00    +0.000 A 
ATOM      8  C   UNL     1      -3.714  11.075  17.579  0.00  0.00    +0.000 A 
ATOM      9  C   UNL     1      -4.155  11.927  18.577  0.00  0.00    +0.000 A 
ATOM     10  C   UNL     1      -5.534  12.424  18.500  0.00  0.00    +0.000 A 
ATOM     11  O   UNL     1      -6.281  12.167  17.565  0.00  0.00    +0.000 OA
ATOM     12  C   UNL     1      -5.995  13.245  19.615  0.00  0.00    +0.000 A 
ATOM     13  C   UNL     1      -5.137  13.555  20.591  0.00  0.00    +0.000 A 
ATOM     14  O   UNL     1      -3.809  13.127  20.631  0.00  0.00    +0.000 OA
ATOM     15  C   UNL     1      -3.323  12.292  19.638  0.00  0.00    +0.000 A 
ENDROOT
BRANCH  13  16
ATOM     16  C   UNL     1      -5.575  14.351  21.761  0.00  0.00    +0.000 A 
ATOM     17  C   UNL     1      -6.908  14.709  21.991  0.00  0.00    +0.000 A 
ATOM     18  N   UNL     1      -7.348  15.410  23.064  0.00  0.00    +0.000 NA
ATOM     19  C   UNL     1      -6.414  15.798  23.962  0.00  0.00    +0.000 A 
ATOM     20  C   UNL     1      -5.064  15.501  23.838  0.00  0.00    +0.000 A 
ATOM     21  C   UNL     1      -4.642  14.783  22.713  0.00  0.00    +0.000 A 
BRANCH  20  22
ATOM     22  C   UNL     1      -4.144  15.999  24.877  0.00  0.00    +0.000 C 
ATOM     23  O   UNL     1      -4.069  17.178  25.173  0.00  0.00    +0.000 OA
BRANCH  22  24
ATOM     24  O   UNL     1      -3.422  15.038  25.489  0.00  0.00    +0.000 OA
ATOM     25  H   UNL     1      -2.512  14.909  25.162  0.00  0.00    +0.000 HD
ENDBRANCH  22  24
ENDBRANCH  20  22
ENDBRANCH  13  16
BRANCH   1  27
ATOM     26  C   UNL     1       1.584   9.062  17.814  0.00  0.00    +0.000 C 
ATOM     27  O   UNL     1       0.287   9.637  17.707  0.00  0.00    +0.000 OA
ENDBRANCH   1  27
BRANCH   4  28
ATOM     28  O   UNL     1      -1.481  12.939  21.815  0.00  0.00    +0.000 OA
ATOM     29  C   UNL     1      -1.550  12.308  23.098  0.00  0.00    +0.000 C 
ENDBRANCH   4  28
BRANCH   7  30
ATOM     30  O   UNL     1      -1.980   9.699  16.655  0.00  0.00    +0.000 OA
ATOM     31  C   UNL     1      -2.673   9.674  15.412  0.00  0.00    +0.000 C 
ENDBRANCH   7  30
TORSDOF 6
ENDMDL
MODEL 6
REMARK VINA RESULT:      -6.1      1.947      2.757
REMARK  Name = 
REMARK  9 active torsions:
REMARK  status: ('A' for Active; 'I' for Inactive)
REMARK    1  A    between atoms: C_1  and  O_2
REMARK    2  A    between atoms: O_2  and  C_3
REMARK    3  A    between atoms: C_6  and  O_7
REMARK    4  A    between atoms: O_7  and  C_8
REMARK    5  A    between atoms: C_11  and  O_12
REMARK    6  A    between atoms: O_12  and  C_13
REMARK    7  A    between atoms: C_19  and  C_20
REMARK    8  A    between atoms: C_24  and  C_25
REMARK    9  A    between atoms: C_25  and  O_27
REMARK                            x       y       z     vdW  Elec       q    Type
REMARK                         _______ _______ _______ _____ _____    ______ ____
ROOT
ATOM      1  C   UNL     1      -6.532  13.760  19.048  0.00  0.00    +0.000 A 
ATOM      2  C   UNL     1      -6.510  13.060  17.848  0.00  0.00    +0.000 A 
ATOM      3  C   UNL     1      -5.501  12.158  17.585  0.00  0.00    +0.000 A 
ATOM      4  C   UNL     1      -4.458  11.960  18.493  0.00  0.00    +0.000 A 
ATOM      5  C   UNL     1      -4.403  12.696  19.729  0.00  0.00    +0.000 A 
ATOM      6  C   UNL     1      -5.479  13.614  20.013  0.00  0.00    +0.000 A 
ATOM      7  C   UNL     1      -5.448  14.353  21.246  0.00  0.00    +0.000 A 
ATOM      8  C   UNL     1      -4.403  14.214  22.152  0.00  0.00    +0.000 A 
ATOM      9  C   UNL     1      -3.360  13.349  21.870  0.00  0.00    +0.000 A 
ATOM     10  C   UNL     1      -2.272  13.240  22.850  0.00  0.00    +0.000 A 
ATOM     11  O   UNL     1      -2.221  13.922  23.865  0.00  0.00    +0.000 OA
ATOM     12  C   UNL     1      -1.235  12.252  22.566  0.00  0.00    +0.000 A 
ATOM     13  C   UNL     1      -1.289  11.565  21.421  0.00  0.00    +0.000 A 
ATOM     14  O   UNL     1      -2.296  11.714  20.466  0.00  0.00    +0.000 OA
ATOM     15  C   UNL     1      -3.346  12.587  20.700  0.00  0.00    +0.000 A 
ENDROOT
BRANCH  13  16
ATOM     16  C   UNL     1      -0.281  10.525  21.113  0.00  0.00    +0.000 A 
ATOM     17  C   UNL     1       0.235   9.647  22.073  0.00  0.00    +0.000 A 
ATOM     18  N   UNL     1       1.136   8.666  21.821  0.00  0.00    +0.000 NA
ATOM     19  C   UNL     1       1.569   8.550  20.545  0.00  0.00    +0.000 A 
ATOM     20  C   UNL     1       1.128   9.364  19.511  0.00  0.00    +0.000 A 
ATOM     21  C   UNL     1       0.205  10.374  19.807  0.00  0.00    +0.000 A 
BRANCH  20  22
ATOM     22  C   UNL     1       1.692   9.148  18.167  0.00  0.00    +0.000 C 
ATOM     23  O   UNL     1       1.982   8.041  17.750  0.00  0.00    +0.000 OA
BRANCH  22  24
ATOM     24  O   UNL     1       1.828  10.270  17.431  0.00  0.00    +0.000 OA
ATOM     25  H   UNL     1       2.702  10.414  17.023  0.00  0.00    +0.000 HD
ENDBRANCH  22  24
ENDBRANCH  20  22
ENDBRANCH  13  16
BRANCH   1  27
ATOM     26  C   UNL     1      -7.816  15.705  18.445  0.00  0.00    +0.000 C 
ATOM     27  O   UNL     1      -7.565  14.625  19.336  0.00  0.00    +0.000 OA
ENDBRANCH   1  27
BRANCH   4  28
ATOM     28  O   UNL     1      -3.470  11.031  18.227  0.00  0.00    +0.000 OA
ATOM     29  C   UNL     1      -3.734  10.102  17.170  0.00  0.00    +0.000 C 
ENDBRANCH   4  28
BRANCH   7  30
ATOM     30  O   UNL     1      -6.518  15.168  21.540  0.00  0.00    +0.000 OA
ATOM     31  C   UNL     1      -7.145  15.006  22.807  0.00  0.00    +0.000 C 
ENDBRANCH   7  30
TORSDOF 6
ENDMDL
MODEL 7
REMARK VINA RESULT:      -6.1      3.895      5.061
REMARK  Name = 
REMARK  9 active torsions:
REMARK  status: ('A' for Active; 'I' for Inactive)
REMARK    1  A    between atoms: C_1  and  O_2
REMARK    2  A    between atoms: O_2  and  C_3
REMARK    3  A    between atoms: C_6  and  O_7
REMARK    4  A    between atoms: O_7  and  C_8
REMARK    5  A    between atoms: C_11  and  O_12
REMARK    6  A    between atoms: O_12  and  C_13
REMARK    7  A    between atoms: C_19  and  C_20
REMARK    8  A    between atoms: C_24  and  C_25
REMARK    9  A    between atoms: C_25  and  O_27
REMARK                            x       y       z     vdW  Elec       q    Type
REMARK                         _______ _______ _______ _____ _____    ______ ____
ROOT
ATOM      1  C   UNL     1      -6.398  11.235  19.828  0.00  0.00    +0.000 A 
ATOM      2  C   UNL     1      -6.255  10.755  18.531  0.00  0.00    +0.000 A 
ATOM      3  C   UNL     1      -5.083  10.960  17.837  0.00  0.00    +0.000 A 
ATOM      4  C   UNL     1      -4.032  11.690  18.397  0.00  0.00    +0.000 A 
ATOM      5  C   UNL     1      -4.144  12.254  19.717  0.00  0.00    +0.000 A 
ATOM      6  C   UNL     1      -5.362  12.008  20.452  0.00  0.00    +0.000 A 
ATOM      7  C   UNL     1      -5.492  12.555  21.774  0.00  0.00    +0.000 A 
ATOM      8  C   UNL     1      -4.485  13.324  22.347  0.00  0.00    +0.000 A 
ATOM      9  C   UNL     1      -3.326  13.578  21.635  0.00  0.00    +0.000 A 
ATOM     10  C   UNL     1      -2.292  14.402  22.273  0.00  0.00    +0.000 A 
ATOM     11  O   UNL     1      -2.439  14.918  23.373  0.00  0.00    +0.000 OA
ATOM     12  C   UNL     1      -1.045  14.574  21.531  0.00  0.00    +0.000 A 
ATOM     13  C   UNL     1      -0.938  14.046  20.309  0.00  0.00    +0.000 A 
ATOM     14  O   UNL     1      -1.947  13.311  19.683  0.00  0.00    +0.000 OA
ATOM     15  C   UNL     1      -3.132  13.055  20.354  0.00  0.00    +0.000 A 
ENDROOT
BRANCH  13  16
ATOM     16  C   UNL     1       0.322  14.162  19.541  0.00  0.00    +0.000 A 
ATOM     17  C   UNL     1       0.955  13.071  18.935  0.00  0.00    +0.000 A 
ATOM     18  N   UNL     1       2.092  13.144  18.200  0.00  0.00    +0.000 NA
ATOM     19  C   UNL     1       2.651  14.369  18.065  0.00  0.00    +0.000 A 
ATOM     20  C   UNL     1       2.113  15.520  18.621  0.00  0.00    +0.000 A 
ATOM     21  C   UNL     1       0.943  15.408  19.382  0.00  0.00    +0.000 A 
BRANCH  20  22
ATOM     22  C   UNL     1       2.829  16.792  18.417  0.00  0.00    +0.000 C 
ATOM     23  O   UNL     1       3.348  17.087  17.354  0.00  0.00    +0.000 OA
BRANCH  22  24
ATOM     24  O   UNL     1       2.833  17.610  19.489  0.00  0.00    +0.000 OA
ATOM     25  H   UNL     1       3.517  17.434  20.163  0.00  0.00    +0.000 HD
ENDBRANCH  22  24
ENDBRANCH  20  22
ENDBRANCH  13  16
BRANCH   1  27
ATOM     26  C   UNL     1      -7.916   9.638  20.797  0.00  0.00    +0.000 C 
ATOM     27  O   UNL     1      -7.549  10.989  20.543  0.00  0.00    +0.000 OA
ENDBRANCH   1  27
BRANCH   4  28
ATOM     28  O   UNL     1      -2.852  11.862  17.698  0.00  0.00    +0.000 OA
ATOM     29  C   UNL     1      -2.154  10.671  17.321  0.00  0.00    +0.000 C 
ENDBRANCH   4  28
BRANCH   7  30
ATOM     30  O   UNL     1      -6.625  12.250  22.494  0.00  0.00    +0.000 OA
ATOM     31  C   UNL     1      -7.251  13.301  23.221  0.00  0.00    +0.000 C 
ENDBRANCH   7  30
TORSDOF 6
ENDMDL
MODEL 8
REMARK VINA RESULT:      -6.0      3.783      4.895
REMARK  Name = 
REMARK  9 active torsions:
REMARK  status: ('A' for Active; 'I' for Inactive)
REMARK    1  A    between atoms: C_1  and  O_2
REMARK    2  A    between atoms: O_2  and  C_3
REMARK    3  A    between atoms: C_6  and  O_7
REMARK    4  A    between atoms: O_7  and  C_8
REMARK    5  A    between atoms: C_11  and  O_12
REMARK    6  A    between atoms: O_12  and  C_13
REMARK    7  A    between atoms: C_19  and  C_20
REMARK    8  A    between atoms: C_24  and  C_25
REMARK    9  A    between atoms: C_25  and  O_27
REMARK                            x       y       z     vdW  Elec       q    Type
REMARK                         _______ _______ _______ _____ _____    ______ ____
ROOT
ATOM      1  C   UNL     1      -1.086  13.723  22.031  0.00  0.00    +0.000 A 
ATOM      2  C   UNL     1      -1.747  13.000  23.017  0.00  0.00    +0.000 A 
ATOM      3  C   UNL     1      -1.578  11.635  23.113  0.00  0.00    +0.000 A 
ATOM      4  C   UNL     1      -0.781  10.943  22.199  0.00  0.00    +0.000 A 
ATOM      5  C   UNL     1      -0.113  11.633  21.126  0.00  0.00    +0.000 A 
ATOM      6  C   UNL     1      -0.267  13.066  21.051  0.00  0.00    +0.000 A 
ATOM      7  C   UNL     1       0.397  13.777  19.994  0.00  0.00    +0.000 A 
ATOM      8  C   UNL     1       1.162  13.116  19.040  0.00  0.00    +0.000 A 
ATOM      9  C   UNL     1       1.293  11.739  19.099  0.00  0.00    +0.000 A 
ATOM     10  C   UNL     1       2.103  11.079  18.067  0.00  0.00    +0.000 A 
ATOM     11  O   UNL     1       2.610  11.686  17.132  0.00  0.00    +0.000 OA
ATOM     12  C   UNL     1       2.296   9.639  18.211  0.00  0.00    +0.000 A 
ATOM     13  C   UNL     1       1.682   8.999  19.210  0.00  0.00    +0.000 A 
ATOM     14  O   UNL     1       0.866   9.622  20.155  0.00  0.00    +0.000 OA
ATOM     15  C   UNL     1       0.691  10.997  20.117  0.00  0.00    +0.000 A 
ENDROOT
BRANCH  13  16
ATOM     16  C   UNL     1       1.883   7.546  19.416  0.00  0.00    +0.000 A 
ATOM     17  C   UNL     1       1.644   6.904  20.636  0.00  0.00    +0.000 A 
ATOM     18  N   UNL     1       1.789   5.573  20.853  0.00  0.00    +0.000 NA
ATOM     19  C   UNL     1       2.212   4.829  19.806  0.00  0.00    +0.000 A 
ATOM     20  C   UNL     1       2.480   5.357  18.551  0.00  0.00    +0.000 A 
ATOM     21  C   UNL     1       2.330   6.736  18.363  0.00  0.00    +0.000 A 
BRANCH  20  22
ATOM     22  C   UNL     1       2.954   4.441  17.498  0.00  0.00    +0.000 C 
ATOM     23  O   UNL     1       4.079   4.501  17.036  0.00  0.00    +0.000 OA
BRANCH  22  24
ATOM     24  O   UNL     1       2.050   3.516  17.114  0.00  0.00    +0.000 OA
ATOM     25  H   UNL     1       1.429   3.785  16.412  0.00  0.00    +0.000 HD
ENDBRANCH  22  24
ENDBRANCH  20  22
ENDBRANCH  13  16
BRANCH   1  27
ATOM     26  C   UNL     1      -1.055  15.850  23.158  0.00  0.00    +0.000 C 
ATOM     27  O   UNL     1      -1.213  15.092  21.964  0.00  0.00    +0.000 OA
ENDBRANCH   1  27
BRANCH   4  28
ATOM     28  O   UNL     1      -0.599   9.578  22.326  0.00  0.00    +0.000 OA
ATOM     29  C   UNL     1       0.175   9.139  23.446  0.00  0.00    +0.000 C 
ENDBRANCH   4  28
BRANCH   7  30
ATOM     30  O   UNL     1       0.305  15.151  19.977  0.00  0.00    +0.000 OA
ATOM     31  C   UNL     1      -0.007  15.779  18.739  0.00  0.00    +0.000 C 
ENDBRANCH   7  30
TORSDOF 6
ENDMDL
MODEL 9
REMARK VINA RESULT:      -6.0      3.217      7.813
REMARK  Name = 
REMARK  9 active torsions:
REMARK  status: ('A' for Active; 'I' for Inactive)
REMARK    1  A    between atoms: C_1  and  O_2
REMARK    2  A    between atoms: O_2  and  C_3
REMARK    3  A    between atoms: C_6  and  O_7
REMARK    4  A    between atoms: O_7  and  C_8
REMARK    5  A    between atoms: C_11  and  O_12
REMARK    6  A    between atoms: O_12  and  C_13
REMARK    7  A    between atoms: C_19  and  C_20
REMARK    8  A    between atoms: C_24  and  C_25
REMARK    9  A    between atoms: C_25  and  O_27
REMARK                            x       y       z     vdW  Elec       q    Type
REMARK                         _______ _______ _______ _____ _____    ______ ____
ROOT
ATOM      1  C   UNL     1      -3.284  10.648  16.985  0.00  0.00    +0.000 A 
ATOM      2  C   UNL     1      -4.596  11.013  16.708  0.00  0.00    +0.000 A 
ATOM      3  C   UNL     1      -5.275  11.868  17.549  0.00  0.00    +0.000 A 
ATOM      4  C   UNL     1      -4.682  12.350  18.718  0.00  0.00    +0.000 A 
ATOM      5  C   UNL     1      -3.343  11.965  19.081  0.00  0.00    +0.000 A 
ATOM      6  C   UNL     1      -2.625  11.096  18.180  0.00  0.00    +0.000 A 
ATOM      7  C   UNL     1      -1.284  10.706  18.519  0.00  0.00    +0.000 A 
ATOM      8  C   UNL     1      -0.678  11.130  19.695  0.00  0.00    +0.000 A 
ATOM      9  C   UNL     1      -1.373  11.946  20.571  0.00  0.00    +0.000 A 
ATOM     10  C   UNL     1      -0.698  12.364  21.806  0.00  0.00    +0.000 A 
ATOM     11  O   UNL     1       0.419  11.973  22.118  0.00  0.00    +0.000 OA
ATOM     12  C   UNL     1      -1.425  13.298  22.662  0.00  0.00    +0.000 A 
ATOM     13  C   UNL     1      -2.665  13.660  22.322  0.00  0.00    +0.000 A 
ATOM     14  O   UNL     1      -3.324  13.214  21.175  0.00  0.00    +0.000 OA
ATOM     15  C   UNL     1      -2.670  12.378  20.285  0.00  0.00    +0.000 A 
ENDROOT
BRANCH  13  16
ATOM     16  C   UNL     1      -3.421  14.636  23.140  0.00  0.00    +0.000 A 
ATOM     17  C   UNL     1      -3.004  15.062  24.406  0.00  0.00    +0.000 A 
ATOM     18  N   UNL     1      -3.654  15.975  25.170  0.00  0.00    +0.000 NA
ATOM     19  C   UNL     1      -4.797  16.490  24.661  0.00  0.00    +0.000 A 
ATOM     20  C   UNL     1      -5.306  16.141  23.418  0.00  0.00    +0.000 A 
ATOM     21  C   UNL     1      -4.615  15.190  22.659  0.00  0.00    +0.000 A 
BRANCH  20  22
ATOM     22  C   UNL     1      -6.572  16.761  22.986  0.00  0.00    +0.000 C 
ATOM     23  O   UNL     1      -6.606  17.743  22.265  0.00  0.00    +0.000 OA
BRANCH  22  24
ATOM     24  O   UNL     1      -7.681  16.134  23.428  0.00  0.00    +0.000 OA
ATOM     25  H   UNL     1      -7.675  15.856  24.363  0.00  0.00    +0.000 HD
ENDBRANCH  22  24
ENDBRANCH  20  22
ENDBRANCH  13  16
BRANCH   1  27
ATOM     26  C   UNL     1      -2.803   9.982  14.722  0.00  0.00    +0.000 C 
ATOM     27  O   UNL     1      -2.586   9.835  16.121  0.00  0.00    +0.000 OA
ENDBRANCH   1  27
BRANCH   4  28
ATOM     28  O   UNL     1      -5.366  13.229  19.536  0.00  0.00    +0.000 OA
ATOM     29  C   UNL     1      -6.648  12.798  20.005  0.00  0.00    +0.000 C 
ENDBRANCH   4  28
BRANCH   7  30
ATOM     30  O   UNL     1      -0.584   9.939  17.615  0.00  0.00    +0.000 OA
ATOM     31  C   UNL     1       0.745   9.561  17.957  0.00  0.00    +0.000 C 
ENDBRANCH   7  30
TORSDOF 6
ENDMDL
