MODEL 1
REMARK VINA RESULT:      -6.4      0.000      0.000
REMARK  Name = 
REMARK  10 active torsions:
REMARK  status: ('A' for Active; 'I' for Inactive)
REMARK    1  A    between atoms: C_1  and  O_2
REMARK    2  A    between atoms: O_2  and  C_3
REMARK    3  A    between atoms: C_5  and  C_6
REMARK    4  A    between atoms: C_6  and  C_7
REMARK    5  A    between atoms: C_7  and  C_8
REMARK    6  A    between atoms: N_13  and  N_14
REMARK    7  A    between atoms: C_16  and  O_17
REMARK    8  A    between atoms: O_17  and  C_18
REMARK    9  A    between atoms: C_19  and  O_20
REMARK   10  A    between atoms: O_20  and  C_21
REMARK                            x       y       z     vdW  Elec       q    Type
REMARK                         _______ _______ _______ _____ _____    ______ ____
ROOT
ATOM      1  C   UNL     1       2.982   5.928  18.420  0.00  0.00    +0.000 A 
ATOM      2  C   UNL     1       4.323   6.303  18.227  0.00  0.00    +0.000 A 
ATOM      3  C   UNL     1       5.372   5.443  18.558  0.00  0.00    +0.000 A 
ATOM      4  C   UNL     1       5.060   4.235  19.176  0.00  0.00    +0.000 A 
ATOM      5  C   UNL     1       3.730   3.869  19.455  0.00  0.00    +0.000 A 
ATOM      6  C   UNL     1       2.666   4.713  19.069  0.00  0.00    +0.000 A 
ENDROOT
BRANCH   1   8
ATOM      7  C   UNL     1       2.321   8.141  17.877  0.00  0.00    +0.000 C 
ATOM      8  O   UNL     1       1.974   6.761  18.003  0.00  0.00    +0.000 OA
ENDBRANCH   1   8
BRANCH   5   9
ATOM      9  O   UNL     1       3.678   2.641  20.072  0.00  0.00    +0.000 OA
ATOM     10  C   UNL     1       3.056   2.514  21.341  0.00  0.00    +0.000 C 
ENDBRANCH   5   9
BRANCH   6  11
ATOM     11  O   UNL     1       1.406   4.262  19.361  0.00  0.00    +0.000 OA
ATOM     12  C   UNL     1       0.766   3.307  18.531  0.00  0.00    +0.000 C 
ENDBRANCH   6  11
BRANCH   3  13
ATOM     13  C   UNL     1       6.788   5.751  18.135  0.00  0.00    +0.000 C 
BRANCH  13  14
ATOM     14  C   UNL     1       7.491   4.639  17.360  0.00  0.00    +0.000 C 
BRANCH  14  15
ATOM     15  C   UNL     1       7.213   4.732  15.883  0.00  0.00    +0.000 A 
ATOM     16  N   UNL     1       7.736   5.619  15.077  0.00  0.00    +0.000 NA
ATOM     17  N   UNL     1       7.210   5.319  13.844  0.00  0.00    +0.000 N 
ATOM     18  C   UNL     1       6.361   4.218  13.936  0.00  0.00    +0.000 A 
ATOM     19  S   UNL     1       5.540   3.535  12.670  0.00  0.00    +0.000 S 
ATOM     20  N   UNL     1       6.372   3.864  15.268  0.00  0.00    +0.000 N 
ATOM     21  H   UNL     1       7.457   5.837  13.007  0.00  0.00    +0.000 HD
BRANCH  20  22
ATOM     22  N   UNL     1       5.711   2.785  15.852  0.00  0.00    +0.000 N 
ATOM     23  H   UNL     1       6.318   1.965  15.743  0.00  0.00    +0.000 HD
ATOM     24  H   UNL     1       4.886   2.580  15.285  0.00  0.00    +0.000 HD
ENDBRANCH  20  22
ENDBRANCH  14  15
ENDBRANCH  13  14
ENDBRANCH   3  13
TORSDOF 7
ENDMDL
MODEL 2
REMARK VINA RESULT:      -6.4      1.467      2.679
REMARK  Name = 
REMARK  10 active torsions:
REMARK  status: ('A' for Active; 'I' for Inactive)
REMARK    1  A    between atoms: C_1  and  O_2
REMARK    2  A    between atoms: O_2  and  C_3
REMARK    3  A    between atoms: C_5  and  C_6
REMARK    4  A    between atoms: C_6  and  C_7
REMARK    5  A    between atoms: C_7  and  C_8
REMARK    6  A    between atoms: N_13  and  N_14
REMARK    7  A    between atoms: C_16  and  O_17
REMARK    8  A    between atoms: O_17  and  C_18
REMARK    9  A    between atoms: C_19  and  O_20
REMARK   10  A    between atoms: O_20  and  C_21
REMARK                            x       y       z     vdW  Elec       q    Type
REMARK                         _______ _______ _______ _____ _____    ______ ____
ROOT
ATOM      1  C   UNL     1       2.762   3.671  18.487  0.00  0.00    +0.000 A 
ATOM      2  C   UNL     1       3.854   4.306  17.872  0.00  0.00    +0.000 A 
ATOM      3  C   UNL     1       4.306   5.554  18.302  0.00  0.00    +0.000 A 
ATOM      4  C   UNL     1       3.585   6.204  19.301  0.00  0.00    +0.000 A 
ATOM      5  C   UNL     1       2.438   5.627  19.880  0.00  0.00    +0.000 A 
ATOM      6  C   UNL     1       2.015   4.340  19.483  0.00  0.00    +0.000 A 
ENDROOT
BRANCH   1   8
ATOM      7  C   UNL     1       3.321   1.366  18.429  0.00  0.00    +0.000 C 
ATOM      8  O   UNL     1       2.399   2.405  18.097  0.00  0.00    +0.000 OA
ENDBRANCH   1   8
BRANCH   5   9
ATOM      9  O   UNL     1       1.899   6.459  20.833  0.00  0.00    +0.000 OA
ATOM     10  C   UNL     1       1.580   7.801  20.499  0.00  0.00    +0.000 C 
ENDBRANCH   5   9
BRANCH   6  11
ATOM     11  O   UNL     1       0.904   3.851  20.119  0.00  0.00    +0.000 OA
ATOM     12  C   UNL     1       1.028   2.973  21.226  0.00  0.00    +0.000 C 
ENDBRANCH   6  11
BRANCH   3  13
ATOM     13  C   UNL     1       5.611   6.121  17.800  0.00  0.00    +0.000 C 
BRANCH  13  14
ATOM     14  C   UNL     1       6.673   5.086  17.437  0.00  0.00    +0.000 C 
BRANCH  14  15
ATOM     15  C   UNL     1       6.914   5.036  15.951  0.00  0.00    +0.000 A 
ATOM     16  N   UNL     1       7.629   5.900  15.279  0.00  0.00    +0.000 NA
ATOM     17  N   UNL     1       7.576   5.457  13.979  0.00  0.00    +0.000 N 
ATOM     18  C   UNL     1       6.812   4.295  13.896  0.00  0.00    +0.000 A 
ATOM     19  S   UNL     1       6.514   3.444  12.508  0.00  0.00    +0.000 S 
ATOM     20  N   UNL     1       6.385   4.051  15.184  0.00  0.00    +0.000 N 
ATOM     21  H   UNL     1       8.065   5.928  13.225  0.00  0.00    +0.000 HD
BRANCH  20  22
ATOM     22  N   UNL     1       5.627   2.966  15.622  0.00  0.00    +0.000 N 
ATOM     23  H   UNL     1       6.285   2.229  15.896  0.00  0.00    +0.000 HD
ATOM     24  H   UNL     1       5.127   2.588  14.815  0.00  0.00    +0.000 HD
ENDBRANCH  20  22
ENDBRANCH  14  15
ENDBRANCH  13  14
ENDBRANCH   3  13
TORSDOF 7
ENDMDL
MODEL 3
REMARK VINA RESULT:      -6.4      5.440      7.237
REMARK  Name = 
REMARK  10 active torsions:
REMARK  status: ('A' for Active; 'I' for Inactive)
REMARK    1  A    between atoms: C_1  and  O_2
REMARK    2  A    between atoms: O_2  and  C_3
REMARK    3  A    between atoms: C_5  and  C_6
REMARK    4  A    between atoms: C_6  and  C_7
REMARK    5  A    between atoms: C_7  and  C_8
REMARK    6  A    between atoms: N_13  and  N_14
REMARK    7  A    between atoms: C_16  and  O_17
REMARK    8  A    between atoms: O_17  and  C_18
REMARK    9  A    between atoms: C_19  and  O_20
REMARK   10  A    between atoms: O_20  and  C_21
REMARK                            x       y       z     vdW  Elec       q    Type
REMARK                         _______ _______ _______ _____ _____    ______ ____
ROOT
ATOM      1  C   UNL     1       3.786   4.337  17.374  0.00  0.00    +0.000 A 
ATOM      2  C   UNL     1       2.885   5.231  17.978  0.00  0.00    +0.000 A 
ATOM      3  C   UNL     1       3.120   6.607  17.982  0.00  0.00    +0.000 A 
ATOM      4  C   UNL     1       4.323   7.068  17.452  0.00  0.00    +0.000 A 
ATOM      5  C   UNL     1       5.280   6.187  16.913  0.00  0.00    +0.000 A 
ATOM      6  C   UNL     1       5.017   4.801  16.859  0.00  0.00    +0.000 A 
ENDROOT
BRANCH   1   8
ATOM      7  C   UNL     1       3.408   2.320  18.565  0.00  0.00    +0.000 C 
ATOM      8  O   UNL     1       3.481   2.999  17.311  0.00  0.00    +0.000 OA
ENDBRANCH   1   8
BRANCH   5   9
ATOM      9  O   UNL     1       6.382   6.876  16.462  0.00  0.00    +0.000 OA
ATOM     10  C   UNL     1       7.397   7.260  17.377  0.00  0.00    +0.000 C 
ENDBRANCH   5   9
BRANCH   6  11
ATOM     11  O   UNL     1       5.996   4.026  16.295  0.00  0.00    +0.000 OA
ATOM     12  C   UNL     1       6.111   3.912  14.887  0.00  0.00    +0.000 C 
ENDBRANCH   6  11
BRANCH   3  13
ATOM     13  C   UNL     1       2.049   7.575  18.419  0.00  0.00    +0.000 C 
BRANCH  13  14
ATOM     14  C   UNL     1       2.143   8.970  17.804  0.00  0.00    +0.000 C 
BRANCH  14  15
ATOM     15  C   UNL     1       1.445   9.999  18.655  0.00  0.00    +0.000 A 
ATOM     16  N   UNL     1       0.594   9.729  19.610  0.00  0.00    +0.000 NA
ATOM     17  N   UNL     1       0.227  10.957  20.104  0.00  0.00    +0.000 N 
ATOM     18  C   UNL     1       0.892  11.971  19.419  0.00  0.00    +0.000 A 
ATOM     19  S   UNL     1       0.733  13.592  19.721  0.00  0.00    +0.000 S 
ATOM     20  N   UNL     1       1.665  11.325  18.478  0.00  0.00    +0.000 N 
ATOM     21  H   UNL     1      -0.419  11.059  20.880  0.00  0.00    +0.000 HD
BRANCH  20  22
ATOM     22  N   UNL     1       2.552  11.913  17.578  0.00  0.00    +0.000 N 
ATOM     23  H   UNL     1       2.001  12.220  16.769  0.00  0.00    +0.000 HD
ATOM     24  H   UNL     1       3.164  11.179  17.219  0.00  0.00    +0.000 HD
ENDBRANCH  20  22
ENDBRANCH  14  15
ENDBRANCH  13  14
ENDBRANCH   3  13
TORSDOF 7
ENDMDL
MODEL 4
REMARK VINA RESULT:      -6.4      0.625      2.818
REMARK  Name = 
REMARK  10 active torsions:
REMARK  status: ('A' for Active; 'I' for Inactive)
REMARK    1  A    between atoms: C_1  and  O_2
REMARK    2  A    between atoms: O_2  and  C_3
REMARK    3  A    between atoms: C_5  and  C_6
REMARK    4  A    between atoms: C_6  and  C_7
REMARK    5  A    between atoms: C_7  and  C_8
REMARK    6  A    between atoms: N_13  and  N_14
REMARK    7  A    between atoms: C_16  and  O_17
REMARK    8  A    between atoms: O_17  and  C_18
REMARK    9  A    between atoms: C_19  and  O_20
REMARK   10  A    between atoms: O_20  and  C_21
REMARK                            x       y       z     vdW  Elec       q    Type
REMARK                         _______ _______ _______ _____ _____    ______ ____
ROOT
ATOM      1  C   UNL     1       3.959   4.095  19.562  0.00  0.00    +0.000 A 
ATOM      2  C   UNL     1       5.178   4.390  18.926  0.00  0.00    +0.000 A 
ATOM      3  C   UNL     1       5.325   5.526  18.129  0.00  0.00    +0.000 A 
ATOM      4  C   UNL     1       4.202   6.317  17.900  0.00  0.00    +0.000 A 
ATOM      5  C   UNL     1       2.949   6.000  18.459  0.00  0.00    +0.000 A 
ATOM      6  C   UNL     1       2.813   4.883  19.310  0.00  0.00    +0.000 A 
ENDROOT
BRANCH   1   8
ATOM      7  C   UNL     1       4.199   1.751  19.835  0.00  0.00    +0.000 C 
ATOM      8  O   UNL     1       3.874   3.018  20.409  0.00  0.00    +0.000 OA
ENDBRANCH   1   8
BRANCH   5   9
ATOM      9  O   UNL     1       1.998   6.922  18.084  0.00  0.00    +0.000 OA
ATOM     10  C   UNL     1       2.242   8.306  18.281  0.00  0.00    +0.000 C 
ENDBRANCH   5   9
BRANCH   6  11
ATOM     11  O   UNL     1       1.562   4.669  19.826  0.00  0.00    +0.000 OA
ATOM     12  C   UNL     1       0.831   3.499  19.496  0.00  0.00    +0.000 C 
ENDBRANCH   6  11
BRANCH   3  13
ATOM     13  C   UNL     1       6.686   5.961  17.644  0.00  0.00    +0.000 C 
BRANCH  13  14
ATOM     14  C   UNL     1       7.521   4.867  16.983  0.00  0.00    +0.000 C 
BRANCH  14  15
ATOM     15  C   UNL     1       7.262   4.790  15.501  0.00  0.00    +0.000 A 
ATOM     16  N   UNL     1       7.814   5.564  14.603  0.00  0.00    +0.000 NA
ATOM     17  N   UNL     1       7.295   5.132  13.407  0.00  0.00    +0.000 N 
ATOM     18  C   UNL     1       6.420   4.068  13.617  0.00  0.00    +0.000 A 
ATOM     19  S   UNL     1       5.597   3.259  12.429  0.00  0.00    +0.000 S 
ATOM     20  N   UNL     1       6.408   3.875  14.981  0.00  0.00    +0.000 N 
ATOM     21  H   UNL     1       7.563   5.543  12.519  0.00  0.00    +0.000 HD
BRANCH  20  22
ATOM     22  N   UNL     1       5.715   2.887  15.679  0.00  0.00    +0.000 N 
ATOM     23  H   UNL     1       5.394   3.307  16.558  0.00  0.00    +0.000 HD
ATOM     24  H   UNL     1       6.388   2.171  15.959  0.00  0.00    +0.000 HD
ENDBRANCH  20  22
ENDBRANCH  14  15
ENDBRANCH  13  14
ENDBRANCH   3  13
TORSDOF 7
ENDMDL
MODEL 5
REMARK VINA RESULT:      -6.4      5.471      6.981
REMARK  Name = 
REMARK  10 active torsions:
REMARK  status: ('A' for Active; 'I' for Inactive)
REMARK    1  A    between atoms: C_1  and  O_2
REMARK    2  A    between atoms: O_2  and  C_3
REMARK    3  A    between atoms: C_5  and  C_6
REMARK    4  A    between atoms: C_6  and  C_7
REMARK    5  A    between atoms: C_7  and  C_8
REMARK    6  A    between atoms: N_13  and  N_14
REMARK    7  A    between atoms: C_16  and  O_17
REMARK    8  A    between atoms: O_17  and  C_18
REMARK    9  A    between atoms: C_19  and  O_20
REMARK   10  A    between atoms: O_20  and  C_21
REMARK                            x       y       z     vdW  Elec       q    Type
REMARK                         _______ _______ _______ _____ _____    ______ ____
ROOT
ATOM      1  C   UNL     1       5.419   6.440  16.892  0.00  0.00    +0.000 A 
ATOM      2  C   UNL     1       4.368   7.267  17.324  0.00  0.00    +0.000 A 
ATOM      3  C   UNL     1       3.191   6.732  17.852  0.00  0.00    +0.000 A 
ATOM      4  C   UNL     1       3.045   5.347  17.854  0.00  0.00    +0.000 A 
ATOM      5  C   UNL     1       4.049   4.496  17.353  0.00  0.00    +0.000 A 
ATOM      6  C   UNL     1       5.261   5.036  16.871  0.00  0.00    +0.000 A 
ENDROOT
BRANCH   1   8
ATOM      7  C   UNL     1       7.479   7.456  17.487  0.00  0.00    +0.000 C 
ATOM      8  O   UNL     1       6.596   7.001  16.461  0.00  0.00    +0.000 OA
ENDBRANCH   1   8
BRANCH   5   9
ATOM      9  O   UNL     1       3.670   3.177  17.455  0.00  0.00    +0.000 OA
ATOM     10  C   UNL     1       2.306   2.850  17.667  0.00  0.00    +0.000 C 
ENDBRANCH   5   9
BRANCH   6  11
ATOM     11  O   UNL     1       6.187   4.130  16.427  0.00  0.00    +0.000 OA
ATOM     12  C   UNL     1       6.330   3.856  15.043  0.00  0.00    +0.000 C 
ENDBRANCH   6  11
BRANCH   3  13
ATOM     13  C   UNL     1       2.171   7.616  18.525  0.00  0.00    +0.000 C 
BRANCH  13  14
ATOM     14  C   UNL     1       1.895   8.942  17.821  0.00  0.00    +0.000 C 
BRANCH  14  15
ATOM     15  C   UNL     1       1.396   9.988  18.783  0.00  0.00    +0.000 A 
ATOM     16  N   UNL     1       0.689   9.743  19.855  0.00  0.00    +0.000 NA
ATOM     17  N   UNL     1       0.472  10.977  20.417  0.00  0.00    +0.000 N 
ATOM     18  C   UNL     1       1.079  11.970  19.651  0.00  0.00    +0.000 A 
ATOM     19  S   UNL     1       1.059  13.589  19.995  0.00  0.00    +0.000 S 
ATOM     20  N   UNL     1       1.659  11.304  18.593  0.00  0.00    +0.000 N 
ATOM     21  H   UNL     1      -0.040  11.096  21.285  0.00  0.00    +0.000 HD
BRANCH  20  22
ATOM     22  N   UNL     1       2.428  11.864  17.574  0.00  0.00    +0.000 N 
ATOM     23  H   UNL     1       2.573  12.851  17.814  0.00  0.00    +0.000 HD
ATOM     24  H   UNL     1       1.860  11.879  16.725  0.00  0.00    +0.000 HD
ENDBRANCH  20  22
ENDBRANCH  14  15
ENDBRANCH  13  14
ENDBRANCH   3  13
TORSDOF 7
ENDMDL
MODEL 6
REMARK VINA RESULT:      -6.3      5.184      6.649
REMARK  Name = 
REMARK  10 active torsions:
REMARK  status: ('A' for Active; 'I' for Inactive)
REMARK    1  A    between atoms: C_1  and  O_2
REMARK    2  A    between atoms: O_2  and  C_3
REMARK    3  A    between atoms: C_5  and  C_6
REMARK    4  A    between atoms: C_6  and  C_7
REMARK    5  A    between atoms: C_7  and  C_8
REMARK    6  A    between atoms: N_13  and  N_14
REMARK    7  A    between atoms: C_16  and  O_17
REMARK    8  A    between atoms: O_17  and  C_18
REMARK    9  A    between atoms: C_19  and  O_20
REMARK   10  A    between atoms: O_20  and  C_21
REMARK                            x       y       z     vdW  Elec       q    Type
REMARK                         _______ _______ _______ _____ _____    ______ ____
ROOT
ATOM      1  C   UNL     1       5.061   4.816  18.561  0.00  0.00    +0.000 A 
ATOM      2  C   UNL     1       4.764   6.124  18.141  0.00  0.00    +0.000 A 
ATOM      3  C   UNL     1       3.446   6.571  18.031  0.00  0.00    +0.000 A 
ATOM      4  C   UNL     1       2.422   5.653  18.256  0.00  0.00    +0.000 A 
ATOM      5  C   UNL     1       2.692   4.314  18.599  0.00  0.00    +0.000 A 
ATOM      6  C   UNL     1       4.024   3.879  18.766  0.00  0.00    +0.000 A 
ENDROOT
BRANCH   1   8
ATOM      7  C   UNL     1       7.345   5.458  18.524  0.00  0.00    +0.000 C 
ATOM      8  O   UNL     1       6.369   4.439  18.743  0.00  0.00    +0.000 OA
ENDBRANCH   1   8
BRANCH   5   9
ATOM      9  O   UNL     1       1.524   3.605  18.762  0.00  0.00    +0.000 OA
ATOM     10  C   UNL     1       0.847   3.639  20.009  0.00  0.00    +0.000 C 
ENDBRANCH   5   9
BRANCH   6  11
ATOM     11  O   UNL     1       4.186   2.566  19.123  0.00  0.00    +0.000 OA
ATOM     12  C   UNL     1       4.326   2.196  20.485  0.00  0.00    +0.000 C 
ENDBRANCH   6  11
BRANCH   3  13
ATOM     13  C   UNL     1       3.137   8.031  17.809  0.00  0.00    +0.000 C 
BRANCH  13  14
ATOM     14  C   UNL     1       1.659   8.402  17.887  0.00  0.00    +0.000 C 
BRANCH  14  15
ATOM     15  C   UNL     1       1.323   9.074  19.193  0.00  0.00    +0.000 A 
ATOM     16  N   UNL     1       1.459   8.528  20.373  0.00  0.00    +0.000 NA
ATOM     17  N   UNL     1       1.045   9.498  21.254  0.00  0.00    +0.000 N 
ATOM     18  C   UNL     1       0.663  10.646  20.563  0.00  0.00    +0.000 A 
ATOM     19  S   UNL     1       0.113  12.043  21.260  0.00  0.00    +0.000 S 
ATOM     20  N   UNL     1       0.842  10.341  19.230  0.00  0.00    +0.000 N 
ATOM     21  H   UNL     1       1.060   9.360  22.259  0.00  0.00    +0.000 HD
BRANCH  20  22
ATOM     22  N   UNL     1       0.641  11.191  18.144  0.00  0.00    +0.000 N 
ATOM     23  H   UNL     1      -0.333  11.071  17.843  0.00  0.00    +0.000 HD
ATOM     24  H   UNL     1       1.203  10.843  17.366  0.00  0.00    +0.000 HD
ENDBRANCH  20  22
ENDBRANCH  14  15
ENDBRANCH  13  14
ENDBRANCH   3  13
TORSDOF 7
ENDMDL
MODEL 7
REMARK VINA RESULT:      -6.3      5.140      6.667
REMARK  Name = 
REMARK  10 active torsions:
REMARK  status: ('A' for Active; 'I' for Inactive)
REMARK    1  A    between atoms: C_1  and  O_2
REMARK    2  A    between atoms: O_2  and  C_3
REMARK    3  A    between atoms: C_5  and  C_6
REMARK    4  A    between atoms: C_6  and  C_7
REMARK    5  A    between atoms: C_7  and  C_8
REMARK    6  A    between atoms: N_13  and  N_14
REMARK    7  A    between atoms: C_16  and  O_17
REMARK    8  A    between atoms: O_17  and  C_18
REMARK    9  A    between atoms: C_19  and  O_20
REMARK   10  A    between atoms: O_20  and  C_21
REMARK                            x       y       z     vdW  Elec       q    Type
REMARK                         _______ _______ _______ _____ _____    ______ ____
ROOT
ATOM      1  C   UNL     1       2.480   4.304  18.036  0.00  0.00    +0.000 A 
ATOM      2  C   UNL     1       2.250   5.689  17.982  0.00  0.00    +0.000 A 
ATOM      3  C   UNL     1       3.298   6.605  18.094  0.00  0.00    +0.000 A 
ATOM      4  C   UNL     1       4.574   6.112  18.358  0.00  0.00    +0.000 A 
ATOM      5  C   UNL     1       4.819   4.733  18.498  0.00  0.00    +0.000 A 
ATOM      6  C   UNL     1       3.769   3.804  18.328  0.00  0.00    +0.000 A 
ENDROOT
BRANCH   1   8
ATOM      7  C   UNL     1       0.798   2.947  19.014  0.00  0.00    +0.000 C 
ATOM      8  O   UNL     1       1.440   3.431  17.834  0.00  0.00    +0.000 OA
ENDBRANCH   1   8
BRANCH   5   9
ATOM      9  O   UNL     1       6.149   4.496  18.761  0.00  0.00    +0.000 OA
ATOM     10  C   UNL     1       7.110   4.647  17.729  0.00  0.00    +0.000 C 
ENDBRANCH   5   9
BRANCH   6  11
ATOM     11  O   UNL     1       4.109   2.484  18.458  0.00  0.00    +0.000 OA
ATOM     12  C   UNL     1       4.281   1.901  19.739  0.00  0.00    +0.000 C 
ENDBRANCH   6  11
BRANCH   3  13
ATOM     13  C   UNL     1       3.082   8.070  17.804  0.00  0.00    +0.000 C 
BRANCH  13  14
ATOM     14  C   UNL     1       1.624   8.521  17.788  0.00  0.00    +0.000 C 
BRANCH  14  15
ATOM     15  C   UNL     1       1.315   9.442  18.939  0.00  0.00    +0.000 A 
ATOM     16  N   UNL     1       0.855   9.059  20.102  0.00  0.00    +0.000 NA
ATOM     17  N   UNL     1       0.734  10.220  20.826  0.00  0.00    +0.000 N 
ATOM     18  C   UNL     1       1.144  11.310  20.062  0.00  0.00    +0.000 A 
ATOM     19  S   UNL     1       1.162  12.884  20.575  0.00  0.00    +0.000 S 
ATOM     20  N   UNL     1       1.504  10.780  18.841  0.00  0.00    +0.000 N 
ATOM     21  H   UNL     1       0.414  10.228  21.789  0.00  0.00    +0.000 HD
BRANCH  20  22
ATOM     22  N   UNL     1       2.029  11.473  17.752  0.00  0.00    +0.000 N 
ATOM     23  H   UNL     1       1.329  11.433  17.003  0.00  0.00    +0.000 HD
ATOM     24  H   UNL     1       2.826  10.942  17.398  0.00  0.00    +0.000 HD
ENDBRANCH  20  22
ENDBRANCH  14  15
ENDBRANCH  13  14
ENDBRANCH   3  13
TORSDOF 7
ENDMDL
MODEL 8
REMARK VINA RESULT:      -6.2      5.065      6.440
REMARK  Name = 
REMARK  10 active torsions:
REMARK  status: ('A' for Active; 'I' for Inactive)
REMARK    1  A    between atoms: C_1  and  O_2
REMARK    2  A    between atoms: O_2  and  C_3
REMARK    3  A    between atoms: C_5  and  C_6
REMARK    4  A    between atoms: C_6  and  C_7
REMARK    5  A    between atoms: C_7  and  C_8
REMARK    6  A    between atoms: N_13  and  N_14
REMARK    7  A    between atoms: C_16  and  O_17
REMARK    8  A    between atoms: O_17  and  C_18
REMARK    9  A    between atoms: C_19  and  O_20
REMARK   10  A    between atoms: O_20  and  C_21
REMARK                            x       y       z     vdW  Elec       q    Type
REMARK                         _______ _______ _______ _____ _____    ______ ____
ROOT
ATOM      1  C   UNL     1       5.032   4.647  18.359  0.00  0.00    +0.000 A 
ATOM      2  C   UNL     1       4.783   5.964  17.936  0.00  0.00    +0.000 A 
ATOM      3  C   UNL     1       3.488   6.486  17.911  0.00  0.00    +0.000 A 
ATOM      4  C   UNL     1       2.432   5.635  18.227  0.00  0.00    +0.000 A 
ATOM      5  C   UNL     1       2.646   4.288  18.576  0.00  0.00    +0.000 A 
ATOM      6  C   UNL     1       3.959   3.776  18.656  0.00  0.00    +0.000 A 
ENDROOT
BRANCH   1   8
ATOM      7  C   UNL     1       7.340   5.140  18.113  0.00  0.00    +0.000 C 
ATOM      8  O   UNL     1       6.325   4.195  18.455  0.00  0.00    +0.000 OA
ENDBRANCH   1   8
BRANCH   5   9
ATOM      9  O   UNL     1       1.454   3.653  18.836  0.00  0.00    +0.000 OA
ATOM     10  C   UNL     1       0.913   3.679  20.148  0.00  0.00    +0.000 C 
ENDBRANCH   5   9
BRANCH   6  11
ATOM     11  O   UNL     1       4.070   2.462  19.027  0.00  0.00    +0.000 OA
ATOM     12  C   UNL     1       4.345   2.108  20.372  0.00  0.00    +0.000 C 
ENDBRANCH   6  11
BRANCH   3  13
ATOM     13  C   UNL     1       3.251   7.959  17.684  0.00  0.00    +0.000 C 
BRANCH  13  14
ATOM     14  C   UNL     1       1.803   8.416  17.844  0.00  0.00    +0.000 C 
BRANCH  14  15
ATOM     15  C   UNL     1       1.719   9.869  18.233  0.00  0.00    +0.000 A 
ATOM     16  N   UNL     1       2.215  10.860  17.539  0.00  0.00    +0.000 NA
ATOM     17  N   UNL     1       1.898  11.983  18.264  0.00  0.00    +0.000 N 
ATOM     18  C   UNL     1       1.188  11.633  19.411  0.00  0.00    +0.000 A 
ATOM     19  S   UNL     1       0.614  12.697  20.542  0.00  0.00    +0.000 S 
ATOM     20  N   UNL     1       1.097  10.258  19.373  0.00  0.00    +0.000 N 
ATOM     21  H   UNL     1       2.143  12.917  17.953  0.00  0.00    +0.000 HD
BRANCH  20  22
ATOM     22  N   UNL     1       0.431   9.439  20.284  0.00  0.00    +0.000 N 
ATOM     23  H   UNL     1       0.237   8.552  19.806  0.00  0.00    +0.000 HD
ATOM     24  H   UNL     1      -0.487   9.851  20.460  0.00  0.00    +0.000 HD
ENDBRANCH  20  22
ENDBRANCH  14  15
ENDBRANCH  13  14
ENDBRANCH   3  13
TORSDOF 7
ENDMDL
MODEL 9
REMARK VINA RESULT:      -6.2      5.144      6.506
REMARK  Name = 
REMARK  10 active torsions:
REMARK  status: ('A' for Active; 'I' for Inactive)
REMARK    1  A    between atoms: C_1  and  O_2
REMARK    2  A    between atoms: O_2  and  C_3
REMARK    3  A    between atoms: C_5  and  C_6
REMARK    4  A    between atoms: C_6  and  C_7
REMARK    5  A    between atoms: C_7  and  C_8
REMARK    6  A    between atoms: N_13  and  N_14
REMARK    7  A    between atoms: C_16  and  O_17
REMARK    8  A    between atoms: O_17  and  C_18
REMARK    9  A    between atoms: C_19  and  O_20
REMARK   10  A    between atoms: O_20  and  C_21
REMARK                            x       y       z     vdW  Elec       q    Type
REMARK                         _______ _______ _______ _____ _____    ______ ____
ROOT
ATOM      1  C   UNL     1       2.091   4.196  18.441  0.00  0.00    +0.000 A 
ATOM      2  C   UNL     1       2.186   5.594  18.553  0.00  0.00    +0.000 A 
ATOM      3  C   UNL     1       3.196   6.308  17.907  0.00  0.00    +0.000 A 
ATOM      4  C   UNL     1       4.172   5.589  17.221  0.00  0.00    +0.000 A 
ATOM      5  C   UNL     1       4.148   4.182  17.161  0.00  0.00    +0.000 A 
ATOM      6  C   UNL     1       3.094   3.464  17.767  0.00  0.00    +0.000 A 
ENDROOT
BRANCH   1   8
ATOM      7  C   UNL     1       1.098   3.379  20.435  0.00  0.00    +0.000 C 
ATOM      8  O   UNL     1       1.034   3.535  19.017  0.00  0.00    +0.000 OA
ENDBRANCH   1   8
BRANCH   5   9
ATOM      9  O   UNL     1       5.216   3.704  16.437  0.00  0.00    +0.000 OA
ATOM     10  C   UNL     1       6.298   4.568  16.123  0.00  0.00    +0.000 C 
ENDBRANCH   5   9
BRANCH   6  11
ATOM     11  O   UNL     1       3.143   2.101  17.634  0.00  0.00    +0.000 OA
ATOM     12  C   UNL     1       3.717   1.293  18.648  0.00  0.00    +0.000 C 
ENDBRANCH   6  11
BRANCH   3  13
ATOM     13  C   UNL     1       3.158   7.815  17.837  0.00  0.00    +0.000 C 
BRANCH  13  14
ATOM     14  C   UNL     1       1.760   8.429  17.825  0.00  0.00    +0.000 C 
BRANCH  14  15
ATOM     15  C   UNL     1       1.797   9.901  18.146  0.00  0.00    +0.000 A 
ATOM     16  N   UNL     1       2.484  10.794  17.483  0.00  0.00    +0.000 NA
ATOM     17  N   UNL     1       2.213  11.981  18.120  0.00  0.00    +0.000 N 
ATOM     18  C   UNL     1       1.335  11.770  19.181  0.00  0.00    +0.000 A 
ATOM     19  S   UNL     1       0.755  12.948  20.190  0.00  0.00    +0.000 S 
ATOM     20  N   UNL     1       1.091  10.413  19.184  0.00  0.00    +0.000 N 
ATOM     21  H   UNL     1       2.598  12.865  17.807  0.00  0.00    +0.000 HD
BRANCH  20  22
ATOM     22  N   UNL     1       0.232   9.720  20.035  0.00  0.00    +0.000 N 
ATOM     23  H   UNL     1      -0.120  10.395  20.723  0.00  0.00    +0.000 HD
ATOM     24  H   UNL     1       0.793   9.059  20.575  0.00  0.00    +0.000 HD
ENDBRANCH  20  22
ENDBRANCH  14  15
ENDBRANCH  13  14
ENDBRANCH   3  13
TORSDOF 7
ENDMDL
