MODEL 1
REMARK VINA RESULT:      -8.7      0.000      0.000
REMARK  Name = 
REMARK  7 active torsions:
REMARK  status: ('A' for Active; 'I' for Inactive)
REMARK    1  A    between atoms: C_1  and  C_2
REMARK    2  A    between atoms: C_4  and  C_5
REMARK    3  A    between atoms: C_10  and  N_11
REMARK    4  A    between atoms: N_11  and  S_12
REMARK    5  A    between atoms: S_12  and  N_15
REMARK    6  A    between atoms: N_15  and  C_16
REMARK    7  A    between atoms: C_16  and  C_17
REMARK                            x       y       z     vdW  Elec       q    Type
REMARK                         _______ _______ _______ _____ _____    ______ ____
ROOT
ATOM      1  C   UNL     1       6.677   5.084  15.776  0.00  0.00    +0.000 A 
ATOM      2  N   UNL     1       7.437   6.029  16.359  0.00  0.00    +0.000 NA
ATOM      3  N   UNL     1       7.036   6.046  17.639  0.00  0.00    +0.000 N 
ATOM      4  C   UNL     1       6.043   5.152  17.927  0.00  0.00    +0.000 A 
ATOM      5  C   UNL     1       5.354   4.864  19.107  0.00  0.00    +0.000 A 
ATOM      6  C   UNL     1       4.379   3.879  18.980  0.00  0.00    +0.000 A 
ATOM      7  N   UNL     1       4.116   3.195  17.855  0.00  0.00    +0.000 NA
ATOM      8  C   UNL     1       4.831   3.471  16.733  0.00  0.00    +0.000 A 
ATOM      9  C   UNL     1       5.793   4.489  16.733  0.00  0.00    +0.000 A 
ATOM     10  H   UNL     1       7.482   6.705  18.269  0.00  0.00    +0.000 HD
ENDROOT
BRANCH   1  14
ATOM     11  C   UNL     1       5.413   2.457  11.708  0.00  0.00    +0.000 C 
ATOM     12  C   UNL     1       6.222   3.522  12.386  0.00  0.00    +0.000 A 
ATOM     13  C   UNL     1       6.024   3.814  13.732  0.00  0.00    +0.000 A 
ATOM     14  C   UNL     1       6.819   4.784  14.348  0.00  0.00    +0.000 A 
ATOM     15  C   UNL     1       7.755   5.465  13.569  0.00  0.00    +0.000 A 
ATOM     16  C   UNL     1       7.879   5.122  12.234  0.00  0.00    +0.000 A 
ATOM     17  N   UNL     1       7.145   4.162  11.633  0.00  0.00    +0.000 NA
ENDBRANCH   1  14
BRANCH   6  18
ATOM     18  N   UNL     1       3.555   3.511  20.082  0.00  0.00    +0.000 N 
ATOM     19  H   UNL     1       3.681   2.520  20.274  0.00  0.00    +0.000 HD
BRANCH  18  20
ATOM     20  S   UNL     1       1.916   3.722  19.773  0.00  0.00    +0.000 S 
ATOM     21  O   UNL     1       1.455   2.824  18.750  0.00  0.00    +0.000 OA
ATOM     22  O   UNL     1       1.291   3.818  21.073  0.00  0.00    +0.000 OA
BRANCH  20  23
ATOM     23  N   UNL     1       2.004   5.280  19.149  0.00  0.00    +0.000 NA
ATOM     24  H   UNL     1       1.230   5.486  18.525  0.00  0.00    +0.000 HD
BRANCH  23  25
ATOM     25  C   UNL     1       2.235   6.347  20.138  0.00  0.00    +0.000 C 
BRANCH  25  26
ATOM     26  C   UNL     1       1.900   7.721  19.597  0.00  0.00    +0.000 A 
ATOM     27  C   UNL     1       1.237   8.651  20.415  0.00  0.00    +0.000 A 
ATOM     28  C   UNL     1       0.945   9.933  19.945  0.00  0.00    +0.000 A 
ATOM     29  C   UNL     1       1.313  10.306  18.656  0.00  0.00    +0.000 A 
ATOM     30  C   UNL     1       1.984   9.399  17.837  0.00  0.00    +0.000 A 
ATOM     31  C   UNL     1       2.276   8.113  18.304  0.00  0.00    +0.000 A 
ENDBRANCH  25  26
ENDBRANCH  23  25
ENDBRANCH  20  23
ENDBRANCH  18  20
ENDBRANCH   6  18
TORSDOF 6
ENDMDL
MODEL 2
REMARK VINA RESULT:      -8.6      3.826      7.727
REMARK  Name = 
REMARK  7 active torsions:
REMARK  status: ('A' for Active; 'I' for Inactive)
REMARK    1  A    between atoms: C_1  and  C_2
REMARK    2  A    between atoms: C_4  and  C_5
REMARK    3  A    between atoms: C_10  and  N_11
REMARK    4  A    between atoms: N_11  and  S_12
REMARK    5  A    between atoms: S_12  and  N_15
REMARK    6  A    between atoms: N_15  and  C_16
REMARK    7  A    between atoms: C_16  and  C_17
REMARK                            x       y       z     vdW  Elec       q    Type
REMARK                         _______ _______ _______ _____ _____    ______ ____
ROOT
ATOM      1  C   UNL     1       1.144   8.917  19.688  0.00  0.00    +0.000 A 
ATOM      2  N   UNL     1       0.792   8.412  20.884  0.00  0.00    +0.000 NA
ATOM      3  N   UNL     1       1.526   7.297  21.013  0.00  0.00    +0.000 N 
ATOM      4  C   UNL     1       2.350   7.043  19.953  0.00  0.00    +0.000 A 
ATOM      5  C   UNL     1       3.249   6.007  19.691  0.00  0.00    +0.000 A 
ATOM      6  C   UNL     1       3.896   6.102  18.462  0.00  0.00    +0.000 A 
ATOM      7  N   UNL     1       3.744   7.108  17.586  0.00  0.00    +0.000 NA
ATOM      8  C   UNL     1       2.892   8.122  17.888  0.00  0.00    +0.000 A 
ATOM      9  C   UNL     1       2.141   8.095  19.070  0.00  0.00    +0.000 A 
ATOM     10  H   UNL     1       1.410   6.746  21.857  0.00  0.00    +0.000 HD
ENDROOT
BRANCH   1  14
ATOM     11  C   UNL     1       1.317  13.831  18.756  0.00  0.00    +0.000 C 
ATOM     12  C   UNL     1       0.601  12.513  18.735  0.00  0.00    +0.000 A 
ATOM     13  C   UNL     1       1.234  11.356  19.176  0.00  0.00    +0.000 A 
ATOM     14  C   UNL     1       0.530  10.149  19.183  0.00  0.00    +0.000 A 
ATOM     15  C   UNL     1      -0.777  10.141  18.695  0.00  0.00    +0.000 A 
ATOM     16  C   UNL     1      -1.328  11.335  18.263  0.00  0.00    +0.000 A 
ATOM     17  N   UNL     1      -0.674  12.517  18.285  0.00  0.00    +0.000 NA
ENDBRANCH   1  14
BRANCH   6  18
ATOM     18  N   UNL     1       4.803   5.093  18.028  0.00  0.00    +0.000 N 
ATOM     19  H   UNL     1       5.603   5.537  17.582  0.00  0.00    +0.000 HD
BRANCH  18  20
ATOM     20  S   UNL     1       4.137   4.065  16.876  0.00  0.00    +0.000 S 
ATOM     21  O   UNL     1       2.707   4.201  16.816  0.00  0.00    +0.000 OA
ATOM     22  O   UNL     1       4.987   4.191  15.714  0.00  0.00    +0.000 OA
BRANCH  20  23
ATOM     23  N   UNL     1       4.526   2.610  17.621  0.00  0.00    +0.000 NA
ATOM     24  H   UNL     1       5.172   2.738  18.394  0.00  0.00    +0.000 HD
BRANCH  23  25
ATOM     25  C   UNL     1       3.381   1.753  17.973  0.00  0.00    +0.000 C 
BRANCH  25  26
ATOM     26  C   UNL     1       2.662   2.230  19.217  0.00  0.00    +0.000 A 
ATOM     27  C   UNL     1       3.367   2.363  20.425  0.00  0.00    +0.000 A 
ATOM     28  C   UNL     1       2.729   2.830  21.576  0.00  0.00    +0.000 A 
ATOM     29  C   UNL     1       1.380   3.173  21.538  0.00  0.00    +0.000 A 
ATOM     30  C   UNL     1       0.670   3.059  20.343  0.00  0.00    +0.000 A 
ATOM     31  C   UNL     1       1.306   2.591  19.189  0.00  0.00    +0.000 A 
ENDBRANCH  25  26
ENDBRANCH  23  25
ENDBRANCH  20  23
ENDBRANCH  18  20
ENDBRANCH   6  18
TORSDOF 6
ENDMDL
MODEL 3
REMARK VINA RESULT:      -8.6      3.858      8.399
REMARK  Name = 
REMARK  7 active torsions:
REMARK  status: ('A' for Active; 'I' for Inactive)
REMARK    1  A    between atoms: C_1  and  C_2
REMARK    2  A    between atoms: C_4  and  C_5
REMARK    3  A    between atoms: C_10  and  N_11
REMARK    4  A    between atoms: N_11  and  S_12
REMARK    5  A    between atoms: S_12  and  N_15
REMARK    6  A    between atoms: N_15  and  C_16
REMARK    7  A    between atoms: C_16  and  C_17
REMARK                            x       y       z     vdW  Elec       q    Type
REMARK                         _______ _______ _______ _____ _____    ______ ____
ROOT
ATOM      1  C   UNL     1       1.268   9.542  19.642  0.00  0.00    +0.000 A 
ATOM      2  N   UNL     1       1.303  10.410  18.616  0.00  0.00    +0.000 NA
ATOM      3  N   UNL     1       1.962   9.763  17.644  0.00  0.00    +0.000 N 
ATOM      4  C   UNL     1       2.364   8.502  17.983  0.00  0.00    +0.000 A 
ATOM      5  C   UNL     1       3.069   7.520  17.282  0.00  0.00    +0.000 A 
ATOM      6  C   UNL     1       3.302   6.352  18.002  0.00  0.00    +0.000 A 
ATOM      7  N   UNL     1       2.866   6.115  19.249  0.00  0.00    +0.000 NA
ATOM      8  C   UNL     1       2.149   7.074  19.891  0.00  0.00    +0.000 A 
ATOM      9  C   UNL     1       1.911   8.313  19.283  0.00  0.00    +0.000 A 
ATOM     10  H   UNL     1       2.111  10.247  16.765  0.00  0.00    +0.000 HD
ENDROOT
BRANCH   1  14
ATOM     11  C   UNL     1      -1.178  12.814  22.532  0.00  0.00    +0.000 C 
ATOM     12  C   UNL     1      -0.542  11.474  22.311  0.00  0.00    +0.000 A 
ATOM     13  C   UNL     1       0.008  11.146  21.077  0.00  0.00    +0.000 A 
ATOM     14  C   UNL     1       0.631   9.906  20.911  0.00  0.00    +0.000 A 
ATOM     15  C   UNL     1       0.629   9.015  21.986  0.00  0.00    +0.000 A 
ATOM     16  C   UNL     1       0.047   9.416  23.175  0.00  0.00    +0.000 A 
ATOM     17  N   UNL     1      -0.524  10.625  23.363  0.00  0.00    +0.000 NA
ENDBRANCH   1  14
BRANCH   6  18
ATOM     18  N   UNL     1       4.054   5.280  17.441  0.00  0.00    +0.000 N 
ATOM     19  H   UNL     1       3.553   4.408  17.596  0.00  0.00    +0.000 HD
BRANCH  18  20
ATOM     20  S   UNL     1       5.559   5.087  18.166  0.00  0.00    +0.000 S 
ATOM     21  O   UNL     1       6.624   5.234  17.211  0.00  0.00    +0.000 OA
ATOM     22  O   UNL     1       5.493   5.849  19.392  0.00  0.00    +0.000 OA
BRANCH  20  23
ATOM     23  N   UNL     1       5.403   3.466  18.579  0.00  0.00    +0.000 NA
ATOM     24  H   UNL     1       5.576   3.305  19.566  0.00  0.00    +0.000 HD
BRANCH  23  25
ATOM     25  C   UNL     1       4.175   2.807  18.103  0.00  0.00    +0.000 C 
BRANCH  25  26
ATOM     26  C   UNL     1       3.085   2.784  19.155  0.00  0.00    +0.000 A 
ATOM     27  C   UNL     1       3.428   2.753  20.516  0.00  0.00    +0.000 A 
ATOM     28  C   UNL     1       2.439   2.761  21.502  0.00  0.00    +0.000 A 
ATOM     29  C   UNL     1       1.095   2.805  21.142  0.00  0.00    +0.000 A 
ATOM     30  C   UNL     1       0.739   2.850  19.795  0.00  0.00    +0.000 A 
ATOM     31  C   UNL     1       1.727   2.840  18.806  0.00  0.00    +0.000 A 
ENDBRANCH  25  26
ENDBRANCH  23  25
ENDBRANCH  20  23
ENDBRANCH  18  20
ENDBRANCH   6  18
TORSDOF 6
ENDMDL
MODEL 4
REMARK VINA RESULT:      -8.5      0.787      1.146
REMARK  Name = 
REMARK  7 active torsions:
REMARK  status: ('A' for Active; 'I' for Inactive)
REMARK    1  A    between atoms: C_1  and  C_2
REMARK    2  A    between atoms: C_4  and  C_5
REMARK    3  A    between atoms: C_10  and  N_11
REMARK    4  A    between atoms: N_11  and  S_12
REMARK    5  A    between atoms: S_12  and  N_15
REMARK    6  A    between atoms: N_15  and  C_16
REMARK    7  A    between atoms: C_16  and  C_17
REMARK                            x       y       z     vdW  Elec       q    Type
REMARK                         _______ _______ _______ _____ _____    ______ ____
ROOT
ATOM      1  C   UNL     1       6.716   5.104  15.804  0.00  0.00    +0.000 A 
ATOM      2  N   UNL     1       7.525   6.012  16.379  0.00  0.00    +0.000 NA
ATOM      3  N   UNL     1       7.131   6.056  17.660  0.00  0.00    +0.000 N 
ATOM      4  C   UNL     1       6.096   5.215  17.957  0.00  0.00    +0.000 A 
ATOM      5  C   UNL     1       5.398   4.967  19.142  0.00  0.00    +0.000 A 
ATOM      6  C   UNL     1       4.375   4.031  19.024  0.00  0.00    +0.000 A 
ATOM      7  N   UNL     1       4.073   3.356  17.904  0.00  0.00    +0.000 NA
ATOM      8  C   UNL     1       4.796   3.590  16.777  0.00  0.00    +0.000 A 
ATOM      9  C   UNL     1       5.808   4.558  16.767  0.00  0.00    +0.000 A 
ATOM     10  H   UNL     1       7.612   6.695  18.284  0.00  0.00    +0.000 HD
ENDROOT
BRANCH   1  14
ATOM     11  C   UNL     1       5.304   2.523  11.755  0.00  0.00    +0.000 C 
ATOM     12  C   UNL     1       6.168   3.550  12.424  0.00  0.00    +0.000 A 
ATOM     13  C   UNL     1       5.990   3.858  13.769  0.00  0.00    +0.000 A 
ATOM     14  C   UNL     1       6.837   4.789  14.377  0.00  0.00    +0.000 A 
ATOM     15  C   UNL     1       7.803   5.419  13.590  0.00  0.00    +0.000 A 
ATOM     16  C   UNL     1       7.903   5.063  12.257  0.00  0.00    +0.000 A 
ATOM     17  N   UNL     1       7.119   4.138  11.664  0.00  0.00    +0.000 NA
ENDBRANCH   1  14
BRANCH   6  18
ATOM     18  N   UNL     1       3.539   3.711  20.132  0.00  0.00    +0.000 N 
ATOM     19  H   UNL     1       3.331   2.715  20.113  0.00  0.00    +0.000 HD
BRANCH  18  20
ATOM     20  S   UNL     1       2.055   4.499  20.081  0.00  0.00    +0.000 S 
ATOM     21  O   UNL     1       1.542   4.566  18.739  0.00  0.00    +0.000 OA
ATOM     22  O   UNL     1       1.296   3.956  21.185  0.00  0.00    +0.000 OA
BRANCH  20  23
ATOM     23  N   UNL     1       2.592   6.021  20.548  0.00  0.00    +0.000 NA
ATOM     24  H   UNL     1       3.554   6.003  20.872  0.00  0.00    +0.000 HD
BRANCH  23  25
ATOM     25  C   UNL     1       2.338   7.105  19.584  0.00  0.00    +0.000 C 
BRANCH  25  26
ATOM     26  C   UNL     1       1.465   8.200  20.160  0.00  0.00    +0.000 A 
ATOM     27  C   UNL     1       0.990   8.094  21.478  0.00  0.00    +0.000 A 
ATOM     28  C   UNL     1       0.208   9.107  22.038  0.00  0.00    +0.000 A 
ATOM     29  C   UNL     1      -0.107  10.239  21.293  0.00  0.00    +0.000 A 
ATOM     30  C   UNL     1       0.368  10.365  19.989  0.00  0.00    +0.000 A 
ATOM     31  C   UNL     1       1.150   9.352  19.424  0.00  0.00    +0.000 A 
ENDBRANCH  25  26
ENDBRANCH  23  25
ENDBRANCH  20  23
ENDBRANCH  18  20
ENDBRANCH   6  18
TORSDOF 6
ENDMDL
MODEL 5
REMARK VINA RESULT:      -8.4      3.736      7.744
REMARK  Name = 
REMARK  7 active torsions:
REMARK  status: ('A' for Active; 'I' for Inactive)
REMARK    1  A    between atoms: C_1  and  C_2
REMARK    2  A    between atoms: C_4  and  C_5
REMARK    3  A    between atoms: C_10  and  N_11
REMARK    4  A    between atoms: N_11  and  S_12
REMARK    5  A    between atoms: S_12  and  N_15
REMARK    6  A    between atoms: N_15  and  C_16
REMARK    7  A    between atoms: C_16  and  C_17
REMARK                            x       y       z     vdW  Elec       q    Type
REMARK                         _______ _______ _______ _____ _____    ______ ____
ROOT
ATOM      1  C   UNL     1       1.204   8.718  19.637  0.00  0.00    +0.000 A 
ATOM      2  N   UNL     1       0.912   8.137  20.815  0.00  0.00    +0.000 NA
ATOM      3  N   UNL     1       1.718   7.067  20.875  0.00  0.00    +0.000 N 
ATOM      4  C   UNL     1       2.532   6.916  19.788  0.00  0.00    +0.000 A 
ATOM      5  C   UNL     1       3.489   5.953  19.459  0.00  0.00    +0.000 A 
ATOM      6  C   UNL     1       4.100   6.146  18.223  0.00  0.00    +0.000 A 
ATOM      7  N   UNL     1       3.865   7.180  17.400  0.00  0.00    +0.000 NA
ATOM      8  C   UNL     1       2.957   8.122  17.767  0.00  0.00    +0.000 A 
ATOM      9  C   UNL     1       2.237   7.992  18.961  0.00  0.00    +0.000 A 
ATOM     10  H   UNL     1       1.656   6.470  21.694  0.00  0.00    +0.000 HD
ENDROOT
BRANCH   1  14
ATOM     11  C   UNL     1       0.499  13.670  19.818  0.00  0.00    +0.000 C 
ATOM     12  C   UNL     1       0.151  12.311  19.287  0.00  0.00    +0.000 A 
ATOM     13  C   UNL     1       0.873  11.190  19.683  0.00  0.00    +0.000 A 
ATOM     14  C   UNL     1       0.502   9.931  19.204  0.00  0.00    +0.000 A 
ATOM     15  C   UNL     1      -0.556   9.852  18.297  0.00  0.00    +0.000 A 
ATOM     16  C   UNL     1      -1.213  11.018  17.946  0.00  0.00    +0.000 A 
ATOM     17  N   UNL     1      -0.891  12.238  18.429  0.00  0.00    +0.000 NA
ENDBRANCH   1  14
BRANCH   6  18
ATOM     18  N   UNL     1       5.059   5.219  17.723  0.00  0.00    +0.000 N 
ATOM     19  H   UNL     1       5.732   5.718  17.146  0.00  0.00    +0.000 HD
BRANCH  18  20
ATOM     20  S   UNL     1       4.378   4.042  16.735  0.00  0.00    +0.000 S 
ATOM     21  O   UNL     1       2.963   4.240  16.581  0.00  0.00    +0.000 OA
ATOM     22  O   UNL     1       5.280   3.917  15.613  0.00  0.00    +0.000 OA
BRANCH  20  23
ATOM     23  N   UNL     1       4.649   2.722  17.739  0.00  0.00    +0.000 NA
ATOM     24  H   UNL     1       5.155   2.979  18.581  0.00  0.00    +0.000 HD
BRANCH  23  25
ATOM     25  C   UNL     1       3.467   1.888  18.020  0.00  0.00    +0.000 C 
BRANCH  25  26
ATOM     26  C   UNL     1       2.712   2.349  19.249  0.00  0.00    +0.000 A 
ATOM     27  C   UNL     1       1.349   2.674  19.150  0.00  0.00    +0.000 A 
ATOM     28  C   UNL     1       0.627   3.073  20.277  0.00  0.00    +0.000 A 
ATOM     29  C   UNL     1       1.254   3.150  21.518  0.00  0.00    +0.000 A 
ATOM     30  C   UNL     1       2.603   2.817  21.634  0.00  0.00    +0.000 A 
ATOM     31  C   UNL     1       3.329   2.419  20.507  0.00  0.00    +0.000 A 
ENDBRANCH  25  26
ENDBRANCH  23  25
ENDBRANCH  20  23
ENDBRANCH  18  20
ENDBRANCH   6  18
TORSDOF 6
ENDMDL
MODEL 6
REMARK VINA RESULT:      -8.3      3.859      8.073
REMARK  Name = 
REMARK  7 active torsions:
REMARK  status: ('A' for Active; 'I' for Inactive)
REMARK    1  A    between atoms: C_1  and  C_2
REMARK    2  A    between atoms: C_4  and  C_5
REMARK    3  A    between atoms: C_10  and  N_11
REMARK    4  A    between atoms: N_11  and  S_12
REMARK    5  A    between atoms: S_12  and  N_15
REMARK    6  A    between atoms: N_15  and  C_16
REMARK    7  A    between atoms: C_16  and  C_17
REMARK                            x       y       z     vdW  Elec       q    Type
REMARK                         _______ _______ _______ _____ _____    ______ ____
ROOT
ATOM      1  C   UNL     1       1.053   9.361  20.014  0.00  0.00    +0.000 A 
ATOM      2  N   UNL     1       0.839   8.801  21.218  0.00  0.00    +0.000 NA
ATOM      3  N   UNL     1       1.469   7.619  21.160  0.00  0.00    +0.000 N 
ATOM      4  C   UNL     1       2.094   7.374  19.970  0.00  0.00    +0.000 A 
ATOM      5  C   UNL     1       2.836   6.286  19.505  0.00  0.00    +0.000 A 
ATOM      6  C   UNL     1       3.296   6.416  18.198  0.00  0.00    +0.000 A 
ATOM      7  N   UNL     1       3.113   7.495  17.421  0.00  0.00    +0.000 NA
ATOM      8  C   UNL     1       2.421   8.555  17.915  0.00  0.00    +0.000 A 
ATOM      9  C   UNL     1       1.859   8.504  19.197  0.00  0.00    +0.000 A 
ATOM     10  H   UNL     1       1.429   7.017  21.977  0.00  0.00    +0.000 HD
ENDROOT
BRANCH   1  14
ATOM     11  C   UNL     1      -2.796  12.553  19.805  0.00  0.00    +0.000 C 
ATOM     12  C   UNL     1      -1.351  12.219  19.580  0.00  0.00    +0.000 A 
ATOM     13  C   UNL     1      -0.846  10.977  19.948  0.00  0.00    +0.000 A 
ATOM     14  C   UNL     1       0.495  10.678  19.690  0.00  0.00    +0.000 A 
ATOM     15  C   UNL     1       1.295  11.666  19.115  0.00  0.00    +0.000 A 
ATOM     16  C   UNL     1       0.716  12.881  18.793  0.00  0.00    +0.000 A 
ATOM     17  N   UNL     1      -0.586  13.172  19.000  0.00  0.00    +0.000 NA
ENDBRANCH   1  14
BRANCH   6  18
ATOM     18  N   UNL     1       4.022   5.367  17.565  0.00  0.00    +0.000 N 
ATOM     19  H   UNL     1       3.502   4.498  17.663  0.00  0.00    +0.000 HD
BRANCH  18  20
ATOM     20  S   UNL     1       5.525   5.094  18.267  0.00  0.00    +0.000 S 
ATOM     21  O   UNL     1       6.593   5.381  17.349  0.00  0.00    +0.000 OA
ATOM     22  O   UNL     1       5.443   5.682  19.585  0.00  0.00    +0.000 OA
BRANCH  20  23
ATOM     23  N   UNL     1       5.385   3.430  18.456  0.00  0.00    +0.000 NA
ATOM     24  H   UNL     1       5.651   3.128  19.388  0.00  0.00    +0.000 HD
BRANCH  23  25
ATOM     25  C   UNL     1       4.106   2.848  18.014  0.00  0.00    +0.000 C 
BRANCH  25  26
ATOM     26  C   UNL     1       3.076   2.802  19.123  0.00  0.00    +0.000 A 
ATOM     27  C   UNL     1       3.494   2.701  20.461  0.00  0.00    +0.000 A 
ATOM     28  C   UNL     1       2.561   2.687  21.500  0.00  0.00    +0.000 A 
ATOM     29  C   UNL     1       1.201   2.777  21.220  0.00  0.00    +0.000 A 
ATOM     30  C   UNL     1       0.772   2.892  19.899  0.00  0.00    +0.000 A 
ATOM     31  C   UNL     1       1.703   2.905  18.855  0.00  0.00    +0.000 A 
ENDBRANCH  25  26
ENDBRANCH  23  25
ENDBRANCH  20  23
ENDBRANCH  18  20
ENDBRANCH   6  18
TORSDOF 6
ENDMDL
MODEL 7
REMARK VINA RESULT:      -8.3      1.283      1.332
REMARK  Name = 
REMARK  7 active torsions:
REMARK  status: ('A' for Active; 'I' for Inactive)
REMARK    1  A    between atoms: C_1  and  C_2
REMARK    2  A    between atoms: C_4  and  C_5
REMARK    3  A    between atoms: C_10  and  N_11
REMARK    4  A    between atoms: N_11  and  S_12
REMARK    5  A    between atoms: S_12  and  N_15
REMARK    6  A    between atoms: N_15  and  C_16
REMARK    7  A    between atoms: C_16  and  C_17
REMARK                            x       y       z     vdW  Elec       q    Type
REMARK                         _______ _______ _______ _____ _____    ______ ____
ROOT
ATOM      1  C   UNL     1       6.935   4.548  16.033  0.00  0.00    +0.000 A 
ATOM      2  N   UNL     1       8.013   4.180  16.748  0.00  0.00    +0.000 NA
ATOM      3  N   UNL     1       7.650   4.360  18.027  0.00  0.00    +0.000 N 
ATOM      4  C   UNL     1       6.378   4.829  18.188  0.00  0.00    +0.000 A 
ATOM      5  C   UNL     1       5.633   5.153  19.325  0.00  0.00    +0.000 A 
ATOM      6  C   UNL     1       4.352   5.628  19.060  0.00  0.00    +0.000 A 
ATOM      7  N   UNL     1       3.809   5.740  17.838  0.00  0.00    +0.000 NA
ATOM      8  C   UNL     1       4.544   5.380  16.753  0.00  0.00    +0.000 A 
ATOM      9  C   UNL     1       5.868   4.948  16.901  0.00  0.00    +0.000 A 
ATOM     10  H   UNL     1       8.331   4.146  18.749  0.00  0.00    +0.000 HD
ENDROOT
BRANCH   1  14
ATOM     11  C   UNL     1       5.400   2.588  11.691  0.00  0.00    +0.000 C 
ATOM     12  C   UNL     1       6.228   3.563  12.474  0.00  0.00    +0.000 A 
ATOM     13  C   UNL     1       6.143   3.611  13.861  0.00  0.00    +0.000 A 
ATOM     14  C   UNL     1       6.956   4.502  14.567  0.00  0.00    +0.000 A 
ATOM     15  C   UNL     1       7.790   5.355  13.843  0.00  0.00    +0.000 A 
ATOM     16  C   UNL     1       7.804   5.250  12.463  0.00  0.00    +0.000 A 
ATOM     17  N   UNL     1       7.053   4.369  11.768  0.00  0.00    +0.000 NA
ENDBRANCH   1  14
BRANCH   6  18
ATOM     18  N   UNL     1       3.491   6.050  20.113  0.00  0.00    +0.000 N 
ATOM     19  H   UNL     1       4.004   6.021  20.992  0.00  0.00    +0.000 HD
BRANCH  18  20
ATOM     20  S   UNL     1       2.161   5.041  20.315  0.00  0.00    +0.000 S 
ATOM     21  O   UNL     1       1.887   4.289  19.121  0.00  0.00    +0.000 OA
ATOM     22  O   UNL     1       2.344   4.423  21.608  0.00  0.00    +0.000 OA
BRANCH  20  23
ATOM     23  N   UNL     1       0.996   6.239  20.498  0.00  0.00    +0.000 NA
ATOM     24  H   UNL     1       0.142   5.881  20.913  0.00  0.00    +0.000 HD
BRANCH  23  25
ATOM     25  C   UNL     1       1.462   7.482  21.138  0.00  0.00    +0.000 C 
BRANCH  25  26
ATOM     26  C   UNL     1       1.215   8.704  20.278  0.00  0.00    +0.000 A 
ATOM     27  C   UNL     1       0.585   9.832  20.831  0.00  0.00    +0.000 A 
ATOM     28  C   UNL     1       0.375  10.979  20.063  0.00  0.00    +0.000 A 
ATOM     29  C   UNL     1       0.793  11.019  18.736  0.00  0.00    +0.000 A 
ATOM     30  C   UNL     1       1.432   9.912  18.178  0.00  0.00    +0.000 A 
ATOM     31  C   UNL     1       1.642   8.761  18.943  0.00  0.00    +0.000 A 
ENDBRANCH  25  26
ENDBRANCH  23  25
ENDBRANCH  20  23
ENDBRANCH  18  20
ENDBRANCH   6  18
TORSDOF 6
ENDMDL
MODEL 8
REMARK VINA RESULT:      -8.2      3.807      8.239
REMARK  Name = 
REMARK  7 active torsions:
REMARK  status: ('A' for Active; 'I' for Inactive)
REMARK    1  A    between atoms: C_1  and  C_2
REMARK    2  A    between atoms: C_4  and  C_5
REMARK    3  A    between atoms: C_10  and  N_11
REMARK    4  A    between atoms: N_11  and  S_12
REMARK    5  A    between atoms: S_12  and  N_15
REMARK    6  A    between atoms: N_15  and  C_16
REMARK    7  A    between atoms: C_16  and  C_17
REMARK                            x       y       z     vdW  Elec       q    Type
REMARK                         _______ _______ _______ _____ _____    ______ ____
ROOT
ATOM      1  C   UNL     1       1.076   9.447  20.126  0.00  0.00    +0.000 A 
ATOM      2  N   UNL     1       0.863   8.832  21.303  0.00  0.00    +0.000 NA
ATOM      3  N   UNL     1       1.440   7.629  21.167  0.00  0.00    +0.000 N 
ATOM      4  C   UNL     1       2.026   7.423  19.950  0.00  0.00    +0.000 A 
ATOM      5  C   UNL     1       2.709   6.330  19.411  0.00  0.00    +0.000 A 
ATOM      6  C   UNL     1       3.145   6.511  18.101  0.00  0.00    +0.000 A 
ATOM      7  N   UNL     1       2.993   7.637  17.387  0.00  0.00    +0.000 NA
ATOM      8  C   UNL     1       2.360   8.697  17.954  0.00  0.00    +0.000 A 
ATOM      9  C   UNL     1       1.824   8.602  19.245  0.00  0.00    +0.000 A 
ATOM     10  H   UNL     1       1.390   6.986  21.951  0.00  0.00    +0.000 HD
ENDROOT
BRANCH   1  14
ATOM     11  C   UNL     1       0.621  14.251  21.453  0.00  0.00    +0.000 C 
ATOM     12  C   UNL     1       0.340  13.114  20.517  0.00  0.00    +0.000 A 
ATOM     13  C   UNL     1       0.880  11.854  20.751  0.00  0.00    +0.000 A 
ATOM     14  C   UNL     1       0.569  10.802  19.885  0.00  0.00    +0.000 A 
ATOM     15  C   UNL     1      -0.237  11.072  18.778  0.00  0.00    +0.000 A 
ATOM     16  C   UNL     1      -0.722  12.357  18.612  0.00  0.00    +0.000 A 
ATOM     17  N   UNL     1      -0.462  13.375  19.460  0.00  0.00    +0.000 NA
ENDBRANCH   1  14
BRANCH   6  18
ATOM     18  N   UNL     1       3.810   5.467  17.396  0.00  0.00    +0.000 N 
ATOM     19  H   UNL     1       3.288   4.602  17.515  0.00  0.00    +0.000 HD
BRANCH  18  20
ATOM     20  S   UNL     1       5.357   5.164  17.980  0.00  0.00    +0.000 S 
ATOM     21  O   UNL     1       6.361   5.506  17.009  0.00  0.00    +0.000 OA
ATOM     22  O   UNL     1       5.363   5.678  19.330  0.00  0.00    +0.000 OA
BRANCH  20  23
ATOM     23  N   UNL     1       5.233   3.491  18.086  0.00  0.00    +0.000 NA
ATOM     24  H   UNL     1       5.585   3.137  18.970  0.00  0.00    +0.000 HD
BRANCH  23  25
ATOM     25  C   UNL     1       3.916   2.931  17.733  0.00  0.00    +0.000 C 
BRANCH  25  26
ATOM     26  C   UNL     1       2.981   2.859  18.922  0.00  0.00    +0.000 A 
ATOM     27  C   UNL     1       3.507   2.749  20.220  0.00  0.00    +0.000 A 
ATOM     28  C   UNL     1       2.662   2.711  21.331  0.00  0.00    +0.000 A 
ATOM     29  C   UNL     1       1.282   2.786  21.164  0.00  0.00    +0.000 A 
ATOM     30  C   UNL     1       0.746   2.910  19.883  0.00  0.00    +0.000 A 
ATOM     31  C   UNL     1       1.589   2.947  18.768  0.00  0.00    +0.000 A 
ENDBRANCH  25  26
ENDBRANCH  23  25
ENDBRANCH  20  23
ENDBRANCH  18  20
ENDBRANCH   6  18
TORSDOF 6
ENDMDL
MODEL 9
REMARK VINA RESULT:      -8.2      3.148      5.041
REMARK  Name = 
REMARK  7 active torsions:
REMARK  status: ('A' for Active; 'I' for Inactive)
REMARK    1  A    between atoms: C_1  and  C_2
REMARK    2  A    between atoms: C_4  and  C_5
REMARK    3  A    between atoms: C_10  and  N_11
REMARK    4  A    between atoms: N_11  and  S_12
REMARK    5  A    between atoms: S_12  and  N_15
REMARK    6  A    between atoms: N_15  and  C_16
REMARK    7  A    between atoms: C_16  and  C_17
REMARK                            x       y       z     vdW  Elec       q    Type
REMARK                         _______ _______ _______ _____ _____    ______ ____
ROOT
ATOM      1  C   UNL     1       4.018   5.268  18.813  0.00  0.00    +0.000 A 
ATOM      2  N   UNL     1       3.887   4.107  19.478  0.00  0.00    +0.000 NA
ATOM      3  N   UNL     1       2.898   4.327  20.356  0.00  0.00    +0.000 N 
ATOM      4  C   UNL     1       2.367   5.585  20.299  0.00  0.00    +0.000 A 
ATOM      5  C   UNL     1       1.353   6.210  21.028  0.00  0.00    +0.000 A 
ATOM      6  C   UNL     1       1.118   7.535  20.673  0.00  0.00    +0.000 A 
ATOM      7  N   UNL     1       1.750   8.191  19.687  0.00  0.00    +0.000 NA
ATOM      8  C   UNL     1       2.704   7.544  18.968  0.00  0.00    +0.000 A 
ATOM      9  C   UNL     1       3.064   6.227  19.284  0.00  0.00    +0.000 A 
ATOM     10  H   UNL     1       2.635   3.569  20.978  0.00  0.00    +0.000 HD
ENDROOT
BRANCH   1  14
ATOM     11  C   UNL     1       5.764   4.250  14.234  0.00  0.00    +0.000 C 
ATOM     12  C   UNL     1       5.881   4.934  15.564  0.00  0.00    +0.000 A 
ATOM     13  C   UNL     1       4.876   4.806  16.517  0.00  0.00    +0.000 A 
ATOM     14  C   UNL     1       5.030   5.421  17.762  0.00  0.00    +0.000 A 
ATOM     15  C   UNL     1       6.172   6.192  17.984  0.00  0.00    +0.000 A 
ATOM     16  C   UNL     1       7.117   6.277  16.977  0.00  0.00    +0.000 A 
ATOM     17  N   UNL     1       7.002   5.658  15.783  0.00  0.00    +0.000 NA
ENDBRANCH   1  14
BRANCH   6  18
ATOM     18  N   UNL     1       0.152   8.322  21.361  0.00  0.00    +0.000 N 
ATOM     19  H   UNL     1      -0.499   8.714  20.684  0.00  0.00    +0.000 HD
BRANCH  18  20
ATOM     20  S   UNL     1       0.829   9.632  22.169  0.00  0.00    +0.000 S 
ATOM     21  O   UNL     1      -0.062  10.147  23.173  0.00  0.00    +0.000 OA
ATOM     22  O   UNL     1       2.191   9.242  22.454  0.00  0.00    +0.000 OA
BRANCH  20  23
ATOM     23  N   UNL     1       0.879  10.696  20.870  0.00  0.00    +0.000 NA
ATOM     24  H   UNL     1       1.103  10.225  19.999  0.00  0.00    +0.000 HD
BRANCH  23  25
ATOM     25  C   UNL     1      -0.280  11.597  20.745  0.00  0.00    +0.000 C 
BRANCH  25  26
ATOM     26  C   UNL     1      -1.120  11.295  19.521  0.00  0.00    +0.000 A 
ATOM     27  C   UNL     1      -0.680  10.340  18.590  0.00  0.00    +0.000 A 
ATOM     28  C   UNL     1      -1.453  10.025  17.471  0.00  0.00    +0.000 A 
ATOM     29  C   UNL     1      -2.678  10.656  17.268  0.00  0.00    +0.000 A 
ATOM     30  C   UNL     1      -3.134  11.596  18.191  0.00  0.00    +0.000 A 
ATOM     31  C   UNL     1      -2.361  11.914  19.311  0.00  0.00    +0.000 A 
ENDBRANCH  25  26
ENDBRANCH  23  25
ENDBRANCH  20  23
ENDBRANCH  18  20
ENDBRANCH   6  18
TORSDOF 6
ENDMDL
