MODEL 1
REMARK VINA RESULT:      -6.9      0.000      0.000
REMARK  Name = 
REMARK  1 active torsions:
REMARK  status: ('A' for Active; 'I' for Inactive)
REMARK    1  A    between atoms: C_8  and  C_9
REMARK                            x       y       z     vdW  Elec       q    Type
REMARK                         _______ _______ _______ _____ _____    ______ ____
ROOT
ATOM      1  C   UNL     1       4.756   4.656  18.946  0.00  0.00    +0.000 A 
ATOM      2  C   UNL     1       4.853   3.310  19.217  0.00  0.00    +0.000 A 
ATOM      3  S   UNL     1       3.516   2.735  20.104  0.00  0.00    +0.000 S 
ATOM      4  C   UNL     1       2.794   4.297  20.170  0.00  0.00    +0.000 A 
ATOM      5  C   UNL     1       1.568   4.628  20.782  0.00  0.00    +0.000 A 
ATOM      6  C   UNL     1       1.135   5.954  20.755  0.00  0.00    +0.000 A 
ATOM      7  C   UNL     1       1.906   6.928  20.136  0.00  0.00    +0.000 A 
ATOM      8 CL   UNL     1       1.359   8.560  20.119  0.00  0.00    +0.000 Cl
ATOM      9  C   UNL     1       3.117   6.600  19.520  0.00  0.00    +0.000 A 
ATOM     10  C   UNL     1       3.581   5.258  19.523  0.00  0.00    +0.000 A 
ENDROOT
BRANCH   1  18
ATOM     11  O   UNL     1       7.837   6.654  16.611  0.00  0.00    +0.000 OA
ATOM     12  C   UNL     1       7.109   5.796  16.143  0.00  0.00    +0.000 C 
ATOM     13  N   UNL     1       7.174   5.326  14.860  0.00  0.00    +0.000 N 
ATOM     14  C   UNL     1       6.294   4.357  14.485  0.00  0.00    +0.000 C 
ATOM     15  S   UNL     1       6.249   3.692  12.970  0.00  0.00    +0.000 S 
ATOM     16  S   UNL     1       5.260   3.945  15.833  0.00  0.00    +0.000 S 
ATOM     17  C   UNL     1       6.025   5.090  16.878  0.00  0.00    +0.000 C 
ATOM     18  C   UNL     1       5.744   5.337  18.165  0.00  0.00    +0.000 C 
ATOM     19  H   UNL     1       7.863   5.691  14.219  0.00  0.00    +0.000 HD
ENDBRANCH   1  18
TORSDOF 1
ENDMDL
MODEL 2
REMARK VINA RESULT:      -6.6      1.296      1.409
REMARK  Name = 
REMARK  1 active torsions:
REMARK  status: ('A' for Active; 'I' for Inactive)
REMARK    1  A    between atoms: C_8  and  C_9
REMARK                            x       y       z     vdW  Elec       q    Type
REMARK                         _______ _______ _______ _____ _____    ______ ____
ROOT
ATOM      1  C   UNL     1       4.212   3.451  19.246  0.00  0.00    +0.000 A 
ATOM      2  C   UNL     1       3.868   2.129  19.075  0.00  0.00    +0.000 A 
ATOM      3  S   UNL     1       2.214   1.851  19.379  0.00  0.00    +0.000 S 
ATOM      4  C   UNL     1       1.934   3.502  19.781  0.00  0.00    +0.000 A 
ATOM      5  C   UNL     1       0.703   4.075  20.158  0.00  0.00    +0.000 A 
ATOM      6  C   UNL     1       0.656   5.436  20.466  0.00  0.00    +0.000 A 
ATOM      7  C   UNL     1       1.809   6.206  20.403  0.00  0.00    +0.000 A 
ATOM      8 CL   UNL     1       1.734   7.881  20.794  0.00  0.00    +0.000 Cl
ATOM      9  C   UNL     1       3.029   5.641  20.020  0.00  0.00    +0.000 A 
ATOM     10  C   UNL     1       3.107   4.262  19.693  0.00  0.00    +0.000 A 
ENDROOT
BRANCH   1  18
ATOM     11  O   UNL     1       8.287   4.768  18.472  0.00  0.00    +0.000 OA
ATOM     12  C   UNL     1       7.471   4.592  17.584  0.00  0.00    +0.000 C 
ATOM     13  N   UNL     1       7.721   4.749  16.248  0.00  0.00    +0.000 N 
ATOM     14  C   UNL     1       6.707   4.509  15.372  0.00  0.00    +0.000 C 
ATOM     15  S   UNL     1       6.855   4.657  13.730  0.00  0.00    +0.000 S 
ATOM     16  S   UNL     1       5.273   4.027  16.247  0.00  0.00    +0.000 S 
ATOM     17  C   UNL     1       6.061   4.164  17.781  0.00  0.00    +0.000 C 
ATOM     18  C   UNL     1       5.541   3.919  18.991  0.00  0.00    +0.000 C 
ATOM     19  H   UNL     1       8.637   5.030  15.932  0.00  0.00    +0.000 HD
ENDBRANCH   1  18
TORSDOF 1
ENDMDL
MODEL 3
REMARK VINA RESULT:      -6.5      2.083      2.495
REMARK  Name = 
REMARK  1 active torsions:
REMARK  status: ('A' for Active; 'I' for Inactive)
REMARK    1  A    between atoms: C_8  and  C_9
REMARK                            x       y       z     vdW  Elec       q    Type
REMARK                         _______ _______ _______ _____ _____    ______ ____
ROOT
ATOM      1  C   UNL     1       3.598   3.463  17.711  0.00  0.00    +0.000 A 
ATOM      2  C   UNL     1       3.390   2.113  17.879  0.00  0.00    +0.000 A 
ATOM      3  S   UNL     1       2.271   1.786  19.123  0.00  0.00    +0.000 S 
ATOM      4  C   UNL     1       2.070   3.458  19.483  0.00  0.00    +0.000 A 
ATOM      5  C   UNL     1       1.226   4.006  20.470  0.00  0.00    +0.000 A 
ATOM      6  C   UNL     1       1.195   5.391  20.640  0.00  0.00    +0.000 A 
ATOM      7  C   UNL     1       1.988   6.209  19.848  0.00  0.00    +0.000 A 
ATOM      8 CL   UNL     1       1.942   7.915  20.076  0.00  0.00    +0.000 Cl
ATOM      9  C   UNL     1       2.818   5.668  18.863  0.00  0.00    +0.000 A 
ATOM     10  C   UNL     1       2.866   4.263  18.660  0.00  0.00    +0.000 A 
ENDROOT
BRANCH   1  18
ATOM     11  O   UNL     1       6.141   5.072  14.568  0.00  0.00    +0.000 OA
ATOM     12  C   UNL     1       6.265   5.383  15.740  0.00  0.00    +0.000 C 
ATOM     13  N   UNL     1       7.177   6.284  16.219  0.00  0.00    +0.000 N 
ATOM     14  C   UNL     1       7.191   6.534  17.558  0.00  0.00    +0.000 C 
ATOM     15  S   UNL     1       8.234   7.592  18.285  0.00  0.00    +0.000 S 
ATOM     16  S   UNL     1       5.956   5.581  18.348  0.00  0.00    +0.000 S 
ATOM     17  C   UNL     1       5.446   4.856  16.863  0.00  0.00    +0.000 C 
ATOM     18  C   UNL     1       4.460   3.967  16.684  0.00  0.00    +0.000 C 
ATOM     19  H   UNL     1       7.814   6.748  15.589  0.00  0.00    +0.000 HD
ENDBRANCH   1  18
TORSDOF 1
ENDMDL
MODEL 4
REMARK VINA RESULT:      -6.5      4.056      5.906
REMARK  Name = 
REMARK  1 active torsions:
REMARK  status: ('A' for Active; 'I' for Inactive)
REMARK    1  A    between atoms: C_8  and  C_9
REMARK                            x       y       z     vdW  Elec       q    Type
REMARK                         _______ _______ _______ _____ _____    ______ ____
ROOT
ATOM      1  C   UNL     1       3.944   6.202  17.909  0.00  0.00    +0.000 A 
ATOM      2  C   UNL     1       5.319   6.223  17.851  0.00  0.00    +0.000 A 
ATOM      3  S   UNL     1       5.992   4.666  18.015  0.00  0.00    +0.000 S 
ATOM      4  C   UNL     1       4.444   3.935  18.202  0.00  0.00    +0.000 A 
ATOM      5  C   UNL     1       4.183   2.562  18.386  0.00  0.00    +0.000 A 
ATOM      6  C   UNL     1       2.861   2.139  18.536  0.00  0.00    +0.000 A 
ATOM      7  C   UNL     1       1.826   3.062  18.505  0.00  0.00    +0.000 A 
ATOM      8 CL   UNL     1       0.202   2.523  18.698  0.00  0.00    +0.000 Cl
ATOM      9  C   UNL     1       2.082   4.422  18.312  0.00  0.00    +0.000 A 
ATOM     10  C   UNL     1       3.415   4.883  18.149  0.00  0.00    +0.000 A 
ENDROOT
BRANCH   1  18
ATOM     11  O   UNL     1       1.503   9.761  17.352  0.00  0.00    +0.000 OA
ATOM     12  C   UNL     1       1.553   9.156  18.408  0.00  0.00    +0.000 C 
ATOM     13  N   UNL     1       0.843   9.480  19.532  0.00  0.00    +0.000 N 
ATOM     14  C   UNL     1       0.999   8.701  20.638  0.00  0.00    +0.000 C 
ATOM     15  S   UNL     1       0.213   8.967  22.069  0.00  0.00    +0.000 S 
ATOM     16  S   UNL     1       2.130   7.412  20.296  0.00  0.00    +0.000 S 
ATOM     17  C   UNL     1       2.380   7.948  18.671  0.00  0.00    +0.000 C 
ATOM     18  C   UNL     1       3.168   7.394  17.740  0.00  0.00    +0.000 C 
ATOM     19  H   UNL     1       0.219  10.273  19.528  0.00  0.00    +0.000 HD
ENDBRANCH   1  18
TORSDOF 1
ENDMDL
MODEL 5
REMARK VINA RESULT:      -6.5      5.777      7.754
REMARK  Name = 
REMARK  1 active torsions:
REMARK  status: ('A' for Active; 'I' for Inactive)
REMARK    1  A    between atoms: C_8  and  C_9
REMARK                            x       y       z     vdW  Elec       q    Type
REMARK                         _______ _______ _______ _____ _____    ______ ____
ROOT
ATOM      1  C   UNL     1       1.791   7.673  20.196  0.00  0.00    +0.000 A 
ATOM      2  C   UNL     1       2.199   8.381  19.088  0.00  0.00    +0.000 A 
ATOM      3  S   UNL     1       2.716   7.359  17.827  0.00  0.00    +0.000 S 
ATOM      4  C   UNL     1       2.434   5.940  18.761  0.00  0.00    +0.000 A 
ATOM      5  C   UNL     1       2.639   4.609  18.345  0.00  0.00    +0.000 A 
ATOM      6  C   UNL     1       2.371   3.572  19.240  0.00  0.00    +0.000 A 
ATOM      7  C   UNL     1       1.912   3.854  20.518  0.00  0.00    +0.000 A 
ATOM      8 CL   UNL     1       1.593   2.562  21.611  0.00  0.00    +0.000 Cl
ATOM      9  C   UNL     1       1.698   5.173  20.929  0.00  0.00    +0.000 A 
ATOM     10  C   UNL     1       1.954   6.249  20.039  0.00  0.00    +0.000 A 
ENDROOT
BRANCH   1  18
ATOM     11  O   UNL     1       0.286   9.734  23.720  0.00  0.00    +0.000 OA
ATOM     12  C   UNL     1      -0.027  10.053  22.587  0.00  0.00    +0.000 C 
ATOM     13  N   UNL     1      -0.851  11.097  22.266  0.00  0.00    +0.000 N 
ATOM     14  C   UNL     1      -1.104  11.335  20.949  0.00  0.00    +0.000 C 
ATOM     15  S   UNL     1      -2.079  12.557  20.406  0.00  0.00    +0.000 S 
ATOM     16  S   UNL     1      -0.247  10.172  19.965  0.00  0.00    +0.000 S 
ATOM     17  C   UNL     1       0.433   9.379  21.344  0.00  0.00    +0.000 C 
ATOM     18  C   UNL     1       1.266   8.330  21.355  0.00  0.00    +0.000 C 
ATOM     19  H   UNL     1      -1.250  11.672  22.993  0.00  0.00    +0.000 HD
ENDBRANCH   1  18
TORSDOF 1
ENDMDL
MODEL 6
REMARK VINA RESULT:      -6.3      2.358      2.994
REMARK  Name = 
REMARK  1 active torsions:
REMARK  status: ('A' for Active; 'I' for Inactive)
REMARK    1  A    between atoms: C_8  and  C_9
REMARK                            x       y       z     vdW  Elec       q    Type
REMARK                         _______ _______ _______ _____ _____    ______ ____
ROOT
ATOM      1  C   UNL     1       4.117   5.884  18.766  0.00  0.00    +0.000 A 
ATOM      2  C   UNL     1       3.054   6.757  18.821  0.00  0.00    +0.000 A 
ATOM      3  S   UNL     1       1.771   6.148  19.762  0.00  0.00    +0.000 S 
ATOM      4  C   UNL     1       2.608   4.678  20.086  0.00  0.00    +0.000 A 
ATOM      5  C   UNL     1       2.140   3.603  20.869  0.00  0.00    +0.000 A 
ATOM      6  C   UNL     1       2.946   2.474  21.017  0.00  0.00    +0.000 A 
ATOM      7  C   UNL     1       4.187   2.415  20.398  0.00  0.00    +0.000 A 
ATOM      8 CL   UNL     1       5.165   1.011  20.587  0.00  0.00    +0.000 Cl
ATOM      9  C   UNL     1       4.656   3.484  19.630  0.00  0.00    +0.000 A 
ATOM     10  C   UNL     1       3.863   4.650  19.466  0.00  0.00    +0.000 A 
ENDROOT
BRANCH   1  18
ATOM     11  O   UNL     1       7.843   6.815  16.721  0.00  0.00    +0.000 OA
ATOM     12  C   UNL     1       7.013   6.052  16.261  0.00  0.00    +0.000 C 
ATOM     13  N   UNL     1       7.142   5.371  15.081  0.00  0.00    +0.000 N 
ATOM     14  C   UNL     1       6.128   4.545  14.701  0.00  0.00    +0.000 C 
ATOM     15  S   UNL     1       6.138   3.659  13.304  0.00  0.00    +0.000 S 
ATOM     16  S   UNL     1       4.860   4.576  15.904  0.00  0.00    +0.000 S 
ATOM     17  C   UNL     1       5.713   5.707  16.896  0.00  0.00    +0.000 C 
ATOM     18  C   UNL     1       5.326   6.216  18.073  0.00  0.00    +0.000 C 
ATOM     19  H   UNL     1       7.973   5.480  14.519  0.00  0.00    +0.000 HD
ENDBRANCH   1  18
TORSDOF 1
ENDMDL
MODEL 7
REMARK VINA RESULT:      -6.3      3.427      4.698
REMARK  Name = 
REMARK  1 active torsions:
REMARK  status: ('A' for Active; 'I' for Inactive)
REMARK    1  A    between atoms: C_8  and  C_9
REMARK                            x       y       z     vdW  Elec       q    Type
REMARK                         _______ _______ _______ _____ _____    ______ ____
ROOT
ATOM      1  C   UNL     1       2.211   7.442  19.165  0.00  0.00    +0.000 A 
ATOM      2  C   UNL     1       2.370   7.912  17.880  0.00  0.00    +0.000 A 
ATOM      3  S   UNL     1       1.815   9.514  17.710  0.00  0.00    +0.000 S 
ATOM      4  C   UNL     1       1.317   9.595  19.357  0.00  0.00    +0.000 A 
ATOM      5  C   UNL     1       0.729  10.703  20.000  0.00  0.00    +0.000 A 
ATOM      6  C   UNL     1       0.371  10.593  21.345  0.00  0.00    +0.000 A 
ATOM      7  C   UNL     1       0.592   9.407  22.031  0.00  0.00    +0.000 A 
ATOM      8 CL   UNL     1       0.137   9.287  23.687  0.00  0.00    +0.000 Cl
ATOM      9  C   UNL     1       1.184   8.311  21.397  0.00  0.00    +0.000 A 
ATOM     10  C   UNL     1       1.567   8.395  20.032  0.00  0.00    +0.000 A 
ENDROOT
BRANCH   1  18
ATOM     11  O   UNL     1       3.515   3.431  20.239  0.00  0.00    +0.000 OA
ATOM     12  C   UNL     1       4.181   4.175  19.540  0.00  0.00    +0.000 C 
ATOM     13  N   UNL     1       5.388   3.854  18.981  0.00  0.00    +0.000 N 
ATOM     14  C   UNL     1       6.011   4.792  18.215  0.00  0.00    +0.000 C 
ATOM     15  S   UNL     1       7.472   4.553  17.476  0.00  0.00    +0.000 S 
ATOM     16  S   UNL     1       5.034   6.240  18.145  0.00  0.00    +0.000 S 
ATOM     17  C   UNL     1       3.805   5.561  19.154  0.00  0.00    +0.000 C 
ATOM     18  C   UNL     1       2.660   6.136  19.546  0.00  0.00    +0.000 C 
ATOM     19  H   UNL     1       5.793   2.943  19.134  0.00  0.00    +0.000 HD
ENDBRANCH   1  18
TORSDOF 1
ENDMDL
MODEL 8
REMARK VINA RESULT:      -6.3      4.403      6.600
REMARK  Name = 
REMARK  1 active torsions:
REMARK  status: ('A' for Active; 'I' for Inactive)
REMARK    1  A    between atoms: C_8  and  C_9
REMARK                            x       y       z     vdW  Elec       q    Type
REMARK                         _______ _______ _______ _____ _____    ______ ____
ROOT
ATOM      1  C   UNL     1       3.005   6.459  18.000  0.00  0.00    +0.000 A 
ATOM      2  C   UNL     1       2.323   5.270  18.134  0.00  0.00    +0.000 A 
ATOM      3  S   UNL     1       3.375   3.930  18.188  0.00  0.00    +0.000 S 
ATOM      4  C   UNL     1       4.770   4.923  17.998  0.00  0.00    +0.000 A 
ATOM      5  C   UNL     1       6.109   4.487  17.957  0.00  0.00    +0.000 A 
ATOM      6  C   UNL     1       7.123   5.430  17.782  0.00  0.00    +0.000 A 
ATOM      7  C   UNL     1       6.809   6.775  17.647  0.00  0.00    +0.000 A 
ATOM      8 CL   UNL     1       8.073   7.923  17.424  0.00  0.00    +0.000 Cl
ATOM      9  C   UNL     1       5.482   7.210  17.698  0.00  0.00    +0.000 A 
ATOM     10  C   UNL     1       4.429   6.276  17.883  0.00  0.00    +0.000 A 
ENDROOT
BRANCH   1  18
ATOM     11  O   UNL     1       0.833  10.230  17.932  0.00  0.00    +0.000 OA
ATOM     12  C   UNL     1       1.000   9.584  18.952  0.00  0.00    +0.000 C 
ATOM     13  N   UNL     1       0.513   9.925  20.184  0.00  0.00    +0.000 N 
ATOM     14  C   UNL     1       0.776   9.096  21.231  0.00  0.00    +0.000 C 
ATOM     15  S   UNL     1       0.260   9.375  22.778  0.00  0.00    +0.000 S 
ATOM     16  S   UNL     1       1.718   7.730  20.680  0.00  0.00    +0.000 S 
ATOM     17  C   UNL     1       1.747   8.302  19.048  0.00  0.00    +0.000 C 
ATOM     18  C   UNL     1       2.321   7.717  17.987  0.00  0.00    +0.000 C 
ATOM     19  H   UNL     1      -0.029  10.768  20.301  0.00  0.00    +0.000 HD
ENDBRANCH   1  18
TORSDOF 1
ENDMDL
MODEL 9
REMARK VINA RESULT:      -6.2      3.322      3.886
REMARK  Name = 
REMARK  1 active torsions:
REMARK  status: ('A' for Active; 'I' for Inactive)
REMARK    1  A    between atoms: C_8  and  C_9
REMARK                            x       y       z     vdW  Elec       q    Type
REMARK                         _______ _______ _______ _____ _____    ______ ____
ROOT
ATOM      1  C   UNL     1       3.468   3.681  17.611  0.00  0.00    +0.000 A 
ATOM      2  C   UNL     1       2.224   4.168  17.281  0.00  0.00    +0.000 A 
ATOM      3  S   UNL     1       1.090   3.931  18.531  0.00  0.00    +0.000 S 
ATOM      4  C   UNL     1       2.246   3.136  19.530  0.00  0.00    +0.000 A 
ATOM      5  C   UNL     1       2.023   2.624  20.824  0.00  0.00    +0.000 A 
ATOM      6  C   UNL     1       3.073   1.992  21.492  0.00  0.00    +0.000 A 
ATOM      7  C   UNL     1       4.314   1.872  20.884  0.00  0.00    +0.000 A 
ATOM      8 CL   UNL     1       5.597   1.084  21.720  0.00  0.00    +0.000 Cl
ATOM      9  C   UNL     1       4.540   2.389  19.605  0.00  0.00    +0.000 A 
ATOM     10  C   UNL     1       3.494   3.043  18.903  0.00  0.00    +0.000 A 
ENDROOT
BRANCH   1  18
ATOM     11  O   UNL     1       6.802   4.167  14.856  0.00  0.00    +0.000 OA
ATOM     12  C   UNL     1       6.615   4.913  15.802  0.00  0.00    +0.000 C 
ATOM     13  N   UNL     1       7.387   6.000  16.107  0.00  0.00    +0.000 N 
ATOM     14  C   UNL     1       7.046   6.745  17.195  0.00  0.00    +0.000 C 
ATOM     15  S   UNL     1       7.882   8.084  17.692  0.00  0.00    +0.000 S 
ATOM     16  S   UNL     1       5.621   6.069  17.949  0.00  0.00    +0.000 S 
ATOM     17  C   UNL     1       5.511   4.791  16.790  0.00  0.00    +0.000 C 
ATOM     18  C   UNL     1       4.587   3.822  16.727  0.00  0.00    +0.000 C 
ATOM     19  H   UNL     1       8.181   6.238  15.531  0.00  0.00    +0.000 HD
ENDBRANCH   1  18
TORSDOF 1
ENDMDL
