MODEL 1
REMARK VINA RESULT:      -7.5      0.000      0.000
REMARK  Name = 
REMARK  9 active torsions:
REMARK  status: ('A' for Active; 'I' for Inactive)
REMARK    1  A    between atoms: C_1  and  O_2
REMARK    2  A    between atoms: O_2  and  C_3
REMARK    3  A    between atoms: C_3  and  O_4
REMARK    4  A    between atoms: O_4  and  C_5
REMARK    5  A    between atoms: C_5  and  C_7
REMARK    6  A    between atoms: C_7  and  C_8
REMARK    7  A    between atoms: C_15  and  N_16
REMARK    8  A    between atoms: C_19  and  C_20
REMARK    9  A    between atoms: C_25  and  O_26
REMARK                            x       y       z     vdW  Elec       q    Type
REMARK                         _______ _______ _______ _____ _____    ______ ____
ROOT
ATOM      1  C   UNL     1       5.762   4.002  13.458  0.00  0.00    +0.000 A 
ATOM      2  C   UNL     1       6.818   4.531  12.699  0.00  0.00    +0.000 A 
ATOM      3  C   UNL     1       7.876   5.196  13.319  0.00  0.00    +0.000 A 
ATOM      4  C   UNL     1       7.902   5.325  14.706  0.00  0.00    +0.000 A 
ATOM      5  C   UNL     1       6.844   4.824  15.468  0.00  0.00    +0.000 A 
ATOM      6  C   UNL     1       6.880   4.906  16.944  0.00  0.00    +0.000 A 
ATOM      7  O   UNL     1       7.882   5.303  17.522  0.00  0.00    +0.000 OA
ATOM      8  C   UNL     1       5.665   4.454  17.615  0.00  0.00    +0.000 A 
ATOM      9  C   UNL     1       4.630   3.940  16.928  0.00  0.00    +0.000 A 
ATOM     10  O   UNL     1       4.661   3.760  15.550  0.00  0.00    +0.000 OA
ATOM     11  C   UNL     1       5.759   4.199  14.849  0.00  0.00    +0.000 A 
ENDROOT
BRANCH   9  12
ATOM     12  C   UNL     1       3.328   3.574  17.507  0.00  0.00    +0.000 A 
ATOM     13  C   UNL     1       2.321   4.534  17.654  0.00  0.00    +0.000 A 
ATOM     14  C   UNL     1       1.088   4.176  18.209  0.00  0.00    +0.000 A 
ATOM     15  C   UNL     1       0.860   2.866  18.626  0.00  0.00    +0.000 A 
ATOM     16  C   UNL     1       1.857   1.902  18.491  0.00  0.00    +0.000 A 
ATOM     17  C   UNL     1       3.083   2.259  17.932  0.00  0.00    +0.000 A 
BRANCH  17  18
ATOM     18  O   UNL     1       4.072   1.323  17.790  0.00  0.00    +0.000 OA
ATOM     19  H   UNL     1       3.765   0.627  17.183  0.00  0.00    +0.000 HD
ENDBRANCH  17  18
ENDBRANCH   9  12
BRANCH   8  20
ATOM     20  N   UNL     1       5.629   4.488  19.044  0.00  0.00    +0.000 N 
ATOM     21  O   UNL     1       5.663   3.406  19.642  0.00  0.00    +0.000 OA
ATOM     22  O   UNL     1       5.559   5.605  19.582  0.00  0.00    +0.000 OA
ENDBRANCH   8  20
BRANCH   1  23
ATOM     23  C   UNL     1       4.652   3.239  12.770  0.00  0.00    +0.000 C 
BRANCH  23  24
ATOM     24  C   UNL     1       5.081   2.560  11.492  0.00  0.00    +0.000 C 
ATOM     25  O   UNL     1       5.678   1.496  11.413  0.00  0.00    +0.000 OA
BRANCH  24  26
ATOM     26  O   UNL     1       4.700   3.328  10.435  0.00  0.00    +0.000 OA
BRANCH  26  27
ATOM     27  C   UNL     1       3.306   3.625  10.374  0.00  0.00    +0.000 C 
BRANCH  27  29
ATOM     28  C   UNL     1       2.062   5.056   8.969  0.00  0.00    +0.000 C 
ATOM     29  O   UNL     1       2.847   3.875   9.051  0.00  0.00    +0.000 OA
ENDBRANCH  27  29
ENDBRANCH  26  27
ENDBRANCH  24  26
ENDBRANCH  23  24
ENDBRANCH   1  23
TORSDOF 8
ENDMDL
MODEL 2
REMARK VINA RESULT:      -7.1      0.656      1.286
REMARK  Name = 
REMARK  9 active torsions:
REMARK  status: ('A' for Active; 'I' for Inactive)
REMARK    1  A    between atoms: C_1  and  O_2
REMARK    2  A    between atoms: O_2  and  C_3
REMARK    3  A    between atoms: C_3  and  O_4
REMARK    4  A    between atoms: O_4  and  C_5
REMARK    5  A    between atoms: C_5  and  C_7
REMARK    6  A    between atoms: C_7  and  C_8
REMARK    7  A    between atoms: C_15  and  N_16
REMARK    8  A    between atoms: C_19  and  C_20
REMARK    9  A    between atoms: C_25  and  O_26
REMARK                            x       y       z     vdW  Elec       q    Type
REMARK                         _______ _______ _______ _____ _____    ______ ____
ROOT
ATOM      1  C   UNL     1       5.753   3.980  13.496  0.00  0.00    +0.000 A 
ATOM      2  C   UNL     1       6.800   4.498  12.716  0.00  0.00    +0.000 A 
ATOM      3  C   UNL     1       7.861   5.179  13.312  0.00  0.00    +0.000 A 
ATOM      4  C   UNL     1       7.900   5.336  14.697  0.00  0.00    +0.000 A 
ATOM      5  C   UNL     1       6.850   4.846  15.478  0.00  0.00    +0.000 A 
ATOM      6  C   UNL     1       6.900   4.958  16.952  0.00  0.00    +0.000 A 
ATOM      7  O   UNL     1       7.905   5.371  17.513  0.00  0.00    +0.000 OA
ATOM      8  C   UNL     1       5.693   4.515  17.643  0.00  0.00    +0.000 A 
ATOM      9  C   UNL     1       4.654   3.984  16.977  0.00  0.00    +0.000 A 
ATOM     10  O   UNL     1       4.673   3.777  15.602  0.00  0.00    +0.000 OA
ATOM     11  C   UNL     1       5.762   4.205  14.882  0.00  0.00    +0.000 A 
ENDROOT
BRANCH   9  12
ATOM     12  C   UNL     1       3.359   3.624  17.575  0.00  0.00    +0.000 A 
ATOM     13  C   UNL     1       2.991   2.282  17.722  0.00  0.00    +0.000 A 
ATOM     14  C   UNL     1       1.756   1.952  18.287  0.00  0.00    +0.000 A 
ATOM     15  C   UNL     1       0.881   2.956  18.699  0.00  0.00    +0.000 A 
ATOM     16  C   UNL     1       1.233   4.297  18.552  0.00  0.00    +0.000 A 
ATOM     17  C   UNL     1       2.467   4.624  17.994  0.00  0.00    +0.000 A 
BRANCH  17  18
ATOM     18  O   UNL     1       2.828   5.936  17.846  0.00  0.00    +0.000 OA
ATOM     19  H   UNL     1       3.293   6.043  16.998  0.00  0.00    +0.000 HD
ENDBRANCH  17  18
ENDBRANCH   9  12
BRANCH   8  20
ATOM     20  N   UNL     1       5.670   4.578  19.072  0.00  0.00    +0.000 N 
ATOM     21  O   UNL     1       5.765   3.512  19.692  0.00  0.00    +0.000 OA
ATOM     22  O   UNL     1       5.549   5.701  19.587  0.00  0.00    +0.000 OA
ENDBRANCH   8  20
BRANCH   1  23
ATOM     23  C   UNL     1       4.640   3.199  12.833  0.00  0.00    +0.000 C 
BRANCH  23  24
ATOM     24  C   UNL     1       4.979   2.713  11.446  0.00  0.00    +0.000 C 
ATOM     25  O   UNL     1       5.557   1.670  11.174  0.00  0.00    +0.000 OA
BRANCH  24  26
ATOM     26  O   UNL     1       4.543   3.628  10.538  0.00  0.00    +0.000 OA
BRANCH  26  27
ATOM     27  C   UNL     1       3.159   3.535  10.203  0.00  0.00    +0.000 C 
BRANCH  27  29
ATOM     28  C   UNL     1       2.056   5.131   8.860  0.00  0.00    +0.000 C 
ATOM     29  O   UNL     1       2.876   3.972   8.878  0.00  0.00    +0.000 OA
ENDBRANCH  27  29
ENDBRANCH  26  27
ENDBRANCH  24  26
ENDBRANCH  23  24
ENDBRANCH   1  23
TORSDOF 8
ENDMDL
MODEL 3
REMARK VINA RESULT:      -6.8     10.852     14.087
REMARK  Name = 
REMARK  9 active torsions:
REMARK  status: ('A' for Active; 'I' for Inactive)
REMARK    1  A    between atoms: C_1  and  O_2
REMARK    2  A    between atoms: O_2  and  C_3
REMARK    3  A    between atoms: C_3  and  O_4
REMARK    4  A    between atoms: O_4  and  C_5
REMARK    5  A    between atoms: C_5  and  C_7
REMARK    6  A    between atoms: C_7  and  C_8
REMARK    7  A    between atoms: C_15  and  N_16
REMARK    8  A    between atoms: C_19  and  C_20
REMARK    9  A    between atoms: C_25  and  O_26
REMARK                            x       y       z     vdW  Elec       q    Type
REMARK                         _______ _______ _______ _____ _____    ______ ____
ROOT
ATOM      1  C   UNL     1      -1.156  11.428  19.950  0.00  0.00    +0.000 A 
ATOM      2  C   UNL     1      -0.190  10.645  19.297  0.00  0.00    +0.000 A 
ATOM      3  C   UNL     1      -0.463  10.067  18.056  0.00  0.00    +0.000 A 
ATOM      4  C   UNL     1      -1.697  10.278  17.444  0.00  0.00    +0.000 A 
ATOM      5  C   UNL     1      -2.673  11.035  18.098  0.00  0.00    +0.000 A 
ATOM      6  C   UNL     1      -3.968  11.312  17.441  0.00  0.00    +0.000 A 
ATOM      7  O   UNL     1      -4.160  10.987  16.277  0.00  0.00    +0.000 OA
ATOM      8  C   UNL     1      -4.943  12.011  18.273  0.00  0.00    +0.000 A 
ATOM      9  C   UNL     1      -4.641  12.425  19.515  0.00  0.00    +0.000 A 
ATOM     10  O   UNL     1      -3.378  12.260  20.073  0.00  0.00    +0.000 OA
ATOM     11  C   UNL     1      -2.422  11.576  19.361  0.00  0.00    +0.000 A 
ENDROOT
BRANCH   9  12
ATOM     12  C   UNL     1      -5.592  13.026  20.463  0.00  0.00    +0.000 A 
ATOM     13  C   UNL     1      -6.492  12.222  21.173  0.00  0.00    +0.000 A 
ATOM     14  C   UNL     1      -7.395  12.804  22.068  0.00  0.00    +0.000 A 
ATOM     15  C   UNL     1      -7.410  14.185  22.251  0.00  0.00    +0.000 A 
ATOM     16  C   UNL     1      -6.524  14.997  21.546  0.00  0.00    +0.000 A 
ATOM     17  C   UNL     1      -5.620  14.415  20.659  0.00  0.00    +0.000 A 
BRANCH  17  18
ATOM     18  O   UNL     1      -4.741  15.199  19.961  0.00  0.00    +0.000 OA
ATOM     19  H   UNL     1      -4.152  14.627  19.439  0.00  0.00    +0.000 HD
ENDBRANCH  17  18
ENDBRANCH   9  12
BRANCH   8  20
ATOM     20  N   UNL     1      -6.215  12.330  17.703  0.00  0.00    +0.000 N 
ATOM     21  O   UNL     1      -7.133  11.517  17.865  0.00  0.00    +0.000 OA
ATOM     22  O   UNL     1      -6.304  13.400  17.079  0.00  0.00    +0.000 OA
ENDBRANCH   8  20
BRANCH   1  23
ATOM     23  C   UNL     1      -0.820  12.087  21.268  0.00  0.00    +0.000 C 
BRANCH  23  24
ATOM     24  C   UNL     1      -0.592  11.112  22.397  0.00  0.00    +0.000 C 
ATOM     25  O   UNL     1       0.427  10.462  22.587  0.00  0.00    +0.000 OA
BRANCH  24  26
ATOM     26  O   UNL     1      -1.710  11.065  23.172  0.00  0.00    +0.000 OA
BRANCH  26  27
ATOM     27  C   UNL     1      -2.411  12.301  23.299  0.00  0.00    +0.000 C 
BRANCH  27  29
ATOM     28  C   UNL     1      -4.344  12.500  24.637  0.00  0.00    +0.000 C 
ATOM     29  O   UNL     1      -3.823  12.136  23.367  0.00  0.00    +0.000 OA
ENDBRANCH  27  29
ENDBRANCH  26  27
ENDBRANCH  24  26
ENDBRANCH  23  24
ENDBRANCH   1  23
TORSDOF 8
ENDMDL
MODEL 4
REMARK VINA RESULT:      -6.7      9.893     13.822
REMARK  Name = 
REMARK  9 active torsions:
REMARK  status: ('A' for Active; 'I' for Inactive)
REMARK    1  A    between atoms: C_1  and  O_2
REMARK    2  A    between atoms: O_2  and  C_3
REMARK    3  A    between atoms: C_3  and  O_4
REMARK    4  A    between atoms: O_4  and  C_5
REMARK    5  A    between atoms: C_5  and  C_7
REMARK    6  A    between atoms: C_7  and  C_8
REMARK    7  A    between atoms: C_15  and  N_16
REMARK    8  A    between atoms: C_19  and  C_20
REMARK    9  A    between atoms: C_25  and  O_26
REMARK                            x       y       z     vdW  Elec       q    Type
REMARK                         _______ _______ _______ _____ _____    ______ ____
ROOT
ATOM      1  C   UNL     1      -4.374  13.387  21.567  0.00  0.00    +0.000 A 
ATOM      2  C   UNL     1      -5.703  13.784  21.781  0.00  0.00    +0.000 A 
ATOM      3  C   UNL     1      -6.690  13.506  20.834  0.00  0.00    +0.000 A 
ATOM      4  C   UNL     1      -6.364  12.814  19.670  0.00  0.00    +0.000 A 
ATOM      5  C   UNL     1      -5.039  12.437  19.437  0.00  0.00    +0.000 A 
ATOM      6  C   UNL     1      -4.684  11.656  18.232  0.00  0.00    +0.000 A 
ATOM      7  O   UNL     1      -5.555  11.229  17.487  0.00  0.00    +0.000 OA
ATOM      8  C   UNL     1      -3.254  11.428  18.046  0.00  0.00    +0.000 A 
ATOM      9  C   UNL     1      -2.351  11.844  18.950  0.00  0.00    +0.000 A 
ATOM     10  O   UNL     1      -2.712  12.472  20.136  0.00  0.00    +0.000 OA
ATOM     11  C   UNL     1      -4.039  12.754  20.360  0.00  0.00    +0.000 A 
ENDROOT
BRANCH   9  12
ATOM     12  C   UNL     1      -0.891  11.764  18.787  0.00  0.00    +0.000 A 
ATOM     13  C   UNL     1      -0.229  10.537  18.896  0.00  0.00    +0.000 A 
ATOM     14  C   UNL     1       1.159  10.473  18.743  0.00  0.00    +0.000 A 
ATOM     15  C   UNL     1       1.892  11.631  18.490  0.00  0.00    +0.000 A 
ATOM     16  C   UNL     1       1.245  12.862  18.385  0.00  0.00    +0.000 A 
ATOM     17  C   UNL     1      -0.140  12.922  18.531  0.00  0.00    +0.000 A 
BRANCH  17  18
ATOM     18  O   UNL     1      -0.790  14.122  18.428  0.00  0.00    +0.000 OA
ATOM     19  H   UNL     1      -1.686  13.969  18.083  0.00  0.00    +0.000 HD
ENDBRANCH  17  18
ENDBRANCH   9  12
BRANCH   8  20
ATOM     20  N   UNL     1      -2.832  10.667  16.911  0.00  0.00    +0.000 N 
ATOM     21  O   UNL     1      -2.822   9.435  17.022  0.00  0.00    +0.000 OA
ATOM     22  O   UNL     1      -2.501  11.301  15.896  0.00  0.00    +0.000 OA
ENDBRANCH   8  20
BRANCH   1  23
ATOM     23  C   UNL     1      -3.332  13.652  22.631  0.00  0.00    +0.000 C 
BRANCH  23  24
ATOM     24  C   UNL     1      -3.004  12.446  23.477  0.00  0.00    +0.000 C 
ATOM     25  O   UNL     1      -3.787  11.840  24.194  0.00  0.00    +0.000 OA
BRANCH  24  26
ATOM     26  O   UNL     1      -1.687  12.142  23.319  0.00  0.00    +0.000 OA
BRANCH  26  27
ATOM     27  C   UNL     1      -1.410  10.766  23.068  0.00  0.00    +0.000 C 
BRANCH  27  29
ATOM     28  C   UNL     1       0.509   9.519  22.492  0.00  0.00    +0.000 C 
ATOM     29  O   UNL     1      -0.091  10.384  23.445  0.00  0.00    +0.000 OA
ENDBRANCH  27  29
ENDBRANCH  26  27
ENDBRANCH  24  26
ENDBRANCH  23  24
ENDBRANCH   1  23
TORSDOF 8
ENDMDL
MODEL 5
REMARK VINA RESULT:      -6.6      3.591      7.270
REMARK  Name = 
REMARK  9 active torsions:
REMARK  status: ('A' for Active; 'I' for Inactive)
REMARK    1  A    between atoms: C_1  and  O_2
REMARK    2  A    between atoms: O_2  and  C_3
REMARK    3  A    between atoms: C_3  and  O_4
REMARK    4  A    between atoms: O_4  and  C_5
REMARK    5  A    between atoms: C_5  and  C_7
REMARK    6  A    between atoms: C_7  and  C_8
REMARK    7  A    between atoms: C_15  and  N_16
REMARK    8  A    between atoms: C_19  and  C_20
REMARK    9  A    between atoms: C_25  and  O_26
REMARK                            x       y       z     vdW  Elec       q    Type
REMARK                         _______ _______ _______ _____ _____    ______ ____
ROOT
ATOM      1  C   UNL     1       2.644   5.040  19.266  0.00  0.00    +0.000 A 
ATOM      2  C   UNL     1       1.538   4.205  19.043  0.00  0.00    +0.000 A 
ATOM      3  C   UNL     1       1.563   3.245  18.030  0.00  0.00    +0.000 A 
ATOM      4  C   UNL     1       2.701   3.096  17.239  0.00  0.00    +0.000 A 
ATOM      5  C   UNL     1       3.797   3.938  17.438  0.00  0.00    +0.000 A 
ATOM      6  C   UNL     1       5.031   3.759  16.644  0.00  0.00    +0.000 A 
ATOM      7  O   UNL     1       5.155   2.804  15.889  0.00  0.00    +0.000 OA
ATOM      8  C   UNL     1       6.057   4.774  16.863  0.00  0.00    +0.000 A 
ATOM      9  C   UNL     1       5.900   5.749  17.775  0.00  0.00    +0.000 A 
ATOM     10  O   UNL     1       4.782   5.832  18.597  0.00  0.00    +0.000 OA
ATOM     11  C   UNL     1       3.759   4.932  18.419  0.00  0.00    +0.000 A 
ENDROOT
BRANCH   9  12
ATOM     12  C   UNL     1       6.823   6.877  17.977  0.00  0.00    +0.000 A 
ATOM     13  C   UNL     1       6.659   8.067  17.260  0.00  0.00    +0.000 A 
ATOM     14  C   UNL     1       7.544   9.131  17.456  0.00  0.00    +0.000 A 
ATOM     15  C   UNL     1       8.598   9.010  18.360  0.00  0.00    +0.000 A 
ATOM     16  C   UNL     1       8.776   7.827  19.076  0.00  0.00    +0.000 A 
ATOM     17  C   UNL     1       7.889   6.770  18.883  0.00  0.00    +0.000 A 
BRANCH  17  18
ATOM     18  O   UNL     1       8.048   5.603  19.582  0.00  0.00    +0.000 OA
ATOM     19  H   UNL     1       7.529   4.903  19.151  0.00  0.00    +0.000 HD
ENDBRANCH  17  18
ENDBRANCH   9  12
BRANCH   8  20
ATOM     20  N   UNL     1       7.287   4.661  16.142  0.00  0.00    +0.000 N 
ATOM     21  O   UNL     1       8.252   4.162  16.734  0.00  0.00    +0.000 OA
ATOM     22  O   UNL     1       7.298   5.079  14.973  0.00  0.00    +0.000 OA
ENDBRANCH   8  20
BRANCH   1  23
ATOM     23  C   UNL     1       2.614   6.036  20.403  0.00  0.00    +0.000 C 
BRANCH  23  24
ATOM     24  C   UNL     1       1.875   7.311  20.077  0.00  0.00    +0.000 C 
ATOM     25  O   UNL     1       1.204   7.970  20.860  0.00  0.00    +0.000 OA
BRANCH  24  26
ATOM     26  O   UNL     1       2.068   7.610  18.764  0.00  0.00    +0.000 OA
BRANCH  26  27
ATOM     27  C   UNL     1       1.975   8.995  18.438  0.00  0.00    +0.000 C 
BRANCH  27  29
ATOM     28  C   UNL     1       0.149  10.489  18.505  0.00  0.00    +0.000 C 
ATOM     29  O   UNL     1       0.718   9.352  17.873  0.00  0.00    +0.000 OA
ENDBRANCH  27  29
ENDBRANCH  26  27
ENDBRANCH  24  26
ENDBRANCH  23  24
ENDBRANCH   1  23
TORSDOF 8
ENDMDL
MODEL 6
REMARK VINA RESULT:      -6.6      3.607      7.728
REMARK  Name = 
REMARK  9 active torsions:
REMARK  status: ('A' for Active; 'I' for Inactive)
REMARK    1  A    between atoms: C_1  and  O_2
REMARK    2  A    between atoms: O_2  and  C_3
REMARK    3  A    between atoms: C_3  and  O_4
REMARK    4  A    between atoms: O_4  and  C_5
REMARK    5  A    between atoms: C_5  and  C_7
REMARK    6  A    between atoms: C_7  and  C_8
REMARK    7  A    between atoms: C_15  and  N_16
REMARK    8  A    between atoms: C_19  and  C_20
REMARK    9  A    between atoms: C_25  and  O_26
REMARK                            x       y       z     vdW  Elec       q    Type
REMARK                         _______ _______ _______ _____ _____    ______ ____
ROOT
ATOM      1  C   UNL     1       2.627   4.990  19.298  0.00  0.00    +0.000 A 
ATOM      2  C   UNL     1       1.517   4.161  19.071  0.00  0.00    +0.000 A 
ATOM      3  C   UNL     1       1.541   3.200  18.060  0.00  0.00    +0.000 A 
ATOM      4  C   UNL     1       2.681   3.042  17.274  0.00  0.00    +0.000 A 
ATOM      5  C   UNL     1       3.781   3.879  17.476  0.00  0.00    +0.000 A 
ATOM      6  C   UNL     1       5.017   3.692  16.687  0.00  0.00    +0.000 A 
ATOM      7  O   UNL     1       5.139   2.736  15.934  0.00  0.00    +0.000 OA
ATOM      8  C   UNL     1       6.048   4.702  16.909  0.00  0.00    +0.000 A 
ATOM      9  C   UNL     1       5.892   5.679  17.819  0.00  0.00    +0.000 A 
ATOM     10  O   UNL     1       4.772   5.769  18.636  0.00  0.00    +0.000 OA
ATOM     11  C   UNL     1       3.745   4.875  18.455  0.00  0.00    +0.000 A 
ENDROOT
BRANCH   9  12
ATOM     12  C   UNL     1       6.821   6.802  18.023  0.00  0.00    +0.000 A 
ATOM     13  C   UNL     1       6.672   7.988  17.296  0.00  0.00    +0.000 A 
ATOM     14  C   UNL     1       7.563   9.047  17.494  0.00  0.00    +0.000 A 
ATOM     15  C   UNL     1       8.606   8.925  18.410  0.00  0.00    +0.000 A 
ATOM     16  C   UNL     1       8.769   7.747  19.136  0.00  0.00    +0.000 A 
ATOM     17  C   UNL     1       7.876   6.694  18.941  0.00  0.00    +0.000 A 
BRANCH  17  18
ATOM     18  O   UNL     1       8.021   5.531  19.649  0.00  0.00    +0.000 OA
ATOM     19  H   UNL     1       7.510   5.597  20.474  0.00  0.00    +0.000 HD
ENDBRANCH  17  18
ENDBRANCH   9  12
BRANCH   8  20
ATOM     20  N   UNL     1       7.280   4.581  16.193  0.00  0.00    +0.000 N 
ATOM     21  O   UNL     1       7.293   4.949  15.012  0.00  0.00    +0.000 OA
ATOM     22  O   UNL     1       8.249   4.108  16.810  0.00  0.00    +0.000 OA
ENDBRANCH   8  20
BRANCH   1  23
ATOM     23  C   UNL     1       2.598   5.988  20.433  0.00  0.00    +0.000 C 
BRANCH  23  24
ATOM     24  C   UNL     1       1.973   7.311  20.066  0.00  0.00    +0.000 C 
ATOM     25  O   UNL     1       2.197   7.951  19.048  0.00  0.00    +0.000 OA
BRANCH  24  26
ATOM     26  O   UNL     1       1.119   7.686  21.057  0.00  0.00    +0.000 OA
BRANCH  26  27
ATOM     27  C   UNL     1       1.028   9.092  21.278  0.00  0.00    +0.000 C 
BRANCH  27  29
ATOM     28  C   UNL     1      -0.131  11.094  20.811  0.00  0.00    +0.000 C 
ATOM     29  O   UNL     1      -0.107   9.683  20.654  0.00  0.00    +0.000 OA
ENDBRANCH  27  29
ENDBRANCH  26  27
ENDBRANCH  24  26
ENDBRANCH  23  24
ENDBRANCH   1  23
TORSDOF 8
ENDMDL
MODEL 7
REMARK VINA RESULT:      -6.6     10.734     13.957
REMARK  Name = 
REMARK  9 active torsions:
REMARK  status: ('A' for Active; 'I' for Inactive)
REMARK    1  A    between atoms: C_1  and  O_2
REMARK    2  A    between atoms: O_2  and  C_3
REMARK    3  A    between atoms: C_3  and  O_4
REMARK    4  A    between atoms: O_4  and  C_5
REMARK    5  A    between atoms: C_5  and  C_7
REMARK    6  A    between atoms: C_7  and  C_8
REMARK    7  A    between atoms: C_15  and  N_16
REMARK    8  A    between atoms: C_19  and  C_20
REMARK    9  A    between atoms: C_25  and  O_26
REMARK                            x       y       z     vdW  Elec       q    Type
REMARK                         _______ _______ _______ _____ _____    ______ ____
ROOT
ATOM      1  C   UNL     1      -1.406  11.795  20.280  0.00  0.00    +0.000 A 
ATOM      2  C   UNL     1      -0.374  11.029  19.713  0.00  0.00    +0.000 A 
ATOM      3  C   UNL     1      -0.549  10.403  18.478  0.00  0.00    +0.000 A 
ATOM      4  C   UNL     1      -1.749  10.550  17.786  0.00  0.00    +0.000 A 
ATOM      5  C   UNL     1      -2.790  11.289  18.353  0.00  0.00    +0.000 A 
ATOM      6  C   UNL     1      -4.051  11.497  17.609  0.00  0.00    +0.000 A 
ATOM      7  O   UNL     1      -4.158  11.130  16.448  0.00  0.00    +0.000 OA
ATOM      8  C   UNL     1      -5.099  12.185  18.357  0.00  0.00    +0.000 A 
ATOM      9  C   UNL     1      -4.890  12.648  19.601  0.00  0.00    +0.000 A 
ATOM     10  O   UNL     1      -3.659  12.547  20.240  0.00  0.00    +0.000 OA
ATOM     11  C   UNL     1      -2.638  11.878  19.611  0.00  0.00    +0.000 A 
ENDROOT
BRANCH   9  12
ATOM     12  C   UNL     1      -5.919  13.241  20.469  0.00  0.00    +0.000 A 
ATOM     13  C   UNL     1      -5.995  14.628  20.635  0.00  0.00    +0.000 A 
ATOM     14  C   UNL     1      -6.975  15.182  21.465  0.00  0.00    +0.000 A 
ATOM     15  C   UNL     1      -7.874  14.356  22.138  0.00  0.00    +0.000 A 
ATOM     16  C   UNL     1      -7.804  12.972  21.986  0.00  0.00    +0.000 A 
ATOM     17  C   UNL     1      -6.831  12.423  21.153  0.00  0.00    +0.000 A 
BRANCH  17  18
ATOM     18  O   UNL     1      -6.752  11.066  20.991  0.00  0.00    +0.000 OA
ATOM     19  H   UNL     1      -5.986  10.858  20.429  0.00  0.00    +0.000 HD
ENDBRANCH  17  18
ENDBRANCH   9  12
BRANCH   8  20
ATOM     20  N   UNL     1      -6.344  12.438  17.700  0.00  0.00    +0.000 N 
ATOM     21  O   UNL     1      -6.426  13.458  17.005  0.00  0.00    +0.000 OA
ATOM     22  O   UNL     1      -7.257  11.616  17.882  0.00  0.00    +0.000 OA
ENDBRANCH   8  20
BRANCH   1  23
ATOM     23  C   UNL     1      -1.176  12.506  21.594  0.00  0.00    +0.000 C 
BRANCH  23  24
ATOM     24  C   UNL     1      -1.556  11.690  22.805  0.00  0.00    +0.000 C 
ATOM     25  O   UNL     1      -2.690  11.525  23.231  0.00  0.00    +0.000 OA
BRANCH  24  26
ATOM     26  O   UNL     1      -0.427  11.167  23.356  0.00  0.00    +0.000 OA
BRANCH  26  27
ATOM     27  C   UNL     1      -0.230   9.773  23.126  0.00  0.00    +0.000 C 
BRANCH  27  29
ATOM     28  C   UNL     1       1.178   8.533  21.695  0.00  0.00    +0.000 C 
ATOM     29  O   UNL     1       1.111   9.448  22.779  0.00  0.00    +0.000 OA
ENDBRANCH  27  29
ENDBRANCH  26  27
ENDBRANCH  24  26
ENDBRANCH  23  24
ENDBRANCH   1  23
TORSDOF 8
ENDMDL
MODEL 8
REMARK VINA RESULT:      -6.6     10.612     13.349
REMARK  Name = 
REMARK  9 active torsions:
REMARK  status: ('A' for Active; 'I' for Inactive)
REMARK    1  A    between atoms: C_1  and  O_2
REMARK    2  A    between atoms: O_2  and  C_3
REMARK    3  A    between atoms: C_3  and  O_4
REMARK    4  A    between atoms: O_4  and  C_5
REMARK    5  A    between atoms: C_5  and  C_7
REMARK    6  A    between atoms: C_7  and  C_8
REMARK    7  A    between atoms: C_15  and  N_16
REMARK    8  A    between atoms: C_19  and  C_20
REMARK    9  A    between atoms: C_25  and  O_26
REMARK                            x       y       z     vdW  Elec       q    Type
REMARK                         _______ _______ _______ _____ _____    ______ ____
ROOT
ATOM      1  C   UNL     1      -3.975  11.401  17.709  0.00  0.00    +0.000 A 
ATOM      2  C   UNL     1      -3.677  10.595  16.598  0.00  0.00    +0.000 A 
ATOM      3  C   UNL     1      -2.448   9.941  16.501  0.00  0.00    +0.000 A 
ATOM      4  C   UNL     1      -1.508  10.069  17.522  0.00  0.00    +0.000 A 
ATOM      5  C   UNL     1      -1.786  10.888  18.619  0.00  0.00    +0.000 A 
ATOM      6  C   UNL     1      -0.822  10.994  19.736  0.00  0.00    +0.000 A 
ATOM      7  O   UNL     1       0.172  10.281  19.772  0.00  0.00    +0.000 OA
ATOM      8  C   UNL     1      -1.175  11.969  20.763  0.00  0.00    +0.000 A 
ATOM      9  C   UNL     1      -2.328  12.658  20.714  0.00  0.00    +0.000 A 
ATOM     10  O   UNL     1      -3.278  12.458  19.719  0.00  0.00    +0.000 OA
ATOM     11  C   UNL     1      -2.995  11.583  18.698  0.00  0.00    +0.000 A 
ENDROOT
BRANCH   9  12
ATOM     12  C   UNL     1      -2.708  13.740  21.635  0.00  0.00    +0.000 A 
ATOM     13  C   UNL     1      -2.186  15.028  21.471  0.00  0.00    +0.000 A 
ATOM     14  C   UNL     1      -2.550  16.049  22.354  0.00  0.00    +0.000 A 
ATOM     15  C   UNL     1      -3.426  15.788  23.407  0.00  0.00    +0.000 A 
ATOM     16  C   UNL     1      -3.948  14.508  23.584  0.00  0.00    +0.000 A 
ATOM     17  C   UNL     1      -3.589  13.493  22.699  0.00  0.00    +0.000 A 
BRANCH  17  18
ATOM     18  O   UNL     1      -4.095  12.231  22.859  0.00  0.00    +0.000 OA
ATOM     19  H   UNL     1      -3.358  11.599  22.912  0.00  0.00    +0.000 HD
ENDBRANCH  17  18
ENDBRANCH   9  12
BRANCH   8  20
ATOM     20  N   UNL     1      -0.299  12.119  21.884  0.00  0.00    +0.000 N 
ATOM     21  O   UNL     1       0.639  12.917  21.773  0.00  0.00    +0.000 OA
ATOM     22  O   UNL     1      -0.543  11.430  22.888  0.00  0.00    +0.000 OA
ENDBRANCH   8  20
BRANCH   1  23
ATOM     23  C   UNL     1      -5.333  12.057  17.817  0.00  0.00    +0.000 C 
BRANCH  23  24
ATOM     24  C   UNL     1      -6.353  11.228  18.557  0.00  0.00    +0.000 C 
ATOM     25  O   UNL     1      -6.280  10.027  18.773  0.00  0.00    +0.000 OA
BRANCH  24  26
ATOM     26  O   UNL     1      -7.380  12.034  18.943  0.00  0.00    +0.000 OA
BRANCH  26  27
ATOM     27  C   UNL     1      -7.563  12.147  20.353  0.00  0.00    +0.000 C 
BRANCH  27  29
ATOM     28  C   UNL     1      -6.594  14.238  20.861  0.00  0.00    +0.000 C 
ATOM     29  O   UNL     1      -6.495  12.828  21.002  0.00  0.00    +0.000 OA
ENDBRANCH  27  29
ENDBRANCH  26  27
ENDBRANCH  24  26
ENDBRANCH  23  24
ENDBRANCH   1  23
TORSDOF 8
ENDMDL
MODEL 9
REMARK VINA RESULT:      -6.6      9.400     11.648
REMARK  Name = 
REMARK  9 active torsions:
REMARK  status: ('A' for Active; 'I' for Inactive)
REMARK    1  A    between atoms: C_1  and  O_2
REMARK    2  A    between atoms: O_2  and  C_3
REMARK    3  A    between atoms: C_3  and  O_4
REMARK    4  A    between atoms: O_4  and  C_5
REMARK    5  A    between atoms: C_5  and  C_7
REMARK    6  A    between atoms: C_7  and  C_8
REMARK    7  A    between atoms: C_15  and  N_16
REMARK    8  A    between atoms: C_19  and  C_20
REMARK    9  A    between atoms: C_25  and  O_26
REMARK                            x       y       z     vdW  Elec       q    Type
REMARK                         _______ _______ _______ _____ _____    ______ ____
ROOT
ATOM      1  C   UNL     1       9.815  12.165  17.860  0.00  0.00    +0.000 A 
ATOM      2  C   UNL     1      11.140  11.951  17.448  0.00  0.00    +0.000 A 
ATOM      3  C   UNL     1      12.044  13.012  17.378  0.00  0.00    +0.000 A 
ATOM      4  C   UNL     1      11.640  14.297  17.736  0.00  0.00    +0.000 A 
ATOM      5  C   UNL     1      10.317  14.524  18.123  0.00  0.00    +0.000 A 
ATOM      6  C   UNL     1       9.885  15.870  18.556  0.00  0.00    +0.000 A 
ATOM      7  O   UNL     1      10.699  16.772  18.695  0.00  0.00    +0.000 OA
ATOM      8  C   UNL     1       8.455  16.001  18.822  0.00  0.00    +0.000 A 
ATOM      9  C   UNL     1       7.624  14.948  18.741  0.00  0.00    +0.000 A 
ATOM     10  O   UNL     1       8.068  13.664  18.448  0.00  0.00    +0.000 OA
ATOM     11  C   UNL     1       9.396  13.474  18.149  0.00  0.00    +0.000 A 
ENDROOT
BRANCH   9  12
ATOM     12  C   UNL     1       6.160  15.013  18.872  0.00  0.00    +0.000 A 
ATOM     13  C   UNL     1       5.347  15.088  17.736  0.00  0.00    +0.000 A 
ATOM     14  C   UNL     1       3.957  15.154  17.873  0.00  0.00    +0.000 A 
ATOM     15  C   UNL     1       3.375  15.153  19.139  0.00  0.00    +0.000 A 
ATOM     16  C   UNL     1       4.174  15.084  20.279  0.00  0.00    +0.000 A 
ATOM     17  C   UNL     1       5.559  15.013  20.141  0.00  0.00    +0.000 A 
BRANCH  17  18
ATOM     18  O   UNL     1       6.358  14.942  21.250  0.00  0.00    +0.000 OA
ATOM     19  H   UNL     1       7.012  15.661  21.217  0.00  0.00    +0.000 HD
ENDBRANCH  17  18
ENDBRANCH   9  12
BRANCH   8  20
ATOM     20  N   UNL     1       7.962  17.270  19.260  0.00  0.00    +0.000 N 
ATOM     21  O   UNL     1       7.573  18.062  18.393  0.00  0.00    +0.000 OA
ATOM     22  O   UNL     1       7.965  17.487  20.483  0.00  0.00    +0.000 OA
ENDBRANCH   8  20
BRANCH   1  23
ATOM     23  C   UNL     1       8.869  10.992  17.978  0.00  0.00    +0.000 C 
BRANCH  23  24
ATOM     24  C   UNL     1       9.103  10.140  19.201  0.00  0.00    +0.000 C 
ATOM     25  O   UNL     1       9.513  10.537  20.283  0.00  0.00    +0.000 OA
BRANCH  24  26
ATOM     26  O   UNL     1       8.792   8.849  18.905  0.00  0.00    +0.000 OA
BRANCH  26  27
ATOM     27  C   UNL     1       8.041   8.666  17.706  0.00  0.00    +0.000 C 
BRANCH  27  29
ATOM     28  C   UNL     1       7.826   6.485  18.580  0.00  0.00    +0.000 C 
ATOM     29  O   UNL     1       7.288   7.459  17.697  0.00  0.00    +0.000 OA
ENDBRANCH  27  29
ENDBRANCH  26  27
ENDBRANCH  24  26
ENDBRANCH  23  24
ENDBRANCH   1  23
TORSDOF 8
ENDMDL
