MODEL 1
REMARK VINA RESULT:      -8.3      0.000      0.000
REMARK  Name = 
REMARK  11 active torsions:
REMARK  status: ('A' for Active; 'I' for Inactive)
REMARK    1  A    between atoms: C_1  and  C_2
REMARK    2  A    between atoms: C_2  and  C_3
REMARK    3  A    between atoms: C_8  and  C_9
REMARK    4  A    between atoms: N_12  and  C_13
REMARK    5  A    between atoms: C_13  and  C_14
REMARK    6  A    between atoms: N_16  and  C_17
REMARK    7  A    between atoms: C_17  and  C_18
REMARK    8  A    between atoms: C_18  and  C_19
REMARK    9  A    between atoms: C_19  and  N_20
REMARK   10  A    between atoms: C_25  and  C_26
REMARK   11  A    between atoms: C_26  and  C_27
REMARK                            x       y       z     vdW  Elec       q    Type
REMARK                         _______ _______ _______ _____ _____    ______ ____
ROOT
ATOM      1  C   UNL     1       4.523   3.267  17.151  0.00  0.00    +0.000 C 
ENDROOT
BRANCH   1  11
ATOM      2  C   UNL     1       6.935   6.100  17.112  0.00  0.00    +0.000 C 
ATOM      3  O   UNL     1       7.699   5.920  15.927  0.00  0.00    +0.000 OA
ATOM      4  C   UNL     1       7.044   5.143  15.001  0.00  0.00    +0.000 A 
ATOM      5  C   UNL     1       7.529   5.227  13.696  0.00  0.00    +0.000 A 
ATOM      6  C   UNL     1       6.974   4.435  12.692  0.00  0.00    +0.000 A 
ATOM      7  C   UNL     1       5.916   3.571  12.986  0.00  0.00    +0.000 A 
ATOM      8  C   UNL     1       5.362   2.652  11.936  0.00  0.00    +0.000 C 
ATOM      9  C   UNL     1       5.405   3.519  14.298  0.00  0.00    +0.000 A 
ATOM     10  C   UNL     1       5.979   4.276  15.326  0.00  0.00    +0.000 A 
ATOM     11  N   UNL     1       5.614   4.118  16.696  0.00  0.00    +0.000 N 
ATOM     12  C   UNL     1       6.346   4.802  17.664  0.00  0.00    +0.000 C 
ATOM     13  O   UNL     1       6.389   4.467  18.848  0.00  0.00    +0.000 OA
BRANCH   2  15
ATOM     14  C   UNL     1       7.999   8.293  17.770  0.00  0.00    +0.000 C 
ATOM     15  C   UNL     1       7.763   6.841  18.164  0.00  0.00    +0.000 C 
ENDBRANCH   2  15
ENDBRANCH   1  11
BRANCH   1  16
ATOM     16  C   UNL     1       3.249   4.107  17.377  0.00  0.00    +0.000 C 
ATOM     17  O   UNL     1       2.124   3.642  17.133  0.00  0.00    +0.000 OA
ATOM     18  N   UNL     1       3.451   5.389  17.806  0.00  0.00    +0.000 N 
ATOM     19  H   UNL     1       4.396   5.705  18.012  0.00  0.00    +0.000 HD
BRANCH  18  20
ATOM     20  C   UNL     1       2.347   6.296  18.133  0.00  0.00    +0.000 C 
BRANCH  20  21
ATOM     21  C   UNL     1       2.843   7.733  18.279  0.00  0.00    +0.000 C 
BRANCH  21  22
ATOM     22  C   UNL     1       1.899   8.789  17.670  0.00  0.00    +0.000 C 
BRANCH  22  23
ATOM     23  N   UNL     1       1.487   9.856  18.593  0.00  0.00    +0.000 NA
ATOM     24  C   UNL     1       1.936  11.191  18.165  0.00  0.00    +0.000 C 
ATOM     25  C   UNL     1       1.621  12.271  19.203  0.00  0.00    +0.000 C 
ATOM     26  C   UNL     1       0.175  12.238  19.678  0.00  0.00    +0.000 C 
ATOM     27  C   UNL     1      -0.224  10.817  20.055  0.00  0.00    +0.000 C 
ATOM     28  C   UNL     1       0.033   9.825  18.902  0.00  0.00    +0.000 C 
BRANCH  28  29
ATOM     29  C   UNL     1      -0.893  10.068  17.680  0.00  0.00    +0.000 C 
ATOM     30  C   UNL     1      -2.378  10.099  18.027  0.00  0.00    +0.000 C 
ENDBRANCH  28  29
ENDBRANCH  22  23
ENDBRANCH  21  22
ENDBRANCH  20  21
ENDBRANCH  18  20
ENDBRANCH   1  16
TORSDOF 8
ENDMDL
MODEL 2
REMARK VINA RESULT:      -8.2      4.172      7.643
REMARK  Name = 
REMARK  11 active torsions:
REMARK  status: ('A' for Active; 'I' for Inactive)
REMARK    1  A    between atoms: C_1  and  C_2
REMARK    2  A    between atoms: C_2  and  C_3
REMARK    3  A    between atoms: C_8  and  C_9
REMARK    4  A    between atoms: N_12  and  C_13
REMARK    5  A    between atoms: C_13  and  C_14
REMARK    6  A    between atoms: N_16  and  C_17
REMARK    7  A    between atoms: C_17  and  C_18
REMARK    8  A    between atoms: C_18  and  C_19
REMARK    9  A    between atoms: C_19  and  N_20
REMARK   10  A    between atoms: C_25  and  C_26
REMARK   11  A    between atoms: C_26  and  C_27
REMARK                            x       y       z     vdW  Elec       q    Type
REMARK                         _______ _______ _______ _____ _____    ______ ____
ROOT
ATOM      1  C   UNL     1       7.134   5.853  18.581  0.00  0.00    +0.000 C 
ENDROOT
BRANCH   1  11
ATOM      2  C   UNL     1       5.756   4.392  15.448  0.00  0.00    +0.000 C 
ATOM      3  O   UNL     1       4.609   3.658  15.854  0.00  0.00    +0.000 OA
ATOM      4  C   UNL     1       4.118   4.090  17.064  0.00  0.00    +0.000 A 
ATOM      5  C   UNL     1       2.809   3.706  17.352  0.00  0.00    +0.000 A 
ATOM      6  C   UNL     1       2.237   4.042  18.578  0.00  0.00    +0.000 A 
ATOM      7  C   UNL     1       2.966   4.783  19.513  0.00  0.00    +0.000 A 
ATOM      8  C   UNL     1       2.396   5.082  20.868  0.00  0.00    +0.000 C 
ATOM      9  C   UNL     1       4.274   5.202  19.198  0.00  0.00    +0.000 A 
ATOM     10  C   UNL     1       4.878   4.837  17.990  0.00  0.00    +0.000 A 
ATOM     11  N   UNL     1       6.256   5.082  17.711  0.00  0.00    +0.000 N 
ATOM     12  C   UNL     1       6.806   4.547  16.548  0.00  0.00    +0.000 C 
ATOM     13  O   UNL     1       8.012   4.359  16.390  0.00  0.00    +0.000 OA
BRANCH   2  15
ATOM     14  C   UNL     1       5.355   3.805  13.025  0.00  0.00    +0.000 C 
ATOM     15  C   UNL     1       6.350   3.779  14.178  0.00  0.00    +0.000 C 
ENDBRANCH   2  15
ENDBRANCH   1  11
BRANCH   1  16
ATOM     16  C   UNL     1       7.371   7.257  17.992  0.00  0.00    +0.000 C 
ATOM     17  O   UNL     1       6.776   7.632  16.968  0.00  0.00    +0.000 OA
ATOM     18  N   UNL     1       8.303   8.022  18.635  0.00  0.00    +0.000 N 
ATOM     19  H   UNL     1       8.741   7.671  19.484  0.00  0.00    +0.000 HD
BRANCH  18  20
ATOM     20  C   UNL     1       8.598   9.405  18.244  0.00  0.00    +0.000 C 
BRANCH  20  21
ATOM     21  C   UNL     1       9.386  10.126  19.335  0.00  0.00    +0.000 C 
BRANCH  21  22
ATOM     22  C   UNL     1      10.269  11.279  18.816  0.00  0.00    +0.000 C 
BRANCH  22  23
ATOM     23  N   UNL     1       9.979  12.594  19.404  0.00  0.00    +0.000 NA
ATOM     24  C   UNL     1      10.514  12.745  20.767  0.00  0.00    +0.000 C 
ATOM     25  C   UNL     1      10.086  14.064  21.416  0.00  0.00    +0.000 C 
ATOM     26  C   UNL     1      10.332  15.274  20.528  0.00  0.00    +0.000 C 
ATOM     27  C   UNL     1       9.792  15.018  19.126  0.00  0.00    +0.000 C 
ATOM     28  C   UNL     1      10.368  13.723  18.519  0.00  0.00    +0.000 C 
BRANCH  28  29
ATOM     29  C   UNL     1      11.890  13.820  18.226  0.00  0.00    +0.000 C 
ATOM     30  C   UNL     1      12.265  13.481  16.787  0.00  0.00    +0.000 C 
ENDBRANCH  28  29
ENDBRANCH  22  23
ENDBRANCH  21  22
ENDBRANCH  20  21
ENDBRANCH  18  20
ENDBRANCH   1  16
TORSDOF 8
ENDMDL
MODEL 3
REMARK VINA RESULT:      -8.0      0.915      1.580
REMARK  Name = 
REMARK  11 active torsions:
REMARK  status: ('A' for Active; 'I' for Inactive)
REMARK    1  A    between atoms: C_1  and  C_2
REMARK    2  A    between atoms: C_2  and  C_3
REMARK    3  A    between atoms: C_8  and  C_9
REMARK    4  A    between atoms: N_12  and  C_13
REMARK    5  A    between atoms: C_13  and  C_14
REMARK    6  A    between atoms: N_16  and  C_17
REMARK    7  A    between atoms: C_17  and  C_18
REMARK    8  A    between atoms: C_18  and  C_19
REMARK    9  A    between atoms: C_19  and  N_20
REMARK   10  A    between atoms: C_25  and  C_26
REMARK   11  A    between atoms: C_26  and  C_27
REMARK                            x       y       z     vdW  Elec       q    Type
REMARK                         _______ _______ _______ _____ _____    ______ ____
ROOT
ATOM      1  C   UNL     1       4.567   3.162  17.099  0.00  0.00    +0.000 C 
ENDROOT
BRANCH   1  11
ATOM      2  C   UNL     1       6.875   6.081  17.112  0.00  0.00    +0.000 C 
ATOM      3  O   UNL     1       7.648   5.948  15.927  0.00  0.00    +0.000 OA
ATOM      4  C   UNL     1       7.024   5.163  14.986  0.00  0.00    +0.000 A 
ATOM      5  C   UNL     1       7.509   5.286  13.684  0.00  0.00    +0.000 A 
ATOM      6  C   UNL     1       6.985   4.491  12.667  0.00  0.00    +0.000 A 
ATOM      7  C   UNL     1       5.959   3.583  12.943  0.00  0.00    +0.000 A 
ATOM      8  C   UNL     1       5.441   2.662  11.877  0.00  0.00    +0.000 C 
ATOM      9  C   UNL     1       5.447   3.492  14.253  0.00  0.00    +0.000 A 
ATOM     10  C   UNL     1       5.990   4.253  15.295  0.00  0.00    +0.000 A 
ATOM     11  N   UNL     1       5.628   4.059  16.661  0.00  0.00    +0.000 N 
ATOM     12  C   UNL     1       6.332   4.754  17.642  0.00  0.00    +0.000 C 
ATOM     13  O   UNL     1       6.384   4.402  18.821  0.00  0.00    +0.000 OA
BRANCH   2  15
ATOM     14  C   UNL     1       7.953   8.271  17.757  0.00  0.00    +0.000 C 
ATOM     15  C   UNL     1       7.673   6.835  18.179  0.00  0.00    +0.000 C 
ENDBRANCH   2  15
ENDBRANCH   1  11
BRANCH   1  16
ATOM     16  C   UNL     1       3.241   3.934  17.244  0.00  0.00    +0.000 C 
ATOM     17  O   UNL     1       2.225   3.586  16.621  0.00  0.00    +0.000 OA
ATOM     18  N   UNL     1       3.280   5.036  18.052  0.00  0.00    +0.000 N 
ATOM     19  H   UNL     1       4.135   5.257  18.557  0.00  0.00    +0.000 HD
BRANCH  18  20
ATOM     20  C   UNL     1       2.091   5.840  18.351  0.00  0.00    +0.000 C 
BRANCH  20  21
ATOM     21  C   UNL     1       2.378   7.330  18.175  0.00  0.00    +0.000 C 
BRANCH  21  22
ATOM     22  C   UNL     1       2.179   8.165  19.456  0.00  0.00    +0.000 C 
BRANCH  22  23
ATOM     23  N   UNL     1       1.305   9.336  19.302  0.00  0.00    +0.000 NA
ATOM     24  C   UNL     1       0.211   9.113  18.343  0.00  0.00    +0.000 C 
ATOM     25  C   UNL     1      -0.607  10.383  18.089  0.00  0.00    +0.000 C 
ATOM     26  C   UNL     1      -1.050  11.073  19.371  0.00  0.00    +0.000 C 
ATOM     27  C   UNL     1       0.128  11.220  20.326  0.00  0.00    +0.000 C 
ATOM     28  C   UNL     1       0.815   9.867  20.601  0.00  0.00    +0.000 C 
BRANCH  28  29
ATOM     29  C   UNL     1      -0.083   8.887  21.403  0.00  0.00    +0.000 C 
ATOM     30  C   UNL     1      -0.472   9.399  22.786  0.00  0.00    +0.000 C 
ENDBRANCH  28  29
ENDBRANCH  22  23
ENDBRANCH  21  22
ENDBRANCH  20  21
ENDBRANCH  18  20
ENDBRANCH   1  16
TORSDOF 8
ENDMDL
MODEL 4
REMARK VINA RESULT:      -7.9      3.557      7.703
REMARK  Name = 
REMARK  11 active torsions:
REMARK  status: ('A' for Active; 'I' for Inactive)
REMARK    1  A    between atoms: C_1  and  C_2
REMARK    2  A    between atoms: C_2  and  C_3
REMARK    3  A    between atoms: C_8  and  C_9
REMARK    4  A    between atoms: N_12  and  C_13
REMARK    5  A    between atoms: C_13  and  C_14
REMARK    6  A    between atoms: N_16  and  C_17
REMARK    7  A    between atoms: C_17  and  C_18
REMARK    8  A    between atoms: C_18  and  C_19
REMARK    9  A    between atoms: C_19  and  N_20
REMARK   10  A    between atoms: C_25  and  C_26
REMARK   11  A    between atoms: C_26  and  C_27
REMARK                            x       y       z     vdW  Elec       q    Type
REMARK                         _______ _______ _______ _____ _____    ______ ____
ROOT
ATOM      1  C   UNL     1       5.102   5.860  16.623  0.00  0.00    +0.000 C 
ENDROOT
BRANCH   1  11
ATOM      2  C   UNL     1       3.482   3.980  19.396  0.00  0.00    +0.000 C 
ATOM      3  O   UNL     1       2.917   4.975  20.238  0.00  0.00    +0.000 OA
ATOM      4  C   UNL     1       2.716   6.163  19.575  0.00  0.00    +0.000 A 
ATOM      5  C   UNL     1       1.835   7.052  20.191  0.00  0.00    +0.000 A 
ATOM      6  C   UNL     1       1.607   8.308  19.632  0.00  0.00    +0.000 A 
ATOM      7  C   UNL     1       2.243   8.672  18.441  0.00  0.00    +0.000 A 
ATOM      8  C   UNL     1       2.072  10.049  17.869  0.00  0.00    +0.000 C 
ATOM      9  C   UNL     1       3.101   7.753  17.804  0.00  0.00    +0.000 A 
ATOM     10  C   UNL     1       3.373   6.504  18.374  0.00  0.00    +0.000 A 
ATOM     11  N   UNL     1       4.371   5.623  17.860  0.00  0.00    +0.000 N 
ATOM     12  C   UNL     1       4.679   4.472  18.582  0.00  0.00    +0.000 C 
ATOM     13  O   UNL     1       5.739   3.858  18.464  0.00  0.00    +0.000 OA
BRANCH   2  15
ATOM     14  C   UNL     1       2.864   2.545  21.379  0.00  0.00    +0.000 C 
ATOM     15  C   UNL     1       3.825   2.732  20.212  0.00  0.00    +0.000 C 
ENDBRANCH   2  15
ENDBRANCH   1  11
BRANCH   1  16
ATOM     16  C   UNL     1       6.584   6.153  16.927  0.00  0.00    +0.000 C 
ATOM     17  O   UNL     1       7.482   5.389  16.537  0.00  0.00    +0.000 OA
ATOM     18  N   UNL     1       6.828   7.265  17.685  0.00  0.00    +0.000 N 
ATOM     19  H   UNL     1       6.053   7.867  17.954  0.00  0.00    +0.000 HD
BRANCH  18  20
ATOM     20  C   UNL     1       8.184   7.721  18.006  0.00  0.00    +0.000 C 
BRANCH  20  21
ATOM     21  C   UNL     1       8.266   9.246  17.990  0.00  0.00    +0.000 C 
BRANCH  21  22
ATOM     22  C   UNL     1       8.859   9.858  19.275  0.00  0.00    +0.000 C 
BRANCH  22  23
ATOM     23  N   UNL     1      10.026  10.726  19.067  0.00  0.00    +0.000 NA
ATOM     24  C   UNL     1       9.933  11.527  17.835  0.00  0.00    +0.000 C 
ATOM     25  C   UNL     1      11.214  12.320  17.559  0.00  0.00    +0.000 C 
ATOM     26  C   UNL     1      11.696  13.112  18.766  0.00  0.00    +0.000 C 
ATOM     27  C   UNL     1      11.717  12.225  20.005  0.00  0.00    +0.000 C 
ATOM     28  C   UNL     1      10.349  11.559  20.255  0.00  0.00    +0.000 C 
BRANCH  28  29
ATOM     29  C   UNL     1       9.245  12.577  20.650  0.00  0.00    +0.000 C 
ATOM     30  C   UNL     1       9.630  13.482  21.816  0.00  0.00    +0.000 C 
ENDBRANCH  28  29
ENDBRANCH  22  23
ENDBRANCH  21  22
ENDBRANCH  20  21
ENDBRANCH  18  20
ENDBRANCH   1  16
TORSDOF 8
ENDMDL
MODEL 5
REMARK VINA RESULT:      -7.9      3.693      7.558
REMARK  Name = 
REMARK  11 active torsions:
REMARK  status: ('A' for Active; 'I' for Inactive)
REMARK    1  A    between atoms: C_1  and  C_2
REMARK    2  A    between atoms: C_2  and  C_3
REMARK    3  A    between atoms: C_8  and  C_9
REMARK    4  A    between atoms: N_12  and  C_13
REMARK    5  A    between atoms: C_13  and  C_14
REMARK    6  A    between atoms: N_16  and  C_17
REMARK    7  A    between atoms: C_17  and  C_18
REMARK    8  A    between atoms: C_18  and  C_19
REMARK    9  A    between atoms: C_19  and  N_20
REMARK   10  A    between atoms: C_25  and  C_26
REMARK   11  A    between atoms: C_26  and  C_27
REMARK                            x       y       z     vdW  Elec       q    Type
REMARK                         _______ _______ _______ _____ _____    ______ ____
ROOT
ATOM      1  C   UNL     1       4.769   6.147  16.813  0.00  0.00    +0.000 C 
ENDROOT
BRANCH   1  11
ATOM      2  C   UNL     1       2.427   7.285  19.472  0.00  0.00    +0.000 C 
ATOM      3  O   UNL     1       1.608   6.157  19.752  0.00  0.00    +0.000 OA
ATOM      4  C   UNL     1       2.203   4.977  19.371  0.00  0.00    +0.000 A 
ATOM      5  C   UNL     1       1.664   3.823  19.940  0.00  0.00    +0.000 A 
ATOM      6  C   UNL     1       2.155   2.571  19.575  0.00  0.00    +0.000 A 
ATOM      7  C   UNL     1       3.203   2.469  18.657  0.00  0.00    +0.000 A 
ATOM      8  C   UNL     1       3.688   1.127  18.192  0.00  0.00    +0.000 C 
ATOM      9  C   UNL     1       3.769   3.641  18.117  0.00  0.00    +0.000 A 
ATOM     10  C   UNL     1       3.260   4.903  18.439  0.00  0.00    +0.000 A 
ATOM     11  N   UNL     1       3.680   6.096  17.779  0.00  0.00    +0.000 N 
ATOM     12  C   UNL     1       3.008   7.284  18.058  0.00  0.00    +0.000 C 
ATOM     13  O   UNL     1       3.009   8.260  17.306  0.00  0.00    +0.000 OA
BRANCH   2  15
ATOM     14  C   UNL     1       1.115   8.585  21.193  0.00  0.00    +0.000 C 
ATOM     15  C   UNL     1       1.665   8.577  19.773  0.00  0.00    +0.000 C 
ENDBRANCH   2  15
ENDBRANCH   1  11
BRANCH   1  16
ATOM     16  C   UNL     1       6.110   6.391  17.533  0.00  0.00    +0.000 C 
ATOM     17  O   UNL     1       6.567   5.562  18.336  0.00  0.00    +0.000 OA
ATOM     18  N   UNL     1       6.719   7.586  17.266  0.00  0.00    +0.000 N 
ATOM     19  H   UNL     1       6.309   8.215  16.580  0.00  0.00    +0.000 HD
BRANCH  18  20
ATOM     20  C   UNL     1       8.030   7.945  17.815  0.00  0.00    +0.000 C 
BRANCH  20  21
ATOM     21  C   UNL     1       8.187   9.461  17.913  0.00  0.00    +0.000 C 
BRANCH  21  22
ATOM     22  C   UNL     1       8.886   9.940  19.201  0.00  0.00    +0.000 C 
BRANCH  22  23
ATOM     23  N   UNL     1      10.075  10.776  18.986  0.00  0.00    +0.000 NA
ATOM     24  C   UNL     1       9.995  11.584  17.758  0.00  0.00    +0.000 C 
ATOM     25  C   UNL     1      11.294  12.342  17.476  0.00  0.00    +0.000 C 
ATOM     26  C   UNL     1      11.807  13.117  18.681  0.00  0.00    +0.000 C 
ATOM     27  C   UNL     1      11.813  12.225  19.917  0.00  0.00    +0.000 C 
ATOM     28  C   UNL     1      10.429  11.596  20.175  0.00  0.00    +0.000 C 
BRANCH  28  29
ATOM     29  C   UNL     1       9.357  12.642  20.582  0.00  0.00    +0.000 C 
ATOM     30  C   UNL     1       9.798  13.571  21.708  0.00  0.00    +0.000 C 
ENDBRANCH  28  29
ENDBRANCH  22  23
ENDBRANCH  21  22
ENDBRANCH  20  21
ENDBRANCH  18  20
ENDBRANCH   1  16
TORSDOF 8
ENDMDL
MODEL 6
REMARK VINA RESULT:      -7.7      3.194      9.239
REMARK  Name = 
REMARK  11 active torsions:
REMARK  status: ('A' for Active; 'I' for Inactive)
REMARK    1  A    between atoms: C_1  and  C_2
REMARK    2  A    between atoms: C_2  and  C_3
REMARK    3  A    between atoms: C_8  and  C_9
REMARK    4  A    between atoms: N_12  and  C_13
REMARK    5  A    between atoms: C_13  and  C_14
REMARK    6  A    between atoms: N_16  and  C_17
REMARK    7  A    between atoms: C_17  and  C_18
REMARK    8  A    between atoms: C_18  and  C_19
REMARK    9  A    between atoms: C_19  and  N_20
REMARK   10  A    between atoms: C_25  and  C_26
REMARK   11  A    between atoms: C_26  and  C_27
REMARK                            x       y       z     vdW  Elec       q    Type
REMARK                         _______ _______ _______ _____ _____    ______ ____
ROOT
ATOM      1  C   UNL     1       1.280  10.080  18.398  0.00  0.00    +0.000 C 
ENDROOT
BRANCH   1  11
ATOM      2  C   UNL     1      -0.785  12.001  20.827  0.00  0.00    +0.000 C 
ATOM      3  O   UNL     1      -1.921  12.429  20.090  0.00  0.00    +0.000 OA
ATOM      4  C   UNL     1      -2.140  11.653  18.975  0.00  0.00    +0.000 A 
ATOM      5  C   UNL     1      -3.415  11.749  18.418  0.00  0.00    +0.000 A 
ATOM      6  C   UNL     1      -3.721  11.049  17.252  0.00  0.00    +0.000 A 
ATOM      7  C   UNL     1      -2.758  10.233  16.651  0.00  0.00    +0.000 A 
ATOM      8  C   UNL     1      -3.045   9.538  15.352  0.00  0.00    +0.000 C 
ATOM      9  C   UNL     1      -1.485  10.111  17.242  0.00  0.00    +0.000 A 
ATOM     10  C   UNL     1      -1.148  10.839  18.388  0.00  0.00    +0.000 A 
ATOM     11  N   UNL     1       0.179  10.886  18.910  0.00  0.00    +0.000 N 
ATOM     12  C   UNL     1       0.452  11.759  19.961  0.00  0.00    +0.000 C 
ATOM     13  O   UNL     1       1.582  12.166  20.232  0.00  0.00    +0.000 OA
BRANCH   2  15
ATOM     14  C   UNL     1      -1.362  12.691  23.186  0.00  0.00    +0.000 C 
ATOM     15  C   UNL     1      -0.497  12.981  21.967  0.00  0.00    +0.000 C 
ENDBRANCH   2  15
ENDBRANCH   1  11
BRANCH   1  16
ATOM     16  C   UNL     1       1.476   8.827  19.274  0.00  0.00    +0.000 C 
ATOM     17  O   UNL     1       0.933   8.731  20.387  0.00  0.00    +0.000 OA
ATOM     18  N   UNL     1       2.316   7.874  18.769  0.00  0.00    +0.000 N 
ATOM     19  H   UNL     1       2.712   7.997  17.840  0.00  0.00    +0.000 HD
BRANCH  18  20
ATOM     20  C   UNL     1       2.556   6.594  19.443  0.00  0.00    +0.000 C 
BRANCH  20  21
ATOM     21  C   UNL     1       2.201   5.420  18.533  0.00  0.00    +0.000 C 
BRANCH  21  22
ATOM     22  C   UNL     1       3.347   4.974  17.604  0.00  0.00    +0.000 C 
BRANCH  22  23
ATOM     23  N   UNL     1       4.660   5.557  17.917  0.00  0.00    +0.000 NA
ATOM     24  C   UNL     1       5.408   4.781  18.920  0.00  0.00    +0.000 C 
ATOM     25  C   UNL     1       6.709   5.472  19.337  0.00  0.00    +0.000 C 
ATOM     26  C   UNL     1       7.556   5.914  18.152  0.00  0.00    +0.000 C 
ATOM     27  C   UNL     1       6.698   6.666  17.142  0.00  0.00    +0.000 C 
ATOM     28  C   UNL     1       5.472   5.839  16.704  0.00  0.00    +0.000 C 
BRANCH  28  29
ATOM     29  C   UNL     1       5.856   4.582  15.876  0.00  0.00    +0.000 C 
ATOM     30  C   UNL     1       6.706   4.889  14.648  0.00  0.00    +0.000 C 
ENDBRANCH  28  29
ENDBRANCH  22  23
ENDBRANCH  21  22
ENDBRANCH  20  21
ENDBRANCH  18  20
ENDBRANCH   1  16
TORSDOF 8
ENDMDL
MODEL 7
REMARK VINA RESULT:      -7.7      4.127      7.346
REMARK  Name = 
REMARK  11 active torsions:
REMARK  status: ('A' for Active; 'I' for Inactive)
REMARK    1  A    between atoms: C_1  and  C_2
REMARK    2  A    between atoms: C_2  and  C_3
REMARK    3  A    between atoms: C_8  and  C_9
REMARK    4  A    between atoms: N_12  and  C_13
REMARK    5  A    between atoms: C_13  and  C_14
REMARK    6  A    between atoms: N_16  and  C_17
REMARK    7  A    between atoms: C_17  and  C_18
REMARK    8  A    between atoms: C_18  and  C_19
REMARK    9  A    between atoms: C_19  and  N_20
REMARK   10  A    between atoms: C_25  and  C_26
REMARK   11  A    between atoms: C_26  and  C_27
REMARK                            x       y       z     vdW  Elec       q    Type
REMARK                         _______ _______ _______ _____ _____    ______ ____
ROOT
ATOM      1  C   UNL     1       7.118   6.039  18.569  0.00  0.00    +0.000 C 
ENDROOT
BRANCH   1  11
ATOM      2  C   UNL     1       5.780   4.509  15.451  0.00  0.00    +0.000 C 
ATOM      3  O   UNL     1       4.590   3.842  15.848  0.00  0.00    +0.000 OA
ATOM      4  C   UNL     1       4.079   4.346  17.021  0.00  0.00    +0.000 A 
ATOM      5  C   UNL     1       2.746   4.030  17.280  0.00  0.00    +0.000 A 
ATOM      6  C   UNL     1       2.149   4.441  18.471  0.00  0.00    +0.000 A 
ATOM      7  C   UNL     1       2.879   5.188  19.399  0.00  0.00    +0.000 A 
ATOM      8  C   UNL     1       2.279   5.569  20.721  0.00  0.00    +0.000 C 
ATOM      9  C   UNL     1       4.214   5.538  19.113  0.00  0.00    +0.000 A 
ATOM     10  C   UNL     1       4.841   5.097  17.942  0.00  0.00    +0.000 A 
ATOM     11  N   UNL     1       6.236   5.271  17.701  0.00  0.00    +0.000 N 
ATOM     12  C   UNL     1       6.800   4.665  16.581  0.00  0.00    +0.000 C 
ATOM     13  O   UNL     1       8.001   4.419  16.471  0.00  0.00    +0.000 OA
BRANCH   2  15
ATOM     14  C   UNL     1       5.439   3.851  13.038  0.00  0.00    +0.000 C 
ATOM     15  C   UNL     1       6.388   3.819  14.229  0.00  0.00    +0.000 C 
ENDBRANCH   2  15
ENDBRANCH   1  11
BRANCH   1  16
ATOM     16  C   UNL     1       7.434   7.408  17.933  0.00  0.00    +0.000 C 
ATOM     17  O   UNL     1       6.852   7.786  16.904  0.00  0.00    +0.000 OA
ATOM     18  N   UNL     1       8.419   8.134  18.543  0.00  0.00    +0.000 N 
ATOM     19  H   UNL     1       8.844   7.783  19.399  0.00  0.00    +0.000 HD
BRANCH  18  20
ATOM     20  C   UNL     1       8.793   9.482  18.105  0.00  0.00    +0.000 C 
BRANCH  20  21
ATOM     21  C   UNL     1       9.081  10.386  19.303  0.00  0.00    +0.000 C 
BRANCH  21  22
ATOM     22  C   UNL     1      10.424  11.138  19.215  0.00  0.00    +0.000 C 
BRANCH  22  23
ATOM     23  N   UNL     1      10.309  12.596  19.074  0.00  0.00    +0.000 NA
ATOM     24  C   UNL     1       9.021  13.018  18.499  0.00  0.00    +0.000 C 
ATOM     25  C   UNL     1       8.971  14.525  18.230  0.00  0.00    +0.000 C 
ATOM     26  C   UNL     1       9.407  15.359  19.426  0.00  0.00    +0.000 C 
ATOM     27  C   UNL     1      10.719  14.828  19.989  0.00  0.00    +0.000 C 
ATOM     28  C   UNL     1      10.631  13.327  20.328  0.00  0.00    +0.000 C 
BRANCH  28  29
ATOM     29  C   UNL     1       9.671  13.031  21.512  0.00  0.00    +0.000 C 
ATOM     30  C   UNL     1       9.399  14.240  22.403  0.00  0.00    +0.000 C 
ENDBRANCH  28  29
ENDBRANCH  22  23
ENDBRANCH  21  22
ENDBRANCH  20  21
ENDBRANCH  18  20
ENDBRANCH   1  16
TORSDOF 8
ENDMDL
MODEL 8
REMARK VINA RESULT:      -7.6      3.280      9.469
REMARK  Name = 
REMARK  11 active torsions:
REMARK  status: ('A' for Active; 'I' for Inactive)
REMARK    1  A    between atoms: C_1  and  C_2
REMARK    2  A    between atoms: C_2  and  C_3
REMARK    3  A    between atoms: C_8  and  C_9
REMARK    4  A    between atoms: N_12  and  C_13
REMARK    5  A    between atoms: C_13  and  C_14
REMARK    6  A    between atoms: N_16  and  C_17
REMARK    7  A    between atoms: C_17  and  C_18
REMARK    8  A    between atoms: C_18  and  C_19
REMARK    9  A    between atoms: C_19  and  N_20
REMARK   10  A    between atoms: C_25  and  C_26
REMARK   11  A    between atoms: C_26  and  C_27
REMARK                            x       y       z     vdW  Elec       q    Type
REMARK                         _______ _______ _______ _____ _____    ______ ____
ROOT
ATOM      1  C   UNL     1       1.230  10.000  18.808  0.00  0.00    +0.000 C 
ENDROOT
BRANCH   1  11
ATOM      2  C   UNL     1      -0.855  11.977  21.173  0.00  0.00    +0.000 C 
ATOM      3  O   UNL     1      -1.937  12.467  20.392  0.00  0.00    +0.000 OA
ATOM      4  C   UNL     1      -2.138  11.718  19.257  0.00  0.00    +0.000 A 
ATOM      5  C   UNL     1      -3.381  11.879  18.645  0.00  0.00    +0.000 A 
ATOM      6  C   UNL     1      -3.664  11.211  17.455  0.00  0.00    +0.000 A 
ATOM      7  C   UNL     1      -2.713  10.361  16.884  0.00  0.00    +0.000 A 
ATOM      8  C   UNL     1      -2.971   9.698  15.563  0.00  0.00    +0.000 C 
ATOM      9  C   UNL     1      -1.474  10.173  17.529  0.00  0.00    +0.000 A 
ATOM     10  C   UNL     1      -1.158  10.868  18.702  0.00  0.00    +0.000 A 
ATOM     11  N   UNL     1       0.145  10.848  19.283  0.00  0.00    +0.000 N 
ATOM     12  C   UNL     1       0.408  11.692  20.359  0.00  0.00    +0.000 C 
ATOM     13  O   UNL     1       1.541  12.044  20.688  0.00  0.00    +0.000 OA
BRANCH   2  15
ATOM     14  C   UNL     1      -1.782  13.051  23.262  0.00  0.00    +0.000 C 
ATOM     15  C   UNL     1      -0.576  12.926  22.340  0.00  0.00    +0.000 C 
ENDBRANCH   2  15
ENDBRANCH   1  11
BRANCH   1  16
ATOM     16  C   UNL     1       1.356   8.746  19.696  0.00  0.00    +0.000 C 
ATOM     17  O   UNL     1       0.812   8.693  20.811  0.00  0.00    +0.000 OA
ATOM     18  N   UNL     1       2.137   7.741  19.197  0.00  0.00    +0.000 N 
ATOM     19  H   UNL     1       2.537   7.831  18.266  0.00  0.00    +0.000 HD
BRANCH  18  20
ATOM     20  C   UNL     1       2.305   6.456  19.883  0.00  0.00    +0.000 C 
BRANCH  20  21
ATOM     21  C   UNL     1       3.571   5.744  19.410  0.00  0.00    +0.000 C 
BRANCH  21  22
ATOM     22  C   UNL     1       3.704   5.649  17.877  0.00  0.00    +0.000 C 
BRANCH  22  23
ATOM     23  N   UNL     1       4.910   4.958  17.402  0.00  0.00    +0.000 NA
ATOM     24  C   UNL     1       4.875   4.668  15.959  0.00  0.00    +0.000 C 
ATOM     25  C   UNL     1       6.072   3.828  15.506  0.00  0.00    +0.000 C 
ATOM     26  C   UNL     1       7.406   4.383  15.984  0.00  0.00    +0.000 C 
ATOM     27  C   UNL     1       7.342   4.701  17.472  0.00  0.00    +0.000 C 
ATOM     28  C   UNL     1       6.167   5.641  17.807  0.00  0.00    +0.000 C 
BRANCH  28  29
ATOM     29  C   UNL     1       6.348   7.066  17.218  0.00  0.00    +0.000 C 
ATOM     30  C   UNL     1       7.676   7.721  17.584  0.00  0.00    +0.000 C 
ENDBRANCH  28  29
ENDBRANCH  22  23
ENDBRANCH  21  22
ENDBRANCH  20  21
ENDBRANCH  18  20
ENDBRANCH   1  16
TORSDOF 8
ENDMDL
MODEL 9
REMARK VINA RESULT:      -7.5      3.557      9.749
REMARK  Name = 
REMARK  11 active torsions:
REMARK  status: ('A' for Active; 'I' for Inactive)
REMARK    1  A    between atoms: C_1  and  C_2
REMARK    2  A    between atoms: C_2  and  C_3
REMARK    3  A    between atoms: C_8  and  C_9
REMARK    4  A    between atoms: N_12  and  C_13
REMARK    5  A    between atoms: C_13  and  C_14
REMARK    6  A    between atoms: N_16  and  C_17
REMARK    7  A    between atoms: C_17  and  C_18
REMARK    8  A    between atoms: C_18  and  C_19
REMARK    9  A    between atoms: C_19  and  N_20
REMARK   10  A    between atoms: C_25  and  C_26
REMARK   11  A    between atoms: C_26  and  C_27
REMARK                            x       y       z     vdW  Elec       q    Type
REMARK                         _______ _______ _______ _____ _____    ______ ____
ROOT
ATOM      1  C   UNL     1       0.896  10.530  19.435  0.00  0.00    +0.000 C 
ENDROOT
BRANCH   1  11
ATOM      2  C   UNL     1      -1.765  12.042  21.552  0.00  0.00    +0.000 C 
ATOM      3  O   UNL     1      -2.776  12.451  20.640  0.00  0.00    +0.000 OA
ATOM      4  C   UNL     1      -2.704  11.772  19.447  0.00  0.00    +0.000 A 
ATOM      5  C   UNL     1      -3.852  11.823  18.657  0.00  0.00    +0.000 A 
ATOM      6  C   UNL     1      -3.863  11.218  17.401  0.00  0.00    +0.000 A 
ATOM      7  C   UNL     1      -2.731  10.541  16.939  0.00  0.00    +0.000 A 
ATOM      8  C   UNL     1      -2.698   9.954  15.558  0.00  0.00    +0.000 C 
ATOM      9  C   UNL     1      -1.588  10.460  17.759  0.00  0.00    +0.000 A 
ATOM     10  C   UNL     1      -1.546  11.097  19.004  0.00  0.00    +0.000 A 
ATOM     11  N   UNL     1      -0.353  11.196  19.781  0.00  0.00    +0.000 N 
ATOM     12  C   UNL     1      -0.369  11.981  20.931  0.00  0.00    +0.000 C 
ATOM     13  O   UNL     1       0.645  12.445  21.453  0.00  0.00    +0.000 OA
BRANCH   2  15
ATOM     14  C   UNL     1      -3.067  12.713  23.608  0.00  0.00    +0.000 C 
ATOM     15  C   UNL     1      -1.794  12.926  22.801  0.00  0.00    +0.000 C 
ENDBRANCH   2  15
ENDBRANCH   1  11
BRANCH   1  16
ATOM     16  C   UNL     1       0.987   9.164  20.143  0.00  0.00    +0.000 C 
ATOM     17  O   UNL     1       0.326   8.928  21.167  0.00  0.00    +0.000 OA
ATOM     18  N   UNL     1       1.871   8.272  19.603  0.00  0.00    +0.000 N 
ATOM     19  H   UNL     1       2.367   8.513  18.748  0.00  0.00    +0.000 HD
BRANCH  18  20
ATOM     20  C   UNL     1       2.028   6.907  20.114  0.00  0.00    +0.000 C 
BRANCH  20  21
ATOM     21  C   UNL     1       2.624   5.988  19.050  0.00  0.00    +0.000 C 
BRANCH  21  22
ATOM     22  C   UNL     1       4.062   5.522  19.354  0.00  0.00    +0.000 C 
BRANCH  22  23
ATOM     23  N   UNL     1       4.935   5.396  18.179  0.00  0.00    +0.000 NA
ATOM     24  C   UNL     1       6.296   4.951  18.520  0.00  0.00    +0.000 C 
ATOM     25  C   UNL     1       7.230   4.959  17.307  0.00  0.00    +0.000 C 
ATOM     26  C   UNL     1       6.642   4.249  16.096  0.00  0.00    +0.000 C 
ATOM     27  C   UNL     1       5.220   4.731  15.842  0.00  0.00    +0.000 C 
ATOM     28  C   UNL     1       4.332   4.579  17.093  0.00  0.00    +0.000 C 
BRANCH  28  29
ATOM     29  C   UNL     1       4.069   3.096  17.470  0.00  0.00    +0.000 C 
ATOM     30  C   UNL     1       2.594   2.708  17.456  0.00  0.00    +0.000 C 
ENDBRANCH  28  29
ENDBRANCH  22  23
ENDBRANCH  21  22
ENDBRANCH  20  21
ENDBRANCH  18  20
ENDBRANCH   1  16
TORSDOF 8
ENDMDL
