MODEL 1
REMARK VINA RESULT:      -7.8      0.000      0.000
REMARK  Name = 
REMARK  6 active torsions:
REMARK  status: ('A' for Active; 'I' for Inactive)
REMARK    1  A    between atoms: C_1  and  C_2
REMARK    2  A    between atoms: N_4  and  C_5
REMARK    3  A    between atoms: C_5  and  C_6
REMARK    4  A    between atoms: C_5  and  C_7
REMARK    5  A    between atoms: C_18  and  C_19
REMARK    6  A    between atoms: C_20  and  N_21
REMARK                            x       y       z     vdW  Elec       q    Type
REMARK                         _______ _______ _______ _____ _____    ______ ____
ROOT
ATOM      1  C   UNL     1       3.023   5.492  20.016  0.00  0.00    +0.000 C 
ATOM      2  C   UNL     1       2.124   4.565  20.842  0.00  0.00    +0.000 C 
ENDROOT
BRANCH   1   3
ATOM      3  C   UNL     1       3.452   4.763  18.752  0.00  0.00    +0.000 C 
ATOM      4  O   UNL     1       2.614   4.190  18.049  0.00  0.00    +0.000 OA
ATOM      5  N   UNL     1       4.799   4.855  18.411  0.00  0.00    +0.000 N 
ATOM      6  C   UNL     1       5.938   5.060  19.330  0.00  0.00    +0.000 C 
ATOM      7  C   UNL     1       7.175   5.331  18.472  0.00  0.00    +0.000 C 
ATOM      8  C   UNL     1       6.700   4.917  17.118  0.00  0.00    +0.000 A 
ATOM      9  C   UNL     1       7.443   4.897  15.947  0.00  0.00    +0.000 A 
ATOM     10  C   UNL     1       6.785   4.605  14.753  0.00  0.00    +0.000 A 
ATOM     11  C   UNL     1       5.410   4.333  14.747  0.00  0.00    +0.000 A 
ATOM     12  C   UNL     1       4.672   4.353  15.936  0.00  0.00    +0.000 A 
ATOM     13  C   UNL     1       5.330   4.655  17.117  0.00  0.00    +0.000 A 
ENDBRANCH   1   3
BRANCH   1  17
ATOM     14  C   UNL     1       0.234   9.185  21.333  0.00  0.00    +0.000 C 
ATOM     15  C   UNL     1       1.128   8.425  20.425  0.00  0.00    +0.000 A 
ATOM     16  N   UNL     1       1.681   7.283  20.849  0.00  0.00    +0.000 NA
ATOM     17  N   UNL     1       2.397   6.814  19.792  0.00  0.00    +0.000 N 
ATOM     18  C   UNL     1       2.451   7.736  18.762  0.00  0.00    +0.000 A 
ATOM     19  C   UNL     1       3.299   7.650  17.544  0.00  0.00    +0.000 C 
ATOM     20  C   UNL     1       1.544   8.735  19.112  0.00  0.00    +0.000 A 
BRANCH  20  21
ATOM     21  N   UNL     1       1.138   9.873  18.322  0.00  0.00    +0.000 N 
ATOM     22  O   UNL     1       0.016   9.831  17.805  0.00  0.00    +0.000 OA
ATOM     23  O   UNL     1       1.940  10.809  18.199  0.00  0.00    +0.000 OA
ENDBRANCH  20  21
ENDBRANCH   1  17
TORSDOF 3
ENDMDL
MODEL 2
REMARK VINA RESULT:      -7.4      3.336      6.946
REMARK  Name = 
REMARK  6 active torsions:
REMARK  status: ('A' for Active; 'I' for Inactive)
REMARK    1  A    between atoms: C_1  and  C_2
REMARK    2  A    between atoms: N_4  and  C_5
REMARK    3  A    between atoms: C_5  and  C_6
REMARK    4  A    between atoms: C_5  and  C_7
REMARK    5  A    between atoms: C_18  and  C_19
REMARK    6  A    between atoms: C_20  and  N_21
REMARK                            x       y       z     vdW  Elec       q    Type
REMARK                         _______ _______ _______ _____ _____    ______ ____
ROOT
ATOM      1  C   UNL     1       6.415   5.420  17.105  0.00  0.00    +0.000 C 
ATOM      2  C   UNL     1       7.085   6.775  17.364  0.00  0.00    +0.000 C 
ENDROOT
BRANCH   1   3
ATOM      3  C   UNL     1       4.976   5.481  17.592  0.00  0.00    +0.000 C 
ATOM      4  O   UNL     1       4.219   6.369  17.187  0.00  0.00    +0.000 OA
ATOM      5  N   UNL     1       4.562   4.452  18.433  0.00  0.00    +0.000 N 
ATOM      6  C   UNL     1       5.408   3.653  19.344  0.00  0.00    +0.000 C 
ATOM      7  C   UNL     1       4.551   2.499  19.870  0.00  0.00    +0.000 C 
ATOM      8  C   UNL     1       3.180   2.937  19.475  0.00  0.00    +0.000 A 
ATOM      9  C   UNL     1       1.987   2.287  19.754  0.00  0.00    +0.000 A 
ATOM     10  C   UNL     1       0.815   2.783  19.185  0.00  0.00    +0.000 A 
ATOM     11  C   UNL     1       0.851   3.914  18.357  0.00  0.00    +0.000 A 
ATOM     12  C   UNL     1       2.060   4.564  18.086  0.00  0.00    +0.000 A 
ATOM     13  C   UNL     1       3.222   4.059  18.646  0.00  0.00    +0.000 A 
ENDBRANCH   1   3
BRANCH   1  17
ATOM     14  C   UNL     1       8.395   5.727  12.729  0.00  0.00    +0.000 C 
ATOM     15  C   UNL     1       7.486   5.175  13.765  0.00  0.00    +0.000 A 
ATOM     16  N   UNL     1       7.552   5.643  15.016  0.00  0.00    +0.000 NA
ATOM     17  N   UNL     1       6.582   4.981  15.702  0.00  0.00    +0.000 N 
ATOM     18  C   UNL     1       6.022   3.969  14.944  0.00  0.00    +0.000 A 
ATOM     19  C   UNL     1       5.082   2.922  15.425  0.00  0.00    +0.000 C 
ATOM     20  C   UNL     1       6.517   4.154  13.654  0.00  0.00    +0.000 A 
BRANCH  20  21
ATOM     21  N   UNL     1       6.154   3.433  12.457  0.00  0.00    +0.000 N 
ATOM     22  O   UNL     1       4.977   3.508  12.087  0.00  0.00    +0.000 OA
ATOM     23  O   UNL     1       7.035   2.775  11.888  0.00  0.00    +0.000 OA
ENDBRANCH  20  21
ENDBRANCH   1  17
TORSDOF 3
ENDMDL
MODEL 3
REMARK VINA RESULT:      -7.2      2.486      6.817
REMARK  Name = 
REMARK  6 active torsions:
REMARK  status: ('A' for Active; 'I' for Inactive)
REMARK    1  A    between atoms: C_1  and  C_2
REMARK    2  A    between atoms: N_4  and  C_5
REMARK    3  A    between atoms: C_5  and  C_6
REMARK    4  A    between atoms: C_5  and  C_7
REMARK    5  A    between atoms: C_18  and  C_19
REMARK    6  A    between atoms: C_20  and  N_21
REMARK                            x       y       z     vdW  Elec       q    Type
REMARK                         _______ _______ _______ _____ _____    ______ ____
ROOT
ATOM      1  C   UNL     1       3.067   5.792  17.766  0.00  0.00    +0.000 C 
ATOM      2  C   UNL     1       2.545   4.405  17.373  0.00  0.00    +0.000 C 
ENDROOT
BRANCH   1   3
ATOM      3  C   UNL     1       2.249   6.313  18.937  0.00  0.00    +0.000 C 
ATOM      4  O   UNL     1       2.045   5.596  19.922  0.00  0.00    +0.000 OA
ATOM      5  N   UNL     1       1.830   7.638  18.859  0.00  0.00    +0.000 N 
ATOM      6  C   UNL     1       1.576   8.421  17.631  0.00  0.00    +0.000 C 
ATOM      7  C   UNL     1       1.371   9.878  18.051  0.00  0.00    +0.000 C 
ATOM      8  C   UNL     1       1.187   9.743  19.527  0.00  0.00    +0.000 A 
ATOM      9  C   UNL     1       0.905  10.762  20.425  0.00  0.00    +0.000 A 
ATOM     10  C   UNL     1       0.900  10.459  21.786  0.00  0.00    +0.000 A 
ATOM     11  C   UNL     1       1.169   9.155  22.226  0.00  0.00    +0.000 A 
ATOM     12  C   UNL     1       1.449   8.135  21.309  0.00  0.00    +0.000 A 
ATOM     13  C   UNL     1       1.463   8.445  19.959  0.00  0.00    +0.000 A 
ENDBRANCH   1   3
BRANCH   1  17
ATOM     14  C   UNL     1       7.458   7.713  17.327  0.00  0.00    +0.000 C 
ATOM     15  C   UNL     1       6.468   6.687  17.739  0.00  0.00    +0.000 A 
ATOM     16  N   UNL     1       5.164   6.916  17.546  0.00  0.00    +0.000 NA
ATOM     17  N   UNL     1       4.532   5.792  17.979  0.00  0.00    +0.000 N 
ATOM     18  C   UNL     1       5.406   4.926  18.611  0.00  0.00    +0.000 A 
ATOM     19  C   UNL     1       5.040   3.704  19.376  0.00  0.00    +0.000 C 
ATOM     20  C   UNL     1       6.679   5.439  18.365  0.00  0.00    +0.000 A 
BRANCH  20  21
ATOM     21  N   UNL     1       7.950   4.848  18.709  0.00  0.00    +0.000 N 
ATOM     22  O   UNL     1       8.424   5.131  19.815  0.00  0.00    +0.000 OA
ATOM     23  O   UNL     1       8.492   4.112  17.874  0.00  0.00    +0.000 OA
ENDBRANCH  20  21
ENDBRANCH   1  17
TORSDOF 3
ENDMDL
MODEL 4
REMARK VINA RESULT:      -7.2      2.587      6.077
REMARK  Name = 
REMARK  6 active torsions:
REMARK  status: ('A' for Active; 'I' for Inactive)
REMARK    1  A    between atoms: C_1  and  C_2
REMARK    2  A    between atoms: N_4  and  C_5
REMARK    3  A    between atoms: C_5  and  C_6
REMARK    4  A    between atoms: C_5  and  C_7
REMARK    5  A    between atoms: C_18  and  C_19
REMARK    6  A    between atoms: C_20  and  N_21
REMARK                            x       y       z     vdW  Elec       q    Type
REMARK                         _______ _______ _______ _____ _____    ______ ____
ROOT
ATOM      1  C   UNL     1       3.547   3.667  19.376  0.00  0.00    +0.000 C 
ATOM      2  C   UNL     1       3.846   2.546  20.379  0.00  0.00    +0.000 C 
ENDROOT
BRANCH   1   3
ATOM      3  C   UNL     1       2.619   4.678  20.030  0.00  0.00    +0.000 C 
ATOM      4  O   UNL     1       2.198   4.487  21.175  0.00  0.00    +0.000 OA
ATOM      5  N   UNL     1       2.353   5.835  19.303  0.00  0.00    +0.000 N 
ATOM      6  C   UNL     1       2.368   5.987  17.833  0.00  0.00    +0.000 C 
ATOM      7  C   UNL     1       2.252   7.481  17.526  0.00  0.00    +0.000 C 
ATOM      8  C   UNL     1       1.835   8.030  18.850  0.00  0.00    +0.000 A 
ATOM      9  C   UNL     1       1.526   9.350  19.142  0.00  0.00    +0.000 A 
ATOM     10  C   UNL     1       1.287   9.694  20.472  0.00  0.00    +0.000 A 
ATOM     11  C   UNL     1       1.352   8.722  21.480  0.00  0.00    +0.000 A 
ATOM     12  C   UNL     1       1.661   7.392  21.172  0.00  0.00    +0.000 A 
ATOM     13  C   UNL     1       1.909   7.060  19.851  0.00  0.00    +0.000 A 
ENDBRANCH   1   3
BRANCH   1  17
ATOM     14  C   UNL     1       7.813   5.867  19.720  0.00  0.00    +0.000 C 
ATOM     15  C   UNL     1       6.673   5.235  19.011  0.00  0.00    +0.000 A 
ATOM     16  N   UNL     1       5.681   4.683  19.719  0.00  0.00    +0.000 NA
ATOM     17  N   UNL     1       4.784   4.236  18.799  0.00  0.00    +0.000 N 
ATOM     18  C   UNL     1       5.281   4.338  17.512  0.00  0.00    +0.000 A 
ATOM     19  C   UNL     1       4.668   3.771  16.282  0.00  0.00    +0.000 C 
ATOM     20  C   UNL     1       6.454   5.083  17.624  0.00  0.00    +0.000 A 
BRANCH  20  21
ATOM     21  N   UNL     1       7.297   5.569  16.558  0.00  0.00    +0.000 N 
ATOM     22  O   UNL     1       7.786   4.728  15.796  0.00  0.00    +0.000 OA
ATOM     23  O   UNL     1       7.489   6.790  16.482  0.00  0.00    +0.000 OA
ENDBRANCH  20  21
ENDBRANCH   1  17
TORSDOF 3
ENDMDL
MODEL 5
REMARK VINA RESULT:      -7.0      2.521      6.215
REMARK  Name = 
REMARK  6 active torsions:
REMARK  status: ('A' for Active; 'I' for Inactive)
REMARK    1  A    between atoms: C_1  and  C_2
REMARK    2  A    between atoms: N_4  and  C_5
REMARK    3  A    between atoms: C_5  and  C_6
REMARK    4  A    between atoms: C_5  and  C_7
REMARK    5  A    between atoms: C_18  and  C_19
REMARK    6  A    between atoms: C_20  and  N_21
REMARK                            x       y       z     vdW  Elec       q    Type
REMARK                         _______ _______ _______ _____ _____    ______ ____
ROOT
ATOM      1  C   UNL     1       3.514   4.816  18.670  0.00  0.00    +0.000 C 
ATOM      2  C   UNL     1       3.569   3.347  19.107  0.00  0.00    +0.000 C 
ENDROOT
BRANCH   1   3
ATOM      3  C   UNL     1       2.614   5.581  19.627  0.00  0.00    +0.000 C 
ATOM      4  O   UNL     1       2.376   5.130  20.752  0.00  0.00    +0.000 OA
ATOM      5  N   UNL     1       2.161   6.823  19.192  0.00  0.00    +0.000 N 
ATOM      6  C   UNL     1       1.955   7.256  17.794  0.00  0.00    +0.000 C 
ATOM      7  C   UNL     1       1.683   8.761  17.816  0.00  0.00    +0.000 C 
ATOM      8  C   UNL     1       1.419   8.999  19.266  0.00  0.00    +0.000 A 
ATOM      9  C   UNL     1       1.055  10.199  19.858  0.00  0.00    +0.000 A 
ATOM     10  C   UNL     1       0.981  10.253  21.249  0.00  0.00    +0.000 A 
ATOM     11  C   UNL     1       1.263   9.117  22.021  0.00  0.00    +0.000 A 
ATOM     12  C   UNL     1       1.626   7.910  21.411  0.00  0.00    +0.000 A 
ATOM     13  C   UNL     1       1.707   7.867  20.029  0.00  0.00    +0.000 A 
ENDBRANCH   1   3
BRANCH   1  17
ATOM     14  C   UNL     1       8.088   5.497  20.001  0.00  0.00    +0.000 C 
ATOM     15  C   UNL     1       6.892   5.672  19.140  0.00  0.00    +0.000 A 
ATOM     16  N   UNL     1       5.778   4.985  19.415  0.00  0.00    +0.000 NA
ATOM     17  N   UNL     1       4.866   5.389  18.489  0.00  0.00    +0.000 N 
ATOM     18  C   UNL     1       5.443   6.191  17.521  0.00  0.00    +0.000 A 
ATOM     19  C   UNL     1       4.805   6.650  16.259  0.00  0.00    +0.000 C 
ATOM     20  C   UNL     1       6.726   6.473  17.990  0.00  0.00    +0.000 A 
BRANCH  20  21
ATOM     21  N   UNL     1       7.702   7.363  17.408  0.00  0.00    +0.000 N 
ATOM     22  O   UNL     1       8.183   7.040  16.316  0.00  0.00    +0.000 OA
ATOM     23  O   UNL     1       8.007   8.382  18.042  0.00  0.00    +0.000 OA
ENDBRANCH  20  21
ENDBRANCH   1  17
TORSDOF 3
ENDMDL
MODEL 6
REMARK VINA RESULT:      -6.5      2.420      6.965
REMARK  Name = 
REMARK  6 active torsions:
REMARK  status: ('A' for Active; 'I' for Inactive)
REMARK    1  A    between atoms: C_1  and  C_2
REMARK    2  A    between atoms: N_4  and  C_5
REMARK    3  A    between atoms: C_5  and  C_6
REMARK    4  A    between atoms: C_5  and  C_7
REMARK    5  A    between atoms: C_18  and  C_19
REMARK    6  A    between atoms: C_20  and  N_21
REMARK                            x       y       z     vdW  Elec       q    Type
REMARK                         _______ _______ _______ _____ _____    ______ ____
ROOT
ATOM      1  C   UNL     1       2.811   6.392  17.880  0.00  0.00    +0.000 C 
ATOM      2  C   UNL     1       2.353   5.643  19.137  0.00  0.00    +0.000 C 
ENDROOT
BRANCH   1   3
ATOM      3  C   UNL     1       2.437   7.859  18.017  0.00  0.00    +0.000 C 
ATOM      4  O   UNL     1       2.603   8.635  17.070  0.00  0.00    +0.000 OA
ATOM      5  N   UNL     1       1.837   8.236  19.215  0.00  0.00    +0.000 N 
ATOM      6  C   UNL     1       2.008   7.596  20.536  0.00  0.00    +0.000 C 
ATOM      7  C   UNL     1       0.972   8.210  21.480  0.00  0.00    +0.000 C 
ATOM      8  C   UNL     1       0.521   9.400  20.699  0.00  0.00    +0.000 A 
ATOM      9  C   UNL     1      -0.387  10.366  21.108  0.00  0.00    +0.000 A 
ATOM     10  C   UNL     1      -0.783  11.333  20.184  0.00  0.00    +0.000 A 
ATOM     11  C   UNL     1      -0.267  11.324  18.881  0.00  0.00    +0.000 A 
ATOM     12  C   UNL     1       0.652  10.346  18.482  0.00  0.00    +0.000 A 
ATOM     13  C   UNL     1       1.032   9.382  19.401  0.00  0.00    +0.000 A 
ENDBRANCH   1   3
BRANCH   1  17
ATOM     14  C   UNL     1       7.424   7.723  17.549  0.00  0.00    +0.000 C 
ATOM     15  C   UNL     1       6.276   6.790  17.430  0.00  0.00    +0.000 A 
ATOM     16  N   UNL     1       5.068   7.176  17.855  0.00  0.00    +0.000 NA
ATOM     17  N   UNL     1       4.236   6.137  17.573  0.00  0.00    +0.000 N 
ATOM     18  C   UNL     1       4.937   5.026  17.139  0.00  0.00    +0.000 A 
ATOM     19  C   UNL     1       4.386   3.661  16.931  0.00  0.00    +0.000 C 
ATOM     20  C   UNL     1       6.243   5.469  16.935  0.00  0.00    +0.000 A 
BRANCH  20  21
ATOM     21  N   UNL     1       7.348   4.728  16.374  0.00  0.00    +0.000 N 
ATOM     22  O   UNL     1       8.114   4.168  17.167  0.00  0.00    +0.000 OA
ATOM     23  O   UNL     1       7.469   4.713  15.142  0.00  0.00    +0.000 OA
ENDBRANCH  20  21
ENDBRANCH   1  17
TORSDOF 3
ENDMDL
MODEL 7
REMARK VINA RESULT:      -6.4      2.718      7.448
REMARK  Name = 
REMARK  6 active torsions:
REMARK  status: ('A' for Active; 'I' for Inactive)
REMARK    1  A    between atoms: C_1  and  C_2
REMARK    2  A    between atoms: N_4  and  C_5
REMARK    3  A    between atoms: C_5  and  C_6
REMARK    4  A    between atoms: C_5  and  C_7
REMARK    5  A    between atoms: C_18  and  C_19
REMARK    6  A    between atoms: C_20  and  N_21
REMARK                            x       y       z     vdW  Elec       q    Type
REMARK                         _______ _______ _______ _____ _____    ______ ____
ROOT
ATOM      1  C   UNL     1       2.733   7.002  19.399  0.00  0.00    +0.000 C 
ATOM      2  C   UNL     1       2.603   7.661  18.020  0.00  0.00    +0.000 C 
ENDROOT
BRANCH   1   3
ATOM      3  C   UNL     1       1.584   7.469  20.278  0.00  0.00    +0.000 C 
ATOM      4  O   UNL     1       1.138   6.732  21.164  0.00  0.00    +0.000 OA
ATOM      5  N   UNL     1       1.140   8.773  20.077  0.00  0.00    +0.000 N 
ATOM      6  C   UNL     1       1.217   9.556  18.827  0.00  0.00    +0.000 C 
ATOM      7  C   UNL     1       0.827  10.997  19.164  0.00  0.00    +0.000 C 
ATOM      8  C   UNL     1       0.228  10.837  20.522  0.00  0.00    +0.000 A 
ATOM      9  C   UNL     1      -0.354  11.830  21.296  0.00  0.00    +0.000 A 
ATOM     10  C   UNL     1      -0.740  11.512  22.597  0.00  0.00    +0.000 A 
ATOM     11  C   UNL     1      -0.547  10.218  23.100  0.00  0.00    +0.000 A 
ATOM     12  C   UNL     1       0.038   9.223  22.308  0.00  0.00    +0.000 A 
ATOM     13  C   UNL     1       0.429   9.549  21.020  0.00  0.00    +0.000 A 
ENDBRANCH   1   3
BRANCH   1  17
ATOM     14  C   UNL     1       0.990   2.539  18.943  0.00  0.00    +0.000 C 
ATOM     15  C   UNL     1       2.050   3.565  19.108  0.00  0.00    +0.000 A 
ATOM     16  N   UNL     1       1.722   4.861  19.078  0.00  0.00    +0.000 NA
ATOM     17  N   UNL     1       2.884   5.534  19.297  0.00  0.00    +0.000 N 
ATOM     18  C   UNL     1       3.975   4.683  19.287  0.00  0.00    +0.000 A 
ATOM     19  C   UNL     1       5.407   5.084  19.296  0.00  0.00    +0.000 C 
ATOM     20  C   UNL     1       3.442   3.395  19.277  0.00  0.00    +0.000 A 
BRANCH  20  21
ATOM     21  N   UNL     1       4.154   2.144  19.378  0.00  0.00    +0.000 N 
ATOM     22  O   UNL     1       3.972   1.315  18.479  0.00  0.00    +0.000 OA
ATOM     23  O   UNL     1       4.888   1.973  20.361  0.00  0.00    +0.000 OA
ENDBRANCH  20  21
ENDBRANCH   1  17
TORSDOF 3
ENDMDL
MODEL 8
REMARK VINA RESULT:      -6.4      3.128      7.032
REMARK  Name = 
REMARK  6 active torsions:
REMARK  status: ('A' for Active; 'I' for Inactive)
REMARK    1  A    between atoms: C_1  and  C_2
REMARK    2  A    between atoms: N_4  and  C_5
REMARK    3  A    between atoms: C_5  and  C_6
REMARK    4  A    between atoms: C_5  and  C_7
REMARK    5  A    between atoms: C_18  and  C_19
REMARK    6  A    between atoms: C_20  and  N_21
REMARK                            x       y       z     vdW  Elec       q    Type
REMARK                         _______ _______ _______ _____ _____    ______ ____
ROOT
ATOM      1  C   UNL     1       6.845   4.913  17.412  0.00  0.00    +0.000 C 
ATOM      2  C   UNL     1       7.337   6.333  17.718  0.00  0.00    +0.000 C 
ENDROOT
BRANCH   1   3
ATOM      3  C   UNL     1       5.538   4.674  18.151  0.00  0.00    +0.000 C 
ATOM      4  O   UNL     1       5.387   3.656  18.834  0.00  0.00    +0.000 OA
ATOM      5  N   UNL     1       4.588   5.688  18.073  0.00  0.00    +0.000 N 
ATOM      6  C   UNL     1       4.420   6.668  16.980  0.00  0.00    +0.000 C 
ATOM      7  C   UNL     1       3.412   7.716  17.457  0.00  0.00    +0.000 C 
ATOM      8  C   UNL     1       2.831   7.051  18.661  0.00  0.00    +0.000 A 
ATOM      9  C   UNL     1       1.811   7.535  19.466  0.00  0.00    +0.000 A 
ATOM     10  C   UNL     1       1.495   6.829  20.626  0.00  0.00    +0.000 A 
ATOM     11  C   UNL     1       2.191   5.659  20.959  0.00  0.00    +0.000 A 
ATOM     12  C   UNL     1       3.217   5.179  20.136  0.00  0.00    +0.000 A 
ATOM     13  C   UNL     1       3.533   5.891  18.991  0.00  0.00    +0.000 A 
ENDBRANCH   1   3
BRANCH   1  17
ATOM     14  C   UNL     1       8.213   5.711  12.867  0.00  0.00    +0.000 C 
ATOM     15  C   UNL     1       7.434   5.057  13.948  0.00  0.00    +0.000 A 
ATOM     16  N   UNL     1       7.691   5.366  15.224  0.00  0.00    +0.000 NA
ATOM     17  N   UNL     1       6.798   4.647  15.957  0.00  0.00    +0.000 N 
ATOM     18  C   UNL     1       6.097   3.751  15.171  0.00  0.00    +0.000 A 
ATOM     19  C   UNL     1       5.190   2.676  15.653  0.00  0.00    +0.000 C 
ATOM     20  C   UNL     1       6.417   4.082  13.855  0.00  0.00    +0.000 A 
BRANCH  20  21
ATOM     21  N   UNL     1       5.862   3.525  12.645  0.00  0.00    +0.000 N 
ATOM     22  O   UNL     1       6.625   2.876  11.919  0.00  0.00    +0.000 OA
ATOM     23  O   UNL     1       4.668   3.743  12.401  0.00  0.00    +0.000 OA
ENDBRANCH  20  21
ENDBRANCH   1  17
TORSDOF 3
ENDMDL
MODEL 9
REMARK VINA RESULT:      -6.4      3.858      6.720
REMARK  Name = 
REMARK  6 active torsions:
REMARK  status: ('A' for Active; 'I' for Inactive)
REMARK    1  A    between atoms: C_1  and  C_2
REMARK    2  A    between atoms: N_4  and  C_5
REMARK    3  A    between atoms: C_5  and  C_6
REMARK    4  A    between atoms: C_5  and  C_7
REMARK    5  A    between atoms: C_18  and  C_19
REMARK    6  A    between atoms: C_20  and  N_21
REMARK                            x       y       z     vdW  Elec       q    Type
REMARK                         _______ _______ _______ _____ _____    ______ ____
ROOT
ATOM      1  C   UNL     1      -0.090  11.813  18.939  0.00  0.00    +0.000 C 
ATOM      2  C   UNL     1      -0.069  13.149  19.691  0.00  0.00    +0.000 C 
ENDROOT
BRANCH   1   3
ATOM      3  C   UNL     1       0.501  10.735  19.833  0.00  0.00    +0.000 C 
ATOM      4  O   UNL     1       0.226  10.705  21.037  0.00  0.00    +0.000 OA
ATOM      5  N   UNL     1       1.281   9.768  19.206  0.00  0.00    +0.000 N 
ATOM      6  C   UNL     1       2.060   9.924  17.960  0.00  0.00    +0.000 C 
ATOM      7  C   UNL     1       2.548   8.533  17.548  0.00  0.00    +0.000 C 
ATOM      8  C   UNL     1       2.289   7.743  18.788  0.00  0.00    +0.000 A 
ATOM      9  C   UNL     1       2.597   6.408  19.002  0.00  0.00    +0.000 A 
ATOM     10  C   UNL     1       2.156   5.809  20.181  0.00  0.00    +0.000 A 
ATOM     11  C   UNL     1       1.425   6.547  21.123  0.00  0.00    +0.000 A 
ATOM     12  C   UNL     1       1.123   7.894  20.897  0.00  0.00    +0.000 A 
ATOM     13  C   UNL     1       1.555   8.480  19.718  0.00  0.00    +0.000 A 
ENDBRANCH   1   3
BRANCH   1  17
ATOM     14  C   UNL     1      -3.045   9.840  15.692  0.00  0.00    +0.000 C 
ATOM     15  C   UNL     1      -2.701  10.620  16.907  0.00  0.00    +0.000 A 
ATOM     16  N   UNL     1      -1.424  10.703  17.296  0.00  0.00    +0.000 NA
ATOM     17  N   UNL     1      -1.431  11.506  18.394  0.00  0.00    +0.000 N 
ATOM     18  C   UNL     1      -2.720  11.788  18.811  0.00  0.00    +0.000 A 
ATOM     19  C   UNL     1      -3.110  12.464  20.077  0.00  0.00    +0.000 C 
ATOM     20  C   UNL     1      -3.550  11.314  17.796  0.00  0.00    +0.000 A 
BRANCH  20  21
ATOM     21  N   UNL     1      -4.982  11.461  17.686  0.00  0.00    +0.000 N 
ATOM     22  O   UNL     1      -5.403  12.333  16.918  0.00  0.00    +0.000 OA
ATOM     23  O   UNL     1      -5.695  10.721  18.377  0.00  0.00    +0.000 OA
ENDBRANCH  20  21
ENDBRANCH   1  17
TORSDOF 3
ENDMDL
