MODEL 1
REMARK VINA RESULT:      -8.9      0.000      0.000
REMARK  Name = 
REMARK  4 active torsions:
REMARK  status: ('A' for Active; 'I' for Inactive)
REMARK    1  A    between atoms: C_1  and  S_2
REMARK    2  A    between atoms: S_2  and  C_5
REMARK    3  A    between atoms: C_8  and  C_9
REMARK    4  A    between atoms: C_10  and  C_11
REMARK                            x       y       z     vdW  Elec       q    Type
REMARK                         _______ _______ _______ _____ _____    ______ ____
ROOT
ATOM      1  C   UNL     1       3.585   5.516  17.830  0.00  0.00    +0.000 A 
ATOM      2  C   UNL     1       3.552   4.151  18.185  0.00  0.00    +0.000 A 
ATOM      3  N   UNL     1       4.414   3.389  17.416  0.00  0.00    +0.000 NA
ATOM      4  C   UNL     1       4.928   4.255  16.592  0.00  0.00    +0.000 A 
ATOM      5  S   UNL     1       6.076   4.163  15.294  0.00  0.00    +0.000 S 
ATOM      6  C   UNL     1       5.910   5.907  15.063  0.00  0.00    +0.000 A 
ATOM      7  C   UNL     1       5.050   6.468  15.934  0.00  0.00    +0.000 A 
ATOM      8  N   UNL     1       4.492   5.531  16.783  0.00  0.00    +0.000 N 
ENDROOT
BRANCH   2   9
ATOM      9  C   UNL     1       2.775   3.549  19.267  0.00  0.00    +0.000 A 
ATOM     10  C   UNL     1       1.371   3.528  19.244  0.00  0.00    +0.000 A 
ATOM     11  C   UNL     1       0.647   3.135  20.371  0.00  0.00    +0.000 A 
ATOM     12  C   UNL     1       1.324   2.677  21.493  0.00  0.00    +0.000 A 
ATOM     13  F   UNL     1       0.629   2.318  22.581  0.00  0.00    +0.000 F 
ATOM     14  C   UNL     1       2.711   2.589  21.504  0.00  0.00    +0.000 A 
ATOM     15  C   UNL     1       3.437   3.029  20.391  0.00  0.00    +0.000 A 
ENDBRANCH   2   9
BRANCH   1  19
ATOM     16  C   UNL     1       1.534   8.928  19.399  0.00  0.00    +0.000 A 
ATOM     17  C   UNL     1       1.829   7.854  20.235  0.00  0.00    +0.000 A 
ATOM     18  C   UNL     1       2.560   6.777  19.729  0.00  0.00    +0.000 A 
ATOM     19  C   UNL     1       2.918   6.710  18.371  0.00  0.00    +0.000 A 
ATOM     20  C   UNL     1       2.570   7.789  17.544  0.00  0.00    +0.000 A 
ATOM     21  C   UNL     1       1.906   8.907  18.057  0.00  0.00    +0.000 A 
BRANCH  16  23
ATOM     22  C   UNL     1       1.297  11.662  19.063  0.00  0.00    +0.000 C 
ATOM     23  S   UNL     1       0.670  10.331  20.055  0.00  0.00    +0.000 S 
ATOM     24  O   UNL     1       1.121  10.524  21.419  0.00  0.00    +0.000 OA
ATOM     25  O   UNL     1      -0.738  10.163  19.745  0.00  0.00    +0.000 OA
ENDBRANCH  16  23
ENDBRANCH   1  19
TORSDOF 3
ENDMDL
MODEL 2
REMARK VINA RESULT:      -8.7      2.964      4.643
REMARK  Name = 
REMARK  4 active torsions:
REMARK  status: ('A' for Active; 'I' for Inactive)
REMARK    1  A    between atoms: C_1  and  S_2
REMARK    2  A    between atoms: S_2  and  C_5
REMARK    3  A    between atoms: C_8  and  C_9
REMARK    4  A    between atoms: C_10  and  C_11
REMARK                            x       y       z     vdW  Elec       q    Type
REMARK                         _______ _______ _______ _____ _____    ______ ____
ROOT
ATOM      1  C   UNL     1       3.142   5.311  18.770  0.00  0.00    +0.000 A 
ATOM      2  C   UNL     1       4.425   4.870  18.383  0.00  0.00    +0.000 A 
ATOM      3  N   UNL     1       4.460   3.507  18.142  0.00  0.00    +0.000 NA
ATOM      4  C   UNL     1       3.247   3.123  18.412  0.00  0.00    +0.000 A 
ATOM      5  S   UNL     1       2.426   1.595  18.394  0.00  0.00    +0.000 S 
ATOM      6  C   UNL     1       0.945   2.417  18.898  0.00  0.00    +0.000 A 
ATOM      7  C   UNL     1       1.111   3.746  19.043  0.00  0.00    +0.000 A 
ATOM      8  N   UNL     1       2.412   4.134  18.781  0.00  0.00    +0.000 N 
ENDROOT
BRANCH   2   9
ATOM      9  C   UNL     1       5.608   5.703  18.174  0.00  0.00    +0.000 A 
ATOM     10  C   UNL     1       6.767   5.545  18.951  0.00  0.00    +0.000 A 
ATOM     11  C   UNL     1       7.806   6.474  18.877  0.00  0.00    +0.000 A 
ATOM     12  C   UNL     1       7.728   7.515  17.962  0.00  0.00    +0.000 A 
ATOM     13  F   UNL     1       8.716   8.418  17.904  0.00  0.00    +0.000 F 
ATOM     14  C   UNL     1       6.637   7.635  17.109  0.00  0.00    +0.000 A 
ATOM     15  C   UNL     1       5.575   6.730  17.218  0.00  0.00    +0.000 A 
ENDBRANCH   2   9
BRANCH   1  19
ATOM     16  C   UNL     1       1.407   9.125  19.641  0.00  0.00    +0.000 A 
ATOM     17  C   UNL     1       1.532   8.174  20.652  0.00  0.00    +0.000 A 
ATOM     18  C   UNL     1       2.163   6.961  20.372  0.00  0.00    +0.000 A 
ATOM     19  C   UNL     1       2.585   6.639  19.070  0.00  0.00    +0.000 A 
ATOM     20  C   UNL     1       2.407   7.600  18.063  0.00  0.00    +0.000 A 
ATOM     21  C   UNL     1       1.847   8.849  18.348  0.00  0.00    +0.000 A 
BRANCH  16  23
ATOM     22  C   UNL     1       1.417  11.757  18.796  0.00  0.00    +0.000 C 
ATOM     23  S   UNL     1       0.672  10.696  20.008  0.00  0.00    +0.000 S 
ATOM     24  O   UNL     1       1.137  11.100  21.320  0.00  0.00    +0.000 OA
ATOM     25  O   UNL     1      -0.745  10.599  19.709  0.00  0.00    +0.000 OA
ENDBRANCH  16  23
ENDBRANCH   1  19
TORSDOF 3
ENDMDL
MODEL 3
REMARK VINA RESULT:      -8.6      0.728      1.368
REMARK  Name = 
REMARK  4 active torsions:
REMARK  status: ('A' for Active; 'I' for Inactive)
REMARK    1  A    between atoms: C_1  and  S_2
REMARK    2  A    between atoms: S_2  and  C_5
REMARK    3  A    between atoms: C_8  and  C_9
REMARK    4  A    between atoms: C_10  and  C_11
REMARK                            x       y       z     vdW  Elec       q    Type
REMARK                         _______ _______ _______ _____ _____    ______ ____
ROOT
ATOM      1  C   UNL     1       3.567   5.485  17.831  0.00  0.00    +0.000 A 
ATOM      2  C   UNL     1       3.588   4.134  18.236  0.00  0.00    +0.000 A 
ATOM      3  N   UNL     1       4.518   3.389  17.530  0.00  0.00    +0.000 NA
ATOM      4  C   UNL     1       5.020   4.251  16.693  0.00  0.00    +0.000 A 
ATOM      5  S   UNL     1       6.220   4.171  15.444  0.00  0.00    +0.000 S 
ATOM      6  C   UNL     1       5.977   5.895  15.140  0.00  0.00    +0.000 A 
ATOM      7  C   UNL     1       5.056   6.442  15.956  0.00  0.00    +0.000 A 
ATOM      8  N   UNL     1       4.512   5.509  16.819  0.00  0.00    +0.000 N 
ENDROOT
BRANCH   2   9
ATOM      9  C   UNL     1       2.801   3.532  19.311  0.00  0.00    +0.000 A 
ATOM     10  C   UNL     1       1.397   3.518  19.277  0.00  0.00    +0.000 A 
ATOM     11  C   UNL     1       0.662   3.124  20.397  0.00  0.00    +0.000 A 
ATOM     12  C   UNL     1       1.329   2.660  21.523  0.00  0.00    +0.000 A 
ATOM     13  F   UNL     1       0.624   2.301  22.605  0.00  0.00    +0.000 F 
ATOM     14  C   UNL     1       2.715   2.567  21.544  0.00  0.00    +0.000 A 
ATOM     15  C   UNL     1       3.452   3.007  20.438  0.00  0.00    +0.000 A 
ENDBRANCH   2   9
BRANCH   1  19
ATOM     16  C   UNL     1       1.501   8.975  19.196  0.00  0.00    +0.000 A 
ATOM     17  C   UNL     1       1.837   8.852  17.850  0.00  0.00    +0.000 A 
ATOM     18  C   UNL     1       2.448   7.679  17.404  0.00  0.00    +0.000 A 
ATOM     19  C   UNL     1       2.820   6.662  18.301  0.00  0.00    +0.000 A 
ATOM     20  C   UNL     1       2.506   6.832  19.658  0.00  0.00    +0.000 A 
ATOM     21  C   UNL     1       1.825   7.969  20.104  0.00  0.00    +0.000 A 
BRANCH  16  23
ATOM     22  C   UNL     1       0.728  10.258  21.520  0.00  0.00    +0.000 C 
ATOM     23  S   UNL     1       0.659  10.432  19.755  0.00  0.00    +0.000 S 
ATOM     24  O   UNL     1      -0.724  10.325  19.337  0.00  0.00    +0.000 OA
ATOM     25  O   UNL     1       1.471  11.577  19.384  0.00  0.00    +0.000 OA
ENDBRANCH  16  23
ENDBRANCH   1  19
TORSDOF 3
ENDMDL
MODEL 4
REMARK VINA RESULT:      -8.5      3.053      4.828
REMARK  Name = 
REMARK  4 active torsions:
REMARK  status: ('A' for Active; 'I' for Inactive)
REMARK    1  A    between atoms: C_1  and  S_2
REMARK    2  A    between atoms: S_2  and  C_5
REMARK    3  A    between atoms: C_8  and  C_9
REMARK    4  A    between atoms: C_10  and  C_11
REMARK                            x       y       z     vdW  Elec       q    Type
REMARK                         _______ _______ _______ _____ _____    ______ ____
ROOT
ATOM      1  C   UNL     1       3.139   5.288  18.726  0.00  0.00    +0.000 A 
ATOM      2  C   UNL     1       4.437   4.864  18.374  0.00  0.00    +0.000 A 
ATOM      3  N   UNL     1       4.506   3.496  18.176  0.00  0.00    +0.000 NA
ATOM      4  C   UNL     1       3.296   3.093  18.437  0.00  0.00    +0.000 A 
ATOM      5  S   UNL     1       2.508   1.548  18.451  0.00  0.00    +0.000 S 
ATOM      6  C   UNL     1       1.001   2.353  18.905  0.00  0.00    +0.000 A 
ATOM      7  C   UNL     1       1.137   3.689  19.012  0.00  0.00    +0.000 A 
ATOM      8  N   UNL     1       2.434   4.097  18.760  0.00  0.00    +0.000 N 
ENDROOT
BRANCH   2   9
ATOM      9  C   UNL     1       5.606   5.716  18.160  0.00  0.00    +0.000 A 
ATOM     10  C   UNL     1       6.769   5.580  18.936  0.00  0.00    +0.000 A 
ATOM     11  C   UNL     1       7.792   6.526  18.856  0.00  0.00    +0.000 A 
ATOM     12  C   UNL     1       7.695   7.562  17.938  0.00  0.00    +0.000 A 
ATOM     13  F   UNL     1       8.668   8.481  17.875  0.00  0.00    +0.000 F 
ATOM     14  C   UNL     1       6.601   7.660  17.085  0.00  0.00    +0.000 A 
ATOM     15  C   UNL     1       5.554   6.738  17.200  0.00  0.00    +0.000 A 
ENDBRANCH   2   9
BRANCH   1  19
ATOM     16  C   UNL     1       1.539   9.190  19.457  0.00  0.00    +0.000 A 
ATOM     17  C   UNL     1       1.971   8.848  18.178  0.00  0.00    +0.000 A 
ATOM     18  C   UNL     1       2.426   7.550  17.936  0.00  0.00    +0.000 A 
ATOM     19  C   UNL     1       2.549   6.613  18.976  0.00  0.00    +0.000 A 
ATOM     20  C   UNL     1       2.144   6.999  20.263  0.00  0.00    +0.000 A 
ATOM     21  C   UNL     1       1.615   8.271  20.502  0.00  0.00    +0.000 A 
BRANCH  16  23
ATOM     22  C   UNL     1      -0.848  10.585  19.486  0.00  0.00    +0.000 C 
ATOM     23  S   UNL     1       0.892  10.813  19.753  0.00  0.00    +0.000 S 
ATOM     24  O   UNL     1       1.404  11.685  18.715  0.00  0.00    +0.000 OA
ATOM     25  O   UNL     1       1.094  11.117  21.158  0.00  0.00    +0.000 OA
ENDBRANCH  16  23
ENDBRANCH   1  19
TORSDOF 3
ENDMDL
MODEL 5
REMARK VINA RESULT:      -8.1      0.333      1.021
REMARK  Name = 
REMARK  4 active torsions:
REMARK  status: ('A' for Active; 'I' for Inactive)
REMARK    1  A    between atoms: C_1  and  S_2
REMARK    2  A    between atoms: S_2  and  C_5
REMARK    3  A    between atoms: C_8  and  C_9
REMARK    4  A    between atoms: C_10  and  C_11
REMARK                            x       y       z     vdW  Elec       q    Type
REMARK                         _______ _______ _______ _____ _____    ______ ____
ROOT
ATOM      1  C   UNL     1       3.546   5.722  17.915  0.00  0.00    +0.000 A 
ATOM      2  C   UNL     1       3.512   4.391  18.380  0.00  0.00    +0.000 A 
ATOM      3  N   UNL     1       4.354   3.562  17.659  0.00  0.00    +0.000 NA
ATOM      4  C   UNL     1       4.857   4.355  16.757  0.00  0.00    +0.000 A 
ATOM      5  S   UNL     1       5.977   4.149  15.449  0.00  0.00    +0.000 S 
ATOM      6  C   UNL     1       5.817   5.871  15.080  0.00  0.00    +0.000 A 
ATOM      7  C   UNL     1       4.978   6.507  15.920  0.00  0.00    +0.000 A 
ATOM      8  N   UNL     1       4.431   5.646  16.853  0.00  0.00    +0.000 N 
ENDROOT
BRANCH   2   9
ATOM      9  C   UNL     1       2.754   3.884  19.523  0.00  0.00    +0.000 A 
ATOM     10  C   UNL     1       3.392   3.439  20.692  0.00  0.00    +0.000 A 
ATOM     11  C   UNL     1       2.673   2.775  21.686  0.00  0.00    +0.000 A 
ATOM     12  C   UNL     1       1.298   2.631  21.556  0.00  0.00    +0.000 A 
ATOM     13  F   UNL     1       0.611   1.977  22.501  0.00  0.00    +0.000 F 
ATOM     14  C   UNL     1       0.627   3.155  20.457  0.00  0.00    +0.000 A 
ATOM     15  C   UNL     1       1.357   3.779  19.438  0.00  0.00    +0.000 A 
ENDBRANCH   2   9
BRANCH   1  19
ATOM     16  C   UNL     1       1.546   9.270  19.230  0.00  0.00    +0.000 A 
ATOM     17  C   UNL     1       1.735   8.213  20.117  0.00  0.00    +0.000 A 
ATOM     18  C   UNL     1       2.450   7.090  19.697  0.00  0.00    +0.000 A 
ATOM     19  C   UNL     1       2.897   6.962  18.371  0.00  0.00    +0.000 A 
ATOM     20  C   UNL     1       2.655   8.025  17.488  0.00  0.00    +0.000 A 
ATOM     21  C   UNL     1       2.008   9.188  17.918  0.00  0.00    +0.000 A 
BRANCH  16  23
ATOM     22  C   UNL     1       1.440  11.995  18.778  0.00  0.00    +0.000 C 
ATOM     23  S   UNL     1       0.703  10.729  19.779  0.00  0.00    +0.000 S 
ATOM     24  O   UNL     1       1.080  10.959  21.160  0.00  0.00    +0.000 OA
ATOM     25  O   UNL     1      -0.690  10.604  19.391  0.00  0.00    +0.000 OA
ENDBRANCH  16  23
ENDBRANCH   1  19
TORSDOF 3
ENDMDL
MODEL 6
REMARK VINA RESULT:      -8.0      2.976      4.700
REMARK  Name = 
REMARK  4 active torsions:
REMARK  status: ('A' for Active; 'I' for Inactive)
REMARK    1  A    between atoms: C_1  and  S_2
REMARK    2  A    between atoms: S_2  and  C_5
REMARK    3  A    between atoms: C_8  and  C_9
REMARK    4  A    between atoms: C_10  and  C_11
REMARK                            x       y       z     vdW  Elec       q    Type
REMARK                         _______ _______ _______ _____ _____    ______ ____
ROOT
ATOM      1  C   UNL     1       3.001   5.343  18.892  0.00  0.00    +0.000 A 
ATOM      2  C   UNL     1       4.305   5.001  18.477  0.00  0.00    +0.000 A 
ATOM      3  N   UNL     1       4.434   3.648  18.218  0.00  0.00    +0.000 NA
ATOM      4  C   UNL     1       3.257   3.173  18.505  0.00  0.00    +0.000 A 
ATOM      5  S   UNL     1       2.549   1.590  18.482  0.00  0.00    +0.000 S 
ATOM      6  C   UNL     1       1.022   2.297  19.023  0.00  0.00    +0.000 A 
ATOM      7  C   UNL     1       1.094   3.632  19.182  0.00  0.00    +0.000 A 
ATOM      8  N   UNL     1       2.358   4.117  18.901  0.00  0.00    +0.000 N 
ENDROOT
BRANCH   2   9
ATOM      9  C   UNL     1       5.421   5.920  18.257  0.00  0.00    +0.000 A 
ATOM     10  C   UNL     1       5.339   6.971  17.329  0.00  0.00    +0.000 A 
ATOM     11  C   UNL     1       6.473   7.708  16.987  0.00  0.00    +0.000 A 
ATOM     12  C   UNL     1       7.674   7.456  17.636  0.00  0.00    +0.000 A 
ATOM     13  F   UNL     1       8.767   8.150  17.294  0.00  0.00    +0.000 F 
ATOM     14  C   UNL     1       7.757   6.491  18.633  0.00  0.00    +0.000 A 
ATOM     15  C   UNL     1       6.630   5.720  18.941  0.00  0.00    +0.000 A 
ENDBRANCH   2   9
BRANCH   1  19
ATOM     16  C   UNL     1       1.237   9.123  19.850  0.00  0.00    +0.000 A 
ATOM     17  C   UNL     1       1.686   8.878  18.555  0.00  0.00    +0.000 A 
ATOM     18  C   UNL     1       2.195   7.617  18.237  0.00  0.00    +0.000 A 
ATOM     19  C   UNL     1       2.355   6.624  19.219  0.00  0.00    +0.000 A 
ATOM     20  C   UNL     1       1.932   6.915  20.525  0.00  0.00    +0.000 A 
ATOM     21  C   UNL     1       1.350   8.147  20.838  0.00  0.00    +0.000 A 
BRANCH  16  23
ATOM     22  C   UNL     1       1.078  11.712  18.895  0.00  0.00    +0.000 C 
ATOM     23  S   UNL     1       0.522  10.697  20.241  0.00  0.00    +0.000 S 
ATOM     24  O   UNL     1       1.145  11.171  21.461  0.00  0.00    +0.000 OA
ATOM     25  O   UNL     1      -0.920  10.563  20.136  0.00  0.00    +0.000 OA
ENDBRANCH  16  23
ENDBRANCH   1  19
TORSDOF 3
ENDMDL
MODEL 7
REMARK VINA RESULT:      -8.0      3.208      4.920
REMARK  Name = 
REMARK  4 active torsions:
REMARK  status: ('A' for Active; 'I' for Inactive)
REMARK    1  A    between atoms: C_1  and  S_2
REMARK    2  A    between atoms: S_2  and  C_5
REMARK    3  A    between atoms: C_8  and  C_9
REMARK    4  A    between atoms: C_10  and  C_11
REMARK                            x       y       z     vdW  Elec       q    Type
REMARK                         _______ _______ _______ _____ _____    ______ ____
ROOT
ATOM      1  C   UNL     1       3.040   5.498  19.491  0.00  0.00    +0.000 A 
ATOM      2  C   UNL     1       4.291   4.952  19.138  0.00  0.00    +0.000 A 
ATOM      3  N   UNL     1       4.340   3.583  19.336  0.00  0.00    +0.000 NA
ATOM      4  C   UNL     1       3.168   3.309  19.832  0.00  0.00    +0.000 A 
ATOM      5  S   UNL     1       2.390   1.857  20.376  0.00  0.00    +0.000 S 
ATOM      6  C   UNL     1       0.943   2.804  20.740  0.00  0.00    +0.000 A 
ATOM      7  C   UNL     1       1.087   4.110  20.443  0.00  0.00    +0.000 A 
ATOM      8  N   UNL     1       2.346   4.389  19.944  0.00  0.00    +0.000 N 
ENDROOT
BRANCH   2   9
ATOM      9  C   UNL     1       5.427   5.670  18.561  0.00  0.00    +0.000 A 
ATOM     10  C   UNL     1       6.703   5.624  19.147  0.00  0.00    +0.000 A 
ATOM     11  C   UNL     1       7.720   6.470  18.705  0.00  0.00    +0.000 A 
ATOM     12  C   UNL     1       7.492   7.303  17.618  0.00  0.00    +0.000 A 
ATOM     13  F   UNL     1       8.462   8.130  17.205  0.00  0.00    +0.000 F 
ATOM     14  C   UNL     1       6.270   7.293  16.955  0.00  0.00    +0.000 A 
ATOM     15  C   UNL     1       5.236   6.478  17.430  0.00  0.00    +0.000 A 
ENDBRANCH   2   9
BRANCH   1  19
ATOM     16  C   UNL     1       1.294   9.399  19.261  0.00  0.00    +0.000 A 
ATOM     17  C   UNL     1       1.325   8.726  20.480  0.00  0.00    +0.000 A 
ATOM     18  C   UNL     1       1.960   7.484  20.557  0.00  0.00    +0.000 A 
ATOM     19  C   UNL     1       2.479   6.857  19.412  0.00  0.00    +0.000 A 
ATOM     20  C   UNL     1       2.396   7.540  18.190  0.00  0.00    +0.000 A 
ATOM     21  C   UNL     1       1.831   8.818  18.114  0.00  0.00    +0.000 A 
BRANCH  16  23
ATOM     22  C   UNL     1      -0.913  10.700  18.222  0.00  0.00    +0.000 C 
ATOM     23  S   UNL     1       0.554  11.007  19.172  0.00  0.00    +0.000 S 
ATOM     24  O   UNL     1       1.436  11.853  18.393  0.00  0.00    +0.000 OA
ATOM     25  O   UNL     1       0.149  11.379  20.516  0.00  0.00    +0.000 OA
ENDBRANCH  16  23
ENDBRANCH   1  19
TORSDOF 3
ENDMDL
MODEL 8
REMARK VINA RESULT:      -8.0      0.838      1.671
REMARK  Name = 
REMARK  4 active torsions:
REMARK  status: ('A' for Active; 'I' for Inactive)
REMARK    1  A    between atoms: C_1  and  S_2
REMARK    2  A    between atoms: S_2  and  C_5
REMARK    3  A    between atoms: C_8  and  C_9
REMARK    4  A    between atoms: C_10  and  C_11
REMARK                            x       y       z     vdW  Elec       q    Type
REMARK                         _______ _______ _______ _____ _____    ______ ____
ROOT
ATOM      1  C   UNL     1       3.533   5.707  17.909  0.00  0.00    +0.000 A 
ATOM      2  C   UNL     1       3.542   4.390  18.413  0.00  0.00    +0.000 A 
ATOM      3  N   UNL     1       4.443   3.580  17.745  0.00  0.00    +0.000 NA
ATOM      4  C   UNL     1       4.940   4.368  16.836  0.00  0.00    +0.000 A 
ATOM      5  S   UNL     1       6.111   4.174  15.571  0.00  0.00    +0.000 S 
ATOM      6  C   UNL     1       5.887   5.875  15.144  0.00  0.00    +0.000 A 
ATOM      7  C   UNL     1       4.994   6.497  15.937  0.00  0.00    +0.000 A 
ATOM      8  N   UNL     1       4.455   5.640  16.879  0.00  0.00    +0.000 N 
ENDROOT
BRANCH   2   9
ATOM      9  C   UNL     1       2.769   3.883  19.546  0.00  0.00    +0.000 A 
ATOM     10  C   UNL     1       3.392   3.457  20.731  0.00  0.00    +0.000 A 
ATOM     11  C   UNL     1       2.664   2.792  21.718  0.00  0.00    +0.000 A 
ATOM     12  C   UNL     1       1.294   2.628  21.563  0.00  0.00    +0.000 A 
ATOM     13  F   UNL     1       0.598   1.973  22.502  0.00  0.00    +0.000 F 
ATOM     14  C   UNL     1       0.636   3.132  20.447  0.00  0.00    +0.000 A 
ATOM     15  C   UNL     1       1.376   3.757  19.436  0.00  0.00    +0.000 A 
ENDBRANCH   2   9
BRANCH   1  19
ATOM     16  C   UNL     1       1.555   9.320  19.071  0.00  0.00    +0.000 A 
ATOM     17  C   UNL     1       2.006   9.169  17.762  0.00  0.00    +0.000 A 
ATOM     18  C   UNL     1       2.587   7.959  17.377  0.00  0.00    +0.000 A 
ATOM     19  C   UNL     1       2.815   6.929  18.306  0.00  0.00    +0.000 A 
ATOM     20  C   UNL     1       2.388   7.127  19.628  0.00  0.00    +0.000 A 
ATOM     21  C   UNL     1       1.735   8.304  20.007  0.00  0.00    +0.000 A 
BRANCH  16  23
ATOM     22  C   UNL     1      -0.949  10.486  19.171  0.00  0.00    +0.000 C 
ATOM     23  S   UNL     1       0.751  10.827  19.547  0.00  0.00    +0.000 S 
ATOM     24  O   UNL     1       1.217  11.872  18.657  0.00  0.00    +0.000 OA
ATOM     25  O   UNL     1       0.876  10.955  20.988  0.00  0.00    +0.000 OA
ENDBRANCH  16  23
ENDBRANCH   1  19
TORSDOF 3
ENDMDL
MODEL 9
REMARK VINA RESULT:      -8.0      2.992      4.635
REMARK  Name = 
REMARK  4 active torsions:
REMARK  status: ('A' for Active; 'I' for Inactive)
REMARK    1  A    between atoms: C_1  and  S_2
REMARK    2  A    between atoms: S_2  and  C_5
REMARK    3  A    between atoms: C_8  and  C_9
REMARK    4  A    between atoms: C_10  and  C_11
REMARK                            x       y       z     vdW  Elec       q    Type
REMARK                         _______ _______ _______ _____ _____    ______ ____
ROOT
ATOM      1  C   UNL     1       2.881   5.438  19.128  0.00  0.00    +0.000 A 
ATOM      2  C   UNL     1       4.144   5.022  18.657  0.00  0.00    +0.000 A 
ATOM      3  N   UNL     1       4.200   3.655  18.444  0.00  0.00    +0.000 NA
ATOM      4  C   UNL     1       3.020   3.246  18.810  0.00  0.00    +0.000 A 
ATOM      5  S   UNL     1       2.243   1.696  18.885  0.00  0.00    +0.000 S 
ATOM      6  C   UNL     1       0.781   2.491  19.479  0.00  0.00    +0.000 A 
ATOM      7  C   UNL     1       0.920   3.827  19.583  0.00  0.00    +0.000 A 
ATOM      8  N   UNL     1       2.187   4.243  19.217  0.00  0.00    +0.000 N 
ENDROOT
BRANCH   2   9
ATOM      9  C   UNL     1       5.286   5.881  18.344  0.00  0.00    +0.000 A 
ATOM     10  C   UNL     1       5.208   6.880  17.361  0.00  0.00    +0.000 A 
ATOM     11  C   UNL     1       6.356   7.550  16.936  0.00  0.00    +0.000 A 
ATOM     12  C   UNL     1       7.571   7.285  17.554  0.00  0.00    +0.000 A 
ATOM     13  F   UNL     1       8.676   7.914  17.132  0.00  0.00    +0.000 F 
ATOM     14  C   UNL     1       7.656   6.374  18.601  0.00  0.00    +0.000 A 
ATOM     15  C   UNL     1       6.512   5.669  18.993  0.00  0.00    +0.000 A 
ENDBRANCH   2   9
BRANCH   1  19
ATOM     16  C   UNL     1       1.107   9.227  20.029  0.00  0.00    +0.000 A 
ATOM     17  C   UNL     1       1.214   8.259  21.025  0.00  0.00    +0.000 A 
ATOM     18  C   UNL     1       1.858   7.053  20.737  0.00  0.00    +0.000 A 
ATOM     19  C   UNL     1       2.311   6.758  19.440  0.00  0.00    +0.000 A 
ATOM     20  C   UNL     1       2.152   7.736  18.447  0.00  0.00    +0.000 A 
ATOM     21  C   UNL     1       1.578   8.977  18.742  0.00  0.00    +0.000 A 
BRANCH  16  23
ATOM     22  C   UNL     1       1.253  11.905  19.361  0.00  0.00    +0.000 C 
ATOM     23  S   UNL     1       0.357  10.787  20.408  0.00  0.00    +0.000 S 
ATOM     24  O   UNL     1       0.671  11.101  21.788  0.00  0.00    +0.000 OA
ATOM     25  O   UNL     1      -1.017  10.739  19.942  0.00  0.00    +0.000 OA
ENDBRANCH  16  23
ENDBRANCH   1  19
TORSDOF 3
ENDMDL
