MODEL 1
REMARK VINA RESULT:      -8.4      0.000      0.000
REMARK  Name = 
REMARK  6 active torsions:
REMARK  status: ('A' for Active; 'I' for Inactive)
REMARK    1  A    between atoms: C_1  and  C_2
REMARK    2  A    between atoms: C_2  and  N_3
REMARK    3  A    between atoms: C_2  and  C_21
REMARK    4  A    between atoms: C_4  and  C_6
REMARK    5  A    between atoms: C_9  and  N_10
REMARK    6  A    between atoms: N_29  and  C_30
REMARK                            x       y       z     vdW  Elec       q    Type
REMARK                         _______ _______ _______ _____ _____    ______ ____
ROOT
ATOM      1  N   UNL     1      -0.299  11.062  19.039  0.00  0.00    +0.000 N 
ATOM      2  C   UNL     1       0.932  10.711  19.525  0.00  0.00    +0.000 C 
ATOM      3  O   UNL     1       1.674  11.517  20.100  0.00  0.00    +0.000 OA
ATOM      4  H   UNL     1      -0.750  10.452  18.358  0.00  0.00    +0.000 HD
ENDROOT
BRANCH   2   5
ATOM      5  C   UNL     1       1.402   9.303  19.388  0.00  0.00    +0.000 A 
ATOM      6  C   UNL     1       1.793   8.925  18.089  0.00  0.00    +0.000 A 
ATOM      7  C   UNL     1       2.221   7.629  17.804  0.00  0.00    +0.000 A 
ATOM      8  C   UNL     1       2.252   6.676  18.812  0.00  0.00    +0.000 A 
ATOM      9  C   UNL     1       1.895   7.034  20.118  0.00  0.00    +0.000 A 
ATOM     10  C   UNL     1       1.468   8.345  20.409  0.00  0.00    +0.000 A 
ATOM     11 CL   UNL     1       0.987   8.666  22.038  0.00  0.00    +0.000 Cl
BRANCH   8  12
ATOM     12  N   UNL     1       2.645   5.330  18.523  0.00  0.00    +0.000 N 
ATOM     13  C   UNL     1       1.741   4.460  17.739  0.00  0.00    +0.000 C 
ATOM     14  C   UNL     1       1.841   3.047  18.318  0.00  0.00    +0.000 C 
ATOM     15  C   UNL     1       3.257   2.470  18.223  0.00  0.00    +0.000 C 
ATOM     16  C   UNL     1       4.291   3.325  18.951  0.00  0.00    +0.000 C 
ATOM     17  S   UNL     1       4.304   5.003  18.336  0.00  0.00    +0.000 S 
ATOM     18  O   UNL     1       4.626   4.980  16.932  0.00  0.00    +0.000 OA
ATOM     19  O   UNL     1       5.053   5.812  19.276  0.00  0.00    +0.000 OA
ENDBRANCH   8  12
ENDBRANCH   2   5
BRANCH   1  21
ATOM     20  C   UNL     1      -0.461  13.432  18.281  0.00  0.00    +0.000 C 
ATOM     21  C   UNL     1      -0.937  12.360  19.260  0.00  0.00    +0.000 C 
BRANCH  21  22
ATOM     22  C   UNL     1      -2.438  12.170  19.157  0.00  0.00    +0.000 A 
ATOM     23  N   UNL     1      -3.055  11.584  18.146  0.00  0.00    +0.000 NA
ATOM     24  C   UNL     1      -4.388  11.605  18.447  0.00  0.00    +0.000 A 
ATOM     25  C   UNL     1      -5.472  11.102  17.710  0.00  0.00    +0.000 A 
ATOM     26  C   UNL     1      -6.763  11.216  18.238  0.00  0.00    +0.000 A 
ATOM     27  C   UNL     1      -6.974  11.830  19.473  0.00  0.00    +0.000 A 
ATOM     28  C   UNL     1      -5.907  12.352  20.216  0.00  0.00    +0.000 A 
ATOM     29  C   UNL     1      -4.617  12.221  19.675  0.00  0.00    +0.000 A 
ATOM     30  N   UNL     1      -3.361  12.589  20.102  0.00  0.00    +0.000 N 
ATOM     31  C   UNL     1      -3.071  13.287  21.332  0.00  0.00    +0.000 C 
ENDBRANCH  21  22
ENDBRANCH   1  21
TORSDOF 4
ENDMDL
MODEL 2
REMARK VINA RESULT:      -8.3      1.950      2.423
REMARK  Name = 
REMARK  6 active torsions:
REMARK  status: ('A' for Active; 'I' for Inactive)
REMARK    1  A    between atoms: C_1  and  C_2
REMARK    2  A    between atoms: C_2  and  N_3
REMARK    3  A    between atoms: C_2  and  C_21
REMARK    4  A    between atoms: C_4  and  C_6
REMARK    5  A    between atoms: C_9  and  N_10
REMARK    6  A    between atoms: N_29  and  C_30
REMARK                            x       y       z     vdW  Elec       q    Type
REMARK                         _______ _______ _______ _____ _____    ______ ____
ROOT
ATOM      1  N   UNL     1       0.399  10.340  19.884  0.00  0.00    +0.000 N 
ATOM      2  C   UNL     1       1.136   9.518  20.693  0.00  0.00    +0.000 C 
ATOM      3  O   UNL     1       1.497   9.852  21.828  0.00  0.00    +0.000 OA
ATOM      4  H   UNL     1       0.352  10.134  18.886  0.00  0.00    +0.000 HD
ENDROOT
BRANCH   2   5
ATOM      5  C   UNL     1       1.506   8.156  20.215  0.00  0.00    +0.000 A 
ATOM      6  C   UNL     1       1.200   7.106  21.102  0.00  0.00    +0.000 A 
ATOM      7  C   UNL     1       1.521   5.782  20.803  0.00  0.00    +0.000 A 
ATOM      8  C   UNL     1       2.172   5.481  19.614  0.00  0.00    +0.000 A 
ATOM      9  C   UNL     1       2.462   6.505  18.704  0.00  0.00    +0.000 A 
ATOM     10  C   UNL     1       2.132   7.842  19.000  0.00  0.00    +0.000 A 
ATOM     11 CL   UNL     1       2.593   9.036  17.839  0.00  0.00    +0.000 Cl
BRANCH   8  12
ATOM     12  N   UNL     1       2.548   4.133  19.317  0.00  0.00    +0.000 N 
ATOM     13  C   UNL     1       3.277   3.340  20.332  0.00  0.00    +0.000 C 
ATOM     14  C   UNL     1       4.300   2.473  19.595  0.00  0.00    +0.000 C 
ATOM     15  C   UNL     1       3.647   1.499  18.610  0.00  0.00    +0.000 C 
ATOM     16  C   UNL     1       2.815   2.209  17.545  0.00  0.00    +0.000 C 
ATOM     17  S   UNL     1       1.545   3.232  18.279  0.00  0.00    +0.000 S 
ATOM     18  O   UNL     1       0.676   2.397  19.068  0.00  0.00    +0.000 OA
ATOM     19  O   UNL     1       1.030   4.106  17.245  0.00  0.00    +0.000 OA
ENDBRANCH   8  12
ENDBRANCH   2   5
BRANCH   1  21
ATOM     20  C   UNL     1       0.716  12.813  19.924  0.00  0.00    +0.000 C 
ATOM     21  C   UNL     1      -0.166  11.624  20.302  0.00  0.00    +0.000 C 
BRANCH  21  22
ATOM     22  C   UNL     1      -1.541  11.759  19.678  0.00  0.00    +0.000 A 
ATOM     23  N   UNL     1      -1.862  11.344  18.465  0.00  0.00    +0.000 NA
ATOM     24  C   UNL     1      -3.186  11.638  18.298  0.00  0.00    +0.000 A 
ATOM     25  C   UNL     1      -4.016  11.396  17.191  0.00  0.00    +0.000 A 
ATOM     26  C   UNL     1      -5.363  11.766  17.258  0.00  0.00    +0.000 A 
ATOM     27  C   UNL     1      -5.876  12.378  18.403  0.00  0.00    +0.000 A 
ATOM     28  C   UNL     1      -5.060  12.642  19.512  0.00  0.00    +0.000 A 
ATOM     29  C   UNL     1      -3.712  12.255  19.430  0.00  0.00    +0.000 A 
ATOM     30  N   UNL     1      -2.641  12.338  20.292  0.00  0.00    +0.000 N 
ATOM     31  C   UNL     1      -2.676  12.926  21.610  0.00  0.00    +0.000 C 
ENDBRANCH  21  22
ENDBRANCH   1  21
TORSDOF 4
ENDMDL
MODEL 3
REMARK VINA RESULT:      -8.3      1.308      1.602
REMARK  Name = 
REMARK  6 active torsions:
REMARK  status: ('A' for Active; 'I' for Inactive)
REMARK    1  A    between atoms: C_1  and  C_2
REMARK    2  A    between atoms: C_2  and  N_3
REMARK    3  A    between atoms: C_2  and  C_21
REMARK    4  A    between atoms: C_4  and  C_6
REMARK    5  A    between atoms: C_9  and  N_10
REMARK    6  A    between atoms: N_29  and  C_30
REMARK                            x       y       z     vdW  Elec       q    Type
REMARK                         _______ _______ _______ _____ _____    ______ ____
ROOT
ATOM      1  N   UNL     1       0.100  10.670  19.985  0.00  0.00    +0.000 N 
ATOM      2  C   UNL     1       0.919   9.860  20.724  0.00  0.00    +0.000 C 
ATOM      3  O   UNL     1       1.283  10.150  21.870  0.00  0.00    +0.000 OA
ATOM      4  H   UNL     1       0.043  10.523  18.977  0.00  0.00    +0.000 HD
ENDROOT
BRANCH   2   5
ATOM      5  C   UNL     1       1.380   8.563  20.152  0.00  0.00    +0.000 A 
ATOM      6  C   UNL     1       1.262   7.453  21.011  0.00  0.00    +0.000 A 
ATOM      7  C   UNL     1       1.686   6.182  20.623  0.00  0.00    +0.000 A 
ATOM      8  C   UNL     1       2.253   5.996  19.370  0.00  0.00    +0.000 A 
ATOM      9  C   UNL     1       2.357   7.079  18.488  0.00  0.00    +0.000 A 
ATOM     10  C   UNL     1       1.922   8.363  18.875  0.00  0.00    +0.000 A 
ATOM     11 CL   UNL     1       2.154   9.641  17.735  0.00  0.00    +0.000 Cl
BRANCH   8  12
ATOM     12  N   UNL     1       2.735   4.707  18.979  0.00  0.00    +0.000 N 
ATOM     13  C   UNL     1       1.884   3.837  18.137  0.00  0.00    +0.000 C 
ATOM     14  C   UNL     1       2.087   2.395  18.607  0.00  0.00    +0.000 C 
ATOM     15  C   UNL     1       3.539   1.927  18.461  0.00  0.00    +0.000 C 
ATOM     16  C   UNL     1       4.519   2.795  19.246  0.00  0.00    +0.000 C 
ATOM     17  S   UNL     1       4.411   4.511  18.759  0.00  0.00    +0.000 S 
ATOM     18  O   UNL     1       4.718   4.616  17.355  0.00  0.00    +0.000 OA
ATOM     19  O   UNL     1       5.112   5.298  19.753  0.00  0.00    +0.000 OA
ENDBRANCH   8  12
ENDBRANCH   2   5
BRANCH   1  21
ATOM     20  C   UNL     1       0.251  13.148  20.215  0.00  0.00    +0.000 C 
ATOM     21  C   UNL     1      -0.550  11.877  20.495  0.00  0.00    +0.000 C 
BRANCH  21  22
ATOM     22  C   UNL     1      -1.930  11.968  19.875  0.00  0.00    +0.000 A 
ATOM     23  N   UNL     1      -2.238  11.551  18.660  0.00  0.00    +0.000 NA
ATOM     24  C   UNL     1      -3.573  11.799  18.497  0.00  0.00    +0.000 A 
ATOM     25  C   UNL     1      -4.395  11.536  17.389  0.00  0.00    +0.000 A 
ATOM     26  C   UNL     1      -5.755  11.856  17.462  0.00  0.00    +0.000 A 
ATOM     27  C   UNL     1      -6.287  12.440  18.612  0.00  0.00    +0.000 A 
ATOM     28  C   UNL     1      -5.479  12.724  19.722  0.00  0.00    +0.000 A 
ATOM     29  C   UNL     1      -4.119  12.387  19.635  0.00  0.00    +0.000 A 
ATOM     30  N   UNL     1      -3.049  12.502  20.495  0.00  0.00    +0.000 N 
ATOM     31  C   UNL     1      -3.103  13.077  21.819  0.00  0.00    +0.000 C 
ENDBRANCH  21  22
ENDBRANCH   1  21
TORSDOF 4
ENDMDL
MODEL 4
REMARK VINA RESULT:      -8.2      0.479      1.406
REMARK  Name = 
REMARK  6 active torsions:
REMARK  status: ('A' for Active; 'I' for Inactive)
REMARK    1  A    between atoms: C_1  and  C_2
REMARK    2  A    between atoms: C_2  and  N_3
REMARK    3  A    between atoms: C_2  and  C_21
REMARK    4  A    between atoms: C_4  and  C_6
REMARK    5  A    between atoms: C_9  and  N_10
REMARK    6  A    between atoms: N_29  and  C_30
REMARK                            x       y       z     vdW  Elec       q    Type
REMARK                         _______ _______ _______ _____ _____    ______ ____
ROOT
ATOM      1  N   UNL     1      -0.300  11.009  19.034  0.00  0.00    +0.000 N 
ATOM      2  C   UNL     1       0.973  10.688  19.423  0.00  0.00    +0.000 C 
ATOM      3  O   UNL     1       1.759  11.526  19.880  0.00  0.00    +0.000 OA
ATOM      4  H   UNL     1      -0.809  10.360  18.434  0.00  0.00    +0.000 HD
ENDROOT
BRANCH   2   5
ATOM      5  C   UNL     1       1.437   9.275  19.325  0.00  0.00    +0.000 A 
ATOM      6  C   UNL     1       1.845   8.866  18.041  0.00  0.00    +0.000 A 
ATOM      7  C   UNL     1       2.270   7.561  17.792  0.00  0.00    +0.000 A 
ATOM      8  C   UNL     1       2.281   6.631  18.822  0.00  0.00    +0.000 A 
ATOM      9  C   UNL     1       1.906   7.021  20.114  0.00  0.00    +0.000 A 
ATOM     10  C   UNL     1       1.483   8.341  20.369  0.00  0.00    +0.000 A 
ATOM     11 CL   UNL     1       0.980   8.701  21.983  0.00  0.00    +0.000 Cl
BRANCH   8  12
ATOM     12  N   UNL     1       2.670   5.277  18.569  0.00  0.00    +0.000 N 
ATOM     13  C   UNL     1       1.783   4.401  17.772  0.00  0.00    +0.000 C 
ATOM     14  C   UNL     1       1.851   2.998  18.379  0.00  0.00    +0.000 C 
ATOM     15  C   UNL     1       3.264   2.407  18.339  0.00  0.00    +0.000 C 
ATOM     16  C   UNL     1       4.282   3.265  19.086  0.00  0.00    +0.000 C 
ATOM     17  S   UNL     1       4.331   4.932  18.442  0.00  0.00    +0.000 S 
ATOM     18  O   UNL     1       4.698   4.882  17.050  0.00  0.00    +0.000 OA
ATOM     19  O   UNL     1       5.057   5.751  19.392  0.00  0.00    +0.000 OA
ENDBRANCH   8  12
ENDBRANCH   2   5
BRANCH   1  21
ATOM     20  C   UNL     1      -0.434  13.371  18.245  0.00  0.00    +0.000 C 
ATOM     21  C   UNL     1      -0.923  12.317  19.237  0.00  0.00    +0.000 C 
BRANCH  21  22
ATOM     22  C   UNL     1      -2.426  12.144  19.136  0.00  0.00    +0.000 A 
ATOM     23  N   UNL     1      -3.288  12.489  20.075  0.00  0.00    +0.000 NA
ATOM     24  C   UNL     1      -4.528  12.182  19.588  0.00  0.00    +0.000 A 
ATOM     25  C   UNL     1      -5.786  12.359  20.187  0.00  0.00    +0.000 A 
ATOM     26  C   UNL     1      -6.934  11.991  19.478  0.00  0.00    +0.000 A 
ATOM     27  C   UNL     1      -6.833  11.445  18.198  0.00  0.00    +0.000 A 
ATOM     28  C   UNL     1      -5.586  11.246  17.589  0.00  0.00    +0.000 A 
ATOM     29  C   UNL     1      -4.446  11.630  18.312  0.00  0.00    +0.000 A 
ATOM     30  N   UNL     1      -3.094  11.599  18.050  0.00  0.00    +0.000 N 
ATOM     31  C   UNL     1      -2.491  11.087  16.842  0.00  0.00    +0.000 C 
ENDBRANCH  21  22
ENDBRANCH   1  21
TORSDOF 4
ENDMDL
MODEL 5
REMARK VINA RESULT:      -8.0      1.324      1.609
REMARK  Name = 
REMARK  6 active torsions:
REMARK  status: ('A' for Active; 'I' for Inactive)
REMARK    1  A    between atoms: C_1  and  C_2
REMARK    2  A    between atoms: C_2  and  N_3
REMARK    3  A    between atoms: C_2  and  C_21
REMARK    4  A    between atoms: C_4  and  C_6
REMARK    5  A    between atoms: C_9  and  N_10
REMARK    6  A    between atoms: N_29  and  C_30
REMARK                            x       y       z     vdW  Elec       q    Type
REMARK                         _______ _______ _______ _____ _____    ______ ____
ROOT
ATOM      1  N   UNL     1      -0.418  10.868  19.219  0.00  0.00    +0.000 N 
ATOM      2  C   UNL     1       0.918  10.619  19.054  0.00  0.00    +0.000 C 
ATOM      3  O   UNL     1       1.741  11.519  18.844  0.00  0.00    +0.000 OA
ATOM      4  H   UNL     1      -1.077  10.094  19.128  0.00  0.00    +0.000 HD
ENDROOT
BRANCH   2   5
ATOM      5  C   UNL     1       1.423   9.221  19.153  0.00  0.00    +0.000 A 
ATOM      6  C   UNL     1       1.927   8.679  17.955  0.00  0.00    +0.000 A 
ATOM      7  C   UNL     1       2.400   7.368  17.889  0.00  0.00    +0.000 A 
ATOM      8  C   UNL     1       2.365   6.565  19.020  0.00  0.00    +0.000 A 
ATOM      9  C   UNL     1       1.895   7.090  20.231  0.00  0.00    +0.000 A 
ATOM     10  C   UNL     1       1.422   8.416  20.300  0.00  0.00    +0.000 A 
ATOM     11 CL   UNL     1       0.803   8.944  21.825  0.00  0.00    +0.000 Cl
BRANCH   8  12
ATOM     12  N   UNL     1       2.805   5.204  18.954  0.00  0.00    +0.000 N 
ATOM     13  C   UNL     1       3.780   4.706  19.948  0.00  0.00    +0.000 C 
ATOM     14  C   UNL     1       4.726   3.743  19.227  0.00  0.00    +0.000 C 
ATOM     15  C   UNL     1       3.995   2.536  18.631  0.00  0.00    +0.000 C 
ATOM     16  C   UNL     1       2.917   2.937  17.628  0.00  0.00    +0.000 C 
ATOM     17  S   UNL     1       1.716   4.039  18.363  0.00  0.00    +0.000 S 
ATOM     18  O   UNL     1       1.090   3.369  19.474  0.00  0.00    +0.000 OA
ATOM     19  O   UNL     1       0.937   4.623  17.289  0.00  0.00    +0.000 OA
ENDBRANCH   8  12
ENDBRANCH   2   5
BRANCH   1  21
ATOM     20  C   UNL     1      -0.476  13.163  18.246  0.00  0.00    +0.000 C 
ATOM     21  C   UNL     1      -1.006  12.204  19.311  0.00  0.00    +0.000 C 
BRANCH  21  22
ATOM     22  C   UNL     1      -2.512  12.065  19.203  0.00  0.00    +0.000 A 
ATOM     23  N   UNL     1      -3.142  11.442  18.222  0.00  0.00    +0.000 NA
ATOM     24  C   UNL     1      -4.476  11.530  18.507  0.00  0.00    +0.000 A 
ATOM     25  C   UNL     1      -5.572  11.025  17.789  0.00  0.00    +0.000 A 
ATOM     26  C   UNL     1      -6.862  11.217  18.295  0.00  0.00    +0.000 A 
ATOM     27  C   UNL     1      -7.061  11.911  19.489  0.00  0.00    +0.000 A 
ATOM     28  C   UNL     1      -5.981  12.437  20.212  0.00  0.00    +0.000 A 
ATOM     29  C   UNL     1      -4.693  12.226  19.694  0.00  0.00    +0.000 A 
ATOM     30  N   UNL     1      -3.427  12.573  20.112  0.00  0.00    +0.000 N 
ATOM     31  C   UNL     1      -3.122  13.332  21.302  0.00  0.00    +0.000 C 
ENDBRANCH  21  22
ENDBRANCH   1  21
TORSDOF 4
ENDMDL
MODEL 6
REMARK VINA RESULT:      -8.0      2.382      3.605
REMARK  Name = 
REMARK  6 active torsions:
REMARK  status: ('A' for Active; 'I' for Inactive)
REMARK    1  A    between atoms: C_1  and  C_2
REMARK    2  A    between atoms: C_2  and  N_3
REMARK    3  A    between atoms: C_2  and  C_21
REMARK    4  A    between atoms: C_4  and  C_6
REMARK    5  A    between atoms: C_9  and  N_10
REMARK    6  A    between atoms: N_29  and  C_30
REMARK                            x       y       z     vdW  Elec       q    Type
REMARK                         _______ _______ _______ _____ _____    ______ ____
ROOT
ATOM      1  N   UNL     1      -0.443  10.507  18.358  0.00  0.00    +0.000 N 
ATOM      2  C   UNL     1       0.895  10.393  18.625  0.00  0.00    +0.000 C 
ATOM      3  O   UNL     1       1.661  11.363  18.605  0.00  0.00    +0.000 OA
ATOM      4  H   UNL     1      -0.973   9.665  18.131  0.00  0.00    +0.000 HD
ENDROOT
BRANCH   2   5
ATOM      5  C   UNL     1       1.462   9.061  18.980  0.00  0.00    +0.000 A 
ATOM      6  C   UNL     1       2.039   8.351  17.909  0.00  0.00    +0.000 A 
ATOM      7  C   UNL     1       2.578   7.077  18.086  0.00  0.00    +0.000 A 
ATOM      8  C   UNL     1       2.536   6.477  19.336  0.00  0.00    +0.000 A 
ATOM      9  C   UNL     1       1.992   7.174  20.423  0.00  0.00    +0.000 A 
ATOM     10  C   UNL     1       1.453   8.465  20.248  0.00  0.00    +0.000 A 
ATOM     11 CL   UNL     1       0.748   9.210  21.638  0.00  0.00    +0.000 Cl
BRANCH   8  12
ATOM     12  N   UNL     1       3.043   5.151  19.520  0.00  0.00    +0.000 N 
ATOM     13  C   UNL     1       4.501   4.942  19.654  0.00  0.00    +0.000 C 
ATOM     14  C   UNL     1       4.850   3.638  18.933  0.00  0.00    +0.000 C 
ATOM     15  C   UNL     1       4.138   2.423  19.535  0.00  0.00    +0.000 C 
ATOM     16  C   UNL     1       2.618   2.557  19.505  0.00  0.00    +0.000 C 
ATOM     17  S   UNL     1       2.072   4.032  20.356  0.00  0.00    +0.000 S 
ATOM     18  O   UNL     1       2.505   3.962  21.728  0.00  0.00    +0.000 OA
ATOM     19  O   UNL     1       0.685   4.256  20.005  0.00  0.00    +0.000 OA
ENDBRANCH   8  12
ENDBRANCH   2   5
BRANCH   1  21
ATOM     20  C   UNL     1      -2.555  11.600  17.606  0.00  0.00    +0.000 C 
ATOM     21  C   UNL     1      -1.144  11.777  18.164  0.00  0.00    +0.000 C 
BRANCH  21  22
ATOM     22  C   UNL     1      -1.182  12.501  19.496  0.00  0.00    +0.000 A 
ATOM     23  N   UNL     1      -1.688  12.002  20.610  0.00  0.00    +0.000 NA
ATOM     24  C   UNL     1      -1.513  12.958  21.571  0.00  0.00    +0.000 A 
ATOM     25  C   UNL     1      -1.866  12.925  22.930  0.00  0.00    +0.000 A 
ATOM     26  C   UNL     1      -1.560  14.025  23.739  0.00  0.00    +0.000 A 
ATOM     27  C   UNL     1      -0.924  15.145  23.202  0.00  0.00    +0.000 A 
ATOM     28  C   UNL     1      -0.578  15.204  21.845  0.00  0.00    +0.000 A 
ATOM     29  C   UNL     1      -0.885  14.087  21.051  0.00  0.00    +0.000 A 
ATOM     30  N   UNL     1      -0.698  13.781  19.721  0.00  0.00    +0.000 N 
ATOM     31  C   UNL     1      -0.094  14.653  18.743  0.00  0.00    +0.000 C 
ENDBRANCH  21  22
ENDBRANCH   1  21
TORSDOF 4
ENDMDL
MODEL 7
REMARK VINA RESULT:      -8.0      1.898      2.279
REMARK  Name = 
REMARK  6 active torsions:
REMARK  status: ('A' for Active; 'I' for Inactive)
REMARK    1  A    between atoms: C_1  and  C_2
REMARK    2  A    between atoms: C_2  and  N_3
REMARK    3  A    between atoms: C_2  and  C_21
REMARK    4  A    between atoms: C_4  and  C_6
REMARK    5  A    between atoms: C_9  and  N_10
REMARK    6  A    between atoms: N_29  and  C_30
REMARK                            x       y       z     vdW  Elec       q    Type
REMARK                         _______ _______ _______ _____ _____    ______ ____
ROOT
ATOM      1  N   UNL     1       0.072  10.556  20.065  0.00  0.00    +0.000 N 
ATOM      2  C   UNL     1       0.928   9.769  20.787  0.00  0.00    +0.000 C 
ATOM      3  O   UNL     1       1.317  10.077  21.920  0.00  0.00    +0.000 OA
ATOM      4  H   UNL     1      -0.010  10.400  19.060  0.00  0.00    +0.000 HD
ENDROOT
BRANCH   2   5
ATOM      5  C   UNL     1       1.400   8.478  20.213  0.00  0.00    +0.000 A 
ATOM      6  C   UNL     1       1.316   7.370  21.079  0.00  0.00    +0.000 A 
ATOM      7  C   UNL     1       1.754   6.105  20.690  0.00  0.00    +0.000 A 
ATOM      8  C   UNL     1       2.302   5.922  19.428  0.00  0.00    +0.000 A 
ATOM      9  C   UNL     1       2.372   7.002  18.538  0.00  0.00    +0.000 A 
ATOM     10  C   UNL     1       1.923   8.280  18.927  0.00  0.00    +0.000 A 
ATOM     11 CL   UNL     1       2.113   9.557  17.778  0.00  0.00    +0.000 Cl
BRANCH   8  12
ATOM     12  N   UNL     1       2.798   4.639  19.034  0.00  0.00    +0.000 N 
ATOM     13  C   UNL     1       4.220   4.495  18.650  0.00  0.00    +0.000 C 
ATOM     14  C   UNL     1       4.288   3.495  17.494  0.00  0.00    +0.000 C 
ATOM     15  C   UNL     1       3.756   2.111  17.879  0.00  0.00    +0.000 C 
ATOM     16  C   UNL     1       2.305   2.149  18.351  0.00  0.00    +0.000 C 
ATOM     17  S   UNL     1       2.095   3.259  19.737  0.00  0.00    +0.000 S 
ATOM     18  O   UNL     1       2.926   2.806  20.824  0.00  0.00    +0.000 OA
ATOM     19  O   UNL     1       0.675   3.488  19.907  0.00  0.00    +0.000 OA
ENDBRANCH   8  12
ENDBRANCH   2   5
BRANCH   1  21
ATOM     20  C   UNL     1       0.238  13.023  20.385  0.00  0.00    +0.000 C 
ATOM     21  C   UNL     1      -0.589  11.754  20.583  0.00  0.00    +0.000 C 
BRANCH  21  22
ATOM     22  C   UNL     1      -1.936  11.882  19.901  0.00  0.00    +0.000 A 
ATOM     23  N   UNL     1      -2.207  11.449  18.682  0.00  0.00    +0.000 NA
ATOM     24  C   UNL     1      -3.522  11.743  18.454  0.00  0.00    +0.000 A 
ATOM     25  C   UNL     1      -4.305  11.485  17.318  0.00  0.00    +0.000 A 
ATOM     26  C   UNL     1      -5.654  11.858  17.323  0.00  0.00    +0.000 A 
ATOM     27  C   UNL     1      -6.212  12.489  18.435  0.00  0.00    +0.000 A 
ATOM     28  C   UNL     1      -5.443  12.769  19.573  0.00  0.00    +0.000 A 
ATOM     29  C   UNL     1      -4.094  12.379  19.554  0.00  0.00    +0.000 A 
ATOM     30  N   UNL     1      -3.060  12.473  20.458  0.00  0.00    +0.000 N 
ATOM     31  C   UNL     1      -3.149  13.081  21.765  0.00  0.00    +0.000 C 
ENDBRANCH  21  22
ENDBRANCH   1  21
TORSDOF 4
ENDMDL
MODEL 8
REMARK VINA RESULT:      -7.9      3.133      9.851
REMARK  Name = 
REMARK  6 active torsions:
REMARK  status: ('A' for Active; 'I' for Inactive)
REMARK    1  A    between atoms: C_1  and  C_2
REMARK    2  A    between atoms: C_2  and  N_3
REMARK    3  A    between atoms: C_2  and  C_21
REMARK    4  A    between atoms: C_4  and  C_6
REMARK    5  A    between atoms: C_9  and  N_10
REMARK    6  A    between atoms: N_29  and  C_30
REMARK                            x       y       z     vdW  Elec       q    Type
REMARK                         _______ _______ _______ _____ _____    ______ ____
ROOT
ATOM      1  N   UNL     1       2.082   5.292  18.987  0.00  0.00    +0.000 N 
ATOM      2  C   UNL     1       2.082   6.007  20.153  0.00  0.00    +0.000 C 
ATOM      3  O   UNL     1       2.537   5.555  21.211  0.00  0.00    +0.000 OA
ATOM      4  H   UNL     1       1.474   5.593  18.225  0.00  0.00    +0.000 HD
ENDROOT
BRANCH   2   5
ATOM      5  C   UNL     1       1.540   7.396  20.164  0.00  0.00    +0.000 A 
ATOM      6  C   UNL     1       0.687   7.698  21.242  0.00  0.00    +0.000 A 
ATOM      7  C   UNL     1       0.078   8.948  21.363  0.00  0.00    +0.000 A 
ATOM      8  C   UNL     1       0.297   9.918  20.396  0.00  0.00    +0.000 A 
ATOM      9  C   UNL     1       1.163   9.651  19.328  0.00  0.00    +0.000 A 
ATOM     10  C   UNL     1       1.785   8.391  19.208  0.00  0.00    +0.000 A 
ATOM     11 CL   UNL     1       2.783   8.143  17.819  0.00  0.00    +0.000 Cl
BRANCH   8  12
ATOM     12  N   UNL     1      -0.358  11.187  20.483  0.00  0.00    +0.000 N 
ATOM     13  C   UNL     1       0.282  12.287  21.238  0.00  0.00    +0.000 C 
ATOM     14  C   UNL     1      -0.825  13.062  21.955  0.00  0.00    +0.000 C 
ATOM     15  C   UNL     1      -1.836  13.679  20.983  0.00  0.00    +0.000 C 
ATOM     16  C   UNL     1      -2.520  12.634  20.105  0.00  0.00    +0.000 C 
ATOM     17  S   UNL     1      -1.329  11.678  19.175  0.00  0.00    +0.000 S 
ATOM     18  O   UNL     1      -0.573  12.571  18.334  0.00  0.00    +0.000 OA
ATOM     19  O   UNL     1      -2.015  10.522  18.637  0.00  0.00    +0.000 OA
ENDBRANCH   8  12
ENDBRANCH   2   5
BRANCH   1  21
ATOM     20  C   UNL     1       1.768   2.896  18.372  0.00  0.00    +0.000 C 
ATOM     21  C   UNL     1       2.735   3.994  18.812  0.00  0.00    +0.000 C 
BRANCH  21  22
ATOM     22  C   UNL     1       3.851   4.160  17.800  0.00  0.00    +0.000 A 
ATOM     23  N   UNL     1       3.753   3.867  16.515  0.00  0.00    +0.000 NA
ATOM     24  C   UNL     1       4.963   4.173  15.959  0.00  0.00    +0.000 A 
ATOM     25  C   UNL     1       5.380   4.058  14.622  0.00  0.00    +0.000 A 
ATOM     26  C   UNL     1       6.674   4.464  14.277  0.00  0.00    +0.000 A 
ATOM     27  C   UNL     1       7.543   4.965  15.247  0.00  0.00    +0.000 A 
ATOM     28  C   UNL     1       7.151   5.073  16.588  0.00  0.00    +0.000 A 
ATOM     29  C   UNL     1       5.846   4.669  16.914  0.00  0.00    +0.000 A 
ATOM     30  N   UNL     1       5.121   4.636  18.085  0.00  0.00    +0.000 N 
ATOM     31  C   UNL     1       5.614   5.039  19.381  0.00  0.00    +0.000 C 
ENDBRANCH  21  22
ENDBRANCH   1  21
TORSDOF 4
ENDMDL
MODEL 9
REMARK VINA RESULT:      -7.9      1.336      1.840
REMARK  Name = 
REMARK  6 active torsions:
REMARK  status: ('A' for Active; 'I' for Inactive)
REMARK    1  A    between atoms: C_1  and  C_2
REMARK    2  A    between atoms: C_2  and  N_3
REMARK    3  A    between atoms: C_2  and  C_21
REMARK    4  A    between atoms: C_4  and  C_6
REMARK    5  A    between atoms: C_9  and  N_10
REMARK    6  A    between atoms: N_29  and  C_30
REMARK                            x       y       z     vdW  Elec       q    Type
REMARK                         _______ _______ _______ _____ _____    ______ ____
ROOT
ATOM      1  N   UNL     1      -0.013  11.043  19.300  0.00  0.00    +0.000 N 
ATOM      2  C   UNL     1       1.238  10.613  18.948  0.00  0.00    +0.000 C 
ATOM      3  O   UNL     1       2.114  11.382  18.535  0.00  0.00    +0.000 OA
ATOM      4  H   UNL     1      -0.764  10.358  19.381  0.00  0.00    +0.000 HD
ENDROOT
BRANCH   2   5
ATOM      5  C   UNL     1       1.584   9.170  19.086  0.00  0.00    +0.000 A 
ATOM      6  C   UNL     1       1.975   8.530  17.894  0.00  0.00    +0.000 A 
ATOM      7  C   UNL     1       2.294   7.173  17.865  0.00  0.00    +0.000 A 
ATOM      8  C   UNL     1       2.212   6.420  19.028  0.00  0.00    +0.000 A 
ATOM      9  C   UNL     1       1.853   7.039  20.232  0.00  0.00    +0.000 A 
ATOM     10  C   UNL     1       1.537   8.412  20.265  0.00  0.00    +0.000 A 
ATOM     11 CL   UNL     1       1.043   9.063  21.787  0.00  0.00    +0.000 Cl
BRANCH   8  12
ATOM     12  N   UNL     1       2.491   5.016  19.002  0.00  0.00    +0.000 N 
ATOM     13  C   UNL     1       1.470   4.081  18.481  0.00  0.00    +0.000 C 
ATOM     14  C   UNL     1       1.526   2.813  19.336  0.00  0.00    +0.000 C 
ATOM     15  C   UNL     1       2.888   2.116  19.268  0.00  0.00    +0.000 C 
ATOM     16  C   UNL     1       4.032   3.015  19.729  0.00  0.00    +0.000 C 
ATOM     17  S   UNL     1       4.105   4.525  18.776  0.00  0.00    +0.000 S 
ATOM     18  O   UNL     1       4.306   4.190  17.389  0.00  0.00    +0.000 OA
ATOM     19  O   UNL     1       4.980   5.446  19.472  0.00  0.00    +0.000 OA
ENDBRANCH   8  12
ENDBRANCH   2   5
BRANCH   1  21
ATOM     20  C   UNL     1      -0.608  13.081  17.992  0.00  0.00    +0.000 C 
ATOM     21  C   UNL     1      -0.416  12.448  19.369  0.00  0.00    +0.000 C 
BRANCH  21  22
ATOM     22  C   UNL     1      -1.695  12.532  20.179  0.00  0.00    +0.000 A 
ATOM     23  N   UNL     1      -2.912  12.536  19.665  0.00  0.00    +0.000 NA
ATOM     24  C   UNL     1      -3.774  12.608  20.724  0.00  0.00    +0.000 A 
ATOM     25  C   UNL     1      -5.178  12.632  20.725  0.00  0.00    +0.000 A 
ATOM     26  C   UNL     1      -5.856  12.681  21.948  0.00  0.00    +0.000 A 
ATOM     27  C   UNL     1      -5.149  12.719  23.150  0.00  0.00    +0.000 A 
ATOM     28  C   UNL     1      -3.748  12.711  23.169  0.00  0.00    +0.000 A 
ATOM     29  C   UNL     1      -3.085  12.652  21.933  0.00  0.00    +0.000 A 
ATOM     30  N   UNL     1      -1.759  12.620  21.561  0.00  0.00    +0.000 N 
ATOM     31  C   UNL     1      -0.638  12.664  22.470  0.00  0.00    +0.000 C 
ENDBRANCH  21  22
ENDBRANCH   1  21
TORSDOF 4
ENDMDL
