MODEL 1
REMARK VINA RESULT:      -7.0      0.000      0.000
REMARK  Name = 
REMARK  9 active torsions:
REMARK  status: ('A' for Active; 'I' for Inactive)
REMARK    1  A    between atoms: C_1  and  O_2
REMARK    2  A    between atoms: O_2  and  C_3
REMARK    3  A    between atoms: C_13  and  O_14
REMARK    4  A    between atoms: O_14  and  C_15
REMARK    5  A    between atoms: C_15  and  C_16
REMARK    6  A    between atoms: C_16  and  C_17
REMARK    7  A    between atoms: C_16  and  C_18
REMARK    8  A    between atoms: N_25  and  C_26
REMARK    9  A    between atoms: C_26  and  C_27
REMARK                            x       y       z     vdW  Elec       q    Type
REMARK                         _______ _______ _______ _____ _____    ______ ____
ROOT
ATOM      1  C   UNL     1       2.429  15.695  19.736  0.00  0.00    +0.000 C 
ATOM      2  C   UNL     1       1.349  15.406  18.705  0.00  0.00    +0.000 C 
ATOM      3  C   UNL     1       0.325  14.468  19.316  0.00  0.00    +0.000 C 
ATOM      4  C   UNL     1       0.888  13.081  19.832  0.00  0.00    +0.000 C 
ATOM      5  C   UNL     1       2.137  13.331  20.710  0.00  0.00    +0.000 C 
ATOM      6  C   UNL     1       3.116  14.383  20.135  0.00  0.00    +0.000 C 
ATOM      7  C   UNL     1       1.258  12.400  18.475  0.00  0.00    +0.000 C 
ATOM      8  C   UNL     1       1.209  10.952  18.787  0.00  0.00    +0.000 A 
ATOM      9  C   UNL     1       1.951  10.006  18.072  0.00  0.00    +0.000 A 
ATOM     10  C   UNL     1       2.007   8.738  18.580  0.00  0.00    +0.000 A 
ATOM     11  C   UNL     1       1.331   8.397  19.750  0.00  0.00    +0.000 A 
ATOM     12  C   UNL     1       0.515   9.354  20.421  0.00  0.00    +0.000 A 
ATOM     13  C   UNL     1       0.427  10.669  19.906  0.00  0.00    +0.000 A 
ATOM     14  C   UNL     1      -0.175  11.968  20.484  0.00  0.00    +0.000 C 
ATOM     15  N   UNL     1      -1.432  12.548  19.894  0.00  0.00    +0.000 NA
ATOM     16  C   UNL     1      -1.919  13.114  20.954  0.00  0.00    +0.000 C 
ATOM     17  N   UNL     1      -1.772  14.426  21.356  0.00  0.00    +0.000 N 
ATOM     18  N   UNL     1      -2.066  12.272  21.962  0.00  0.00    +0.000 N 
ATOM     19  C   UNL     1      -0.780  11.772  22.003  0.00  0.00    +0.000 C 
ATOM     20  O   UNL     1      -0.191  11.408  23.006  0.00  0.00    +0.000 OA
ATOM     21  H   UNL     1      -0.789  14.578  21.566  0.00  0.00    +0.000 HD
ATOM     22  H   UNL     1      -2.155  14.658  22.265  0.00  0.00    +0.000 HD
ENDROOT
BRANCH   1  24
ATOM     23  C   UNL     1       3.726  16.253  17.816  0.00  0.00    +0.000 C 
ATOM     24  O   UNL     1       3.314  16.629  19.121  0.00  0.00    +0.000 OA
ENDBRANCH   1  24
BRANCH  11  25
ATOM     25  O   UNL     1       1.658   7.147  20.199  0.00  0.00    +0.000 OA
BRANCH  25  26
ATOM     26  C   UNL     1       2.734   6.472  19.563  0.00  0.00    +0.000 C 
BRANCH  26  27
ATOM     27  C   UNL     1       2.327   4.997  19.359  0.00  0.00    +0.000 C 
ATOM     28  C   UNL     1       1.283   4.530  20.381  0.00  0.00    +0.000 C 
ATOM     29  C   UNL     1       1.803   4.784  17.939  0.00  0.00    +0.000 C 
ENDBRANCH  26  27
ENDBRANCH  25  26
ENDBRANCH  11  25
BRANCH  18  30
ATOM     30  C   UNL     1      -3.063  12.609  22.999  0.00  0.00    +0.000 C 
BRANCH  30  31
ATOM     31  C   UNL     1      -4.515  12.858  22.614  0.00  0.00    +0.000 C 
ATOM     32  F   UNL     1      -5.394  12.457  23.551  0.00  0.00    +0.000 F 
ATOM     33  F   UNL     1      -4.703  14.176  22.386  0.00  0.00    +0.000 F 
ATOM     34  F   UNL     1      -4.822  12.219  21.457  0.00  0.00    +0.000 F 
ENDBRANCH  30  31
ENDBRANCH  18  30
TORSDOF 6
ENDMDL
MODEL 2
REMARK VINA RESULT:      -6.9      0.645      1.112
REMARK  Name = 
REMARK  9 active torsions:
REMARK  status: ('A' for Active; 'I' for Inactive)
REMARK    1  A    between atoms: C_1  and  O_2
REMARK    2  A    between atoms: O_2  and  C_3
REMARK    3  A    between atoms: C_13  and  O_14
REMARK    4  A    between atoms: O_14  and  C_15
REMARK    5  A    between atoms: C_15  and  C_16
REMARK    6  A    between atoms: C_16  and  C_17
REMARK    7  A    between atoms: C_16  and  C_18
REMARK    8  A    between atoms: N_25  and  C_26
REMARK    9  A    between atoms: C_26  and  C_27
REMARK                            x       y       z     vdW  Elec       q    Type
REMARK                         _______ _______ _______ _____ _____    ______ ____
ROOT
ATOM      1  C   UNL     1       2.387  15.292  19.416  0.00  0.00    +0.000 C 
ATOM      2  C   UNL     1       1.353  14.873  18.382  0.00  0.00    +0.000 C 
ATOM      3  C   UNL     1       0.290  14.032  19.063  0.00  0.00    +0.000 C 
ATOM      4  C   UNL     1       0.811  12.723  19.787  0.00  0.00    +0.000 C 
ATOM      5  C   UNL     1       2.021  13.082  20.682  0.00  0.00    +0.000 C 
ATOM      6  C   UNL     1       3.038  14.041  20.019  0.00  0.00    +0.000 C 
ATOM      7  C   UNL     1       1.236  11.864  18.552  0.00  0.00    +0.000 C 
ATOM      8  C   UNL     1       1.155  10.472  19.052  0.00  0.00    +0.000 A 
ATOM      9  C   UNL     1       1.919   9.434  18.507  0.00  0.00    +0.000 A 
ATOM     10  C   UNL     1       1.936   8.246  19.182  0.00  0.00    +0.000 A 
ATOM     11  C   UNL     1       1.202   8.068  20.352  0.00  0.00    +0.000 A 
ATOM     12  C   UNL     1       0.365   9.111  20.849  0.00  0.00    +0.000 A 
ATOM     13  C   UNL     1       0.318  10.345  20.160  0.00  0.00    +0.000 A 
ATOM     14  C   UNL     1      -0.295  11.714  20.529  0.00  0.00    +0.000 C 
ATOM     15  N   UNL     1      -1.516  12.216  19.806  0.00  0.00    +0.000 NA
ATOM     16  C   UNL     1      -2.045  12.922  20.756  0.00  0.00    +0.000 C 
ATOM     17  N   UNL     1      -1.901  14.275  20.986  0.00  0.00    +0.000 N 
ATOM     18  N   UNL     1      -2.250  12.224  21.860  0.00  0.00    +0.000 N 
ATOM     19  C   UNL     1      -0.973  11.727  22.029  0.00  0.00    +0.000 C 
ATOM     20  O   UNL     1      -0.437  11.498  23.099  0.00  0.00    +0.000 OA
ATOM     21  H   UNL     1      -0.928  14.448  21.221  0.00  0.00    +0.000 HD
ATOM     22  H   UNL     1      -2.324  14.629  21.836  0.00  0.00    +0.000 HD
ENDROOT
BRANCH   1  24
ATOM     23  C   UNL     1       4.378  15.423  18.114  0.00  0.00    +0.000 C 
ATOM     24  O   UNL     1       3.310  16.130  18.725  0.00  0.00    +0.000 OA
ENDBRANCH   1  24
BRANCH  11  25
ATOM     25  O   UNL     1       1.491   6.888  20.980  0.00  0.00    +0.000 OA
BRANCH  25  26
ATOM     26  C   UNL     1       2.156   5.881  20.230  0.00  0.00    +0.000 C 
BRANCH  26  27
ATOM     27  C   UNL     1       1.346   4.573  20.352  0.00  0.00    +0.000 C 
ATOM     28  C   UNL     1       1.232   3.828  19.017  0.00  0.00    +0.000 C 
ATOM     29  C   UNL     1       1.968   3.662  21.409  0.00  0.00    +0.000 C 
ENDBRANCH  26  27
ENDBRANCH  25  26
ENDBRANCH  11  25
BRANCH  18  30
ATOM     30  C   UNL     1      -3.290  12.702  22.793  0.00  0.00    +0.000 C 
BRANCH  30  31
ATOM     31  C   UNL     1      -4.730  12.857  22.322  0.00  0.00    +0.000 C 
ATOM     32  F   UNL     1      -5.044  12.059  21.285  0.00  0.00    +0.000 F 
ATOM     33  F   UNL     1      -5.572  12.586  23.342  0.00  0.00    +0.000 F 
ATOM     34  F   UNL     1      -4.978  14.138  21.948  0.00  0.00    +0.000 F 
ENDBRANCH  30  31
ENDBRANCH  18  30
TORSDOF 6
ENDMDL
MODEL 3
REMARK VINA RESULT:      -6.8      4.943      6.685
REMARK  Name = 
REMARK  9 active torsions:
REMARK  status: ('A' for Active; 'I' for Inactive)
REMARK    1  A    between atoms: C_1  and  O_2
REMARK    2  A    between atoms: O_2  and  C_3
REMARK    3  A    between atoms: C_13  and  O_14
REMARK    4  A    between atoms: O_14  and  C_15
REMARK    5  A    between atoms: C_15  and  C_16
REMARK    6  A    between atoms: C_16  and  C_17
REMARK    7  A    between atoms: C_16  and  C_18
REMARK    8  A    between atoms: N_25  and  C_26
REMARK    9  A    between atoms: C_26  and  C_27
REMARK                            x       y       z     vdW  Elec       q    Type
REMARK                         _______ _______ _______ _____ _____    ______ ____
ROOT
ATOM      1  C   UNL     1       0.190  14.024  22.208  0.00  0.00    +0.000 C 
ATOM      2  C   UNL     1      -0.804  13.002  22.737  0.00  0.00    +0.000 C 
ATOM      3  C   UNL     1      -0.548  11.670  22.058  0.00  0.00    +0.000 C 
ATOM      4  C   UNL     1      -0.651  11.675  20.478  0.00  0.00    +0.000 C 
ATOM      5  C   UNL     1       0.177  12.855  19.915  0.00  0.00    +0.000 C 
ATOM      6  C   UNL     1       0.001  14.181  20.694  0.00  0.00    +0.000 C 
ATOM      7  C   UNL     1      -2.187  11.902  20.293  0.00  0.00    +0.000 C 
ATOM      8  C   UNL     1      -2.464  11.332  18.954  0.00  0.00    +0.000 A 
ATOM      9  C   UNL     1      -3.536  11.762  18.164  0.00  0.00    +0.000 A 
ATOM     10  C   UNL     1      -3.570  11.335  16.866  0.00  0.00    +0.000 A 
ATOM     11  C   UNL     1      -2.589  10.486  16.357  0.00  0.00    +0.000 A 
ATOM     12  C   UNL     1      -1.548   9.994  17.200  0.00  0.00    +0.000 A 
ATOM     13  C   UNL     1      -1.501  10.408  18.551  0.00  0.00    +0.000 A 
ATOM     14  C   UNL     1      -0.424  10.243  19.646  0.00  0.00    +0.000 C 
ATOM     15  N   UNL     1      -0.663   9.317  20.809  0.00  0.00    +0.000 NA
ATOM     16  C   UNL     1       0.561   8.966  21.051  0.00  0.00    +0.000 C 
ATOM     17  N   UNL     1       1.435   9.521  21.964  0.00  0.00    +0.000 N 
ATOM     18  N   UNL     1       1.166   8.453  19.994  0.00  0.00    +0.000 N 
ATOM     19  C   UNL     1       0.930   9.480  19.103  0.00  0.00    +0.000 C 
ATOM     20  O   UNL     1       1.672   9.821  18.199  0.00  0.00    +0.000 OA
ATOM     21  H   UNL     1       1.628  10.474  21.669  0.00  0.00    +0.000 HD
ATOM     22  H   UNL     1       2.383   9.165  21.944  0.00  0.00    +0.000 HD
ENDROOT
BRANCH   1  24
ATOM     23  C   UNL     1      -1.186  15.146  23.796  0.00  0.00    +0.000 C 
ATOM     24  O   UNL     1      -0.062  15.224  22.935  0.00  0.00    +0.000 OA
ENDBRANCH   1  24
BRANCH  11  25
ATOM     25  O   UNL     1      -2.686  10.323  15.003  0.00  0.00    +0.000 OA
BRANCH  25  26
ATOM     26  C   UNL     1      -3.960  10.011  14.460  0.00  0.00    +0.000 C 
BRANCH  26  27
ATOM     27  C   UNL     1      -3.858  10.070  12.920  0.00  0.00    +0.000 C 
ATOM     28  C   UNL     1      -2.590   9.390  12.391  0.00  0.00    +0.000 C 
ATOM     29  C   UNL     1      -5.097   9.440  12.284  0.00  0.00    +0.000 C 
ENDBRANCH  26  27
ENDBRANCH  25  26
ENDBRANCH  11  25
BRANCH  18  30
ATOM     30  C   UNL     1       2.310   7.549  20.228  0.00  0.00    +0.000 C 
BRANCH  30  31
ATOM     31  C   UNL     1       2.216   6.078  19.845  0.00  0.00    +0.000 C 
ATOM     32  F   UNL     1       1.886   5.880  18.554  0.00  0.00    +0.000 F 
ATOM     33  F   UNL     1       3.398   5.471  20.083  0.00  0.00    +0.000 F 
ATOM     34  F   UNL     1       1.294   5.441  20.609  0.00  0.00    +0.000 F 
ENDBRANCH  30  31
ENDBRANCH  18  30
TORSDOF 6
ENDMDL
MODEL 4
REMARK VINA RESULT:      -6.7      3.595      5.836
REMARK  Name = 
REMARK  9 active torsions:
REMARK  status: ('A' for Active; 'I' for Inactive)
REMARK    1  A    between atoms: C_1  and  O_2
REMARK    2  A    between atoms: O_2  and  C_3
REMARK    3  A    between atoms: C_13  and  O_14
REMARK    4  A    between atoms: O_14  and  C_15
REMARK    5  A    between atoms: C_15  and  C_16
REMARK    6  A    between atoms: C_16  and  C_17
REMARK    7  A    between atoms: C_16  and  C_18
REMARK    8  A    between atoms: N_25  and  C_26
REMARK    9  A    between atoms: C_26  and  C_27
REMARK                            x       y       z     vdW  Elec       q    Type
REMARK                         _______ _______ _______ _____ _____    ______ ____
ROOT
ATOM      1  C   UNL     1      -4.760  14.152  20.941  0.00  0.00    +0.000 C 
ATOM      2  C   UNL     1      -3.928  14.647  22.113  0.00  0.00    +0.000 C 
ATOM      3  C   UNL     1      -2.465  14.650  21.712  0.00  0.00    +0.000 C 
ATOM      4  C   UNL     1      -1.878  13.252  21.255  0.00  0.00    +0.000 C 
ATOM      5  C   UNL     1      -2.830  12.612  20.217  0.00  0.00    +0.000 C 
ATOM      6  C   UNL     1      -4.330  12.725  20.579  0.00  0.00    +0.000 C 
ATOM      7  C   UNL     1      -1.892  12.479  22.613  0.00  0.00    +0.000 C 
ATOM      8  C   UNL     1      -0.847  11.444  22.435  0.00  0.00    +0.000 A 
ATOM      9  C   UNL     1      -0.864  10.233  23.137  0.00  0.00    +0.000 A 
ATOM     10  C   UNL     1       0.014   9.264  22.738  0.00  0.00    +0.000 A 
ATOM     11  C   UNL     1       0.906   9.483  21.691  0.00  0.00    +0.000 A 
ATOM     12  C   UNL     1       0.964  10.751  21.041  0.00  0.00    +0.000 A 
ATOM     13  C   UNL     1       0.077  11.776  21.446  0.00  0.00    +0.000 A 
ATOM     14  C   UNL     1      -0.263  13.151  20.832  0.00  0.00    +0.000 C 
ATOM     15  N   UNL     1       0.184  14.416  21.515  0.00  0.00    +0.000 NA
ATOM     16  C   UNL     1       0.317  15.179  20.475  0.00  0.00    +0.000 C 
ATOM     17  N   UNL     1      -0.605  16.058  19.946  0.00  0.00    +0.000 N 
ATOM     18  N   UNL     1       1.133  14.670  19.568  0.00  0.00    +0.000 N 
ATOM     19  C   UNL     1       0.532  13.436  19.419  0.00  0.00    +0.000 C 
ATOM     20  O   UNL     1       0.489  12.787  18.389  0.00  0.00    +0.000 OA
ATOM     21  H   UNL     1      -1.394  15.514  19.609  0.00  0.00    +0.000 HD
ATOM     22  H   UNL     1      -0.347  16.501  19.073  0.00  0.00    +0.000 HD
ENDROOT
BRANCH   1  24
ATOM     23  C   UNL     1      -6.681  12.996  21.747  0.00  0.00    +0.000 C 
ATOM     24  O   UNL     1      -6.119  14.241  21.363  0.00  0.00    +0.000 OA
ENDBRANCH   1  24
BRANCH  11  25
ATOM     25  O   UNL     1       1.566   8.345  21.317  0.00  0.00    +0.000 OA
BRANCH  25  26
ATOM     26  C   UNL     1       1.633   8.041  19.931  0.00  0.00    +0.000 C 
BRANCH  26  27
ATOM     27  C   UNL     1       2.434   6.731  19.761  0.00  0.00    +0.000 C 
ATOM     28  C   UNL     1       1.762   5.541  20.455  0.00  0.00    +0.000 C 
ATOM     29  C   UNL     1       2.641   6.427  18.279  0.00  0.00    +0.000 C 
ENDBRANCH  26  27
ENDBRANCH  25  26
ENDBRANCH  11  25
BRANCH  18  30
ATOM     30  C   UNL     1       1.789  15.604  18.632  0.00  0.00    +0.000 C 
BRANCH  30  31
ATOM     31  C   UNL     1       3.188  15.309  18.109  0.00  0.00    +0.000 C 
ATOM     32  F   UNL     1       3.395  15.745  16.852  0.00  0.00    +0.000 F 
ATOM     33  F   UNL     1       4.105  15.883  18.917  0.00  0.00    +0.000 F 
ATOM     34  F   UNL     1       3.438  13.975  18.130  0.00  0.00    +0.000 F 
ENDBRANCH  30  31
ENDBRANCH  18  30
TORSDOF 6
ENDMDL
MODEL 5
REMARK VINA RESULT:      -6.7      0.997      1.288
REMARK  Name = 
REMARK  9 active torsions:
REMARK  status: ('A' for Active; 'I' for Inactive)
REMARK    1  A    between atoms: C_1  and  O_2
REMARK    2  A    between atoms: O_2  and  C_3
REMARK    3  A    between atoms: C_13  and  O_14
REMARK    4  A    between atoms: O_14  and  C_15
REMARK    5  A    between atoms: C_15  and  C_16
REMARK    6  A    between atoms: C_16  and  C_17
REMARK    7  A    between atoms: C_16  and  C_18
REMARK    8  A    between atoms: N_25  and  C_26
REMARK    9  A    between atoms: C_26  and  C_27
REMARK                            x       y       z     vdW  Elec       q    Type
REMARK                         _______ _______ _______ _____ _____    ______ ____
ROOT
ATOM      1  C   UNL     1       2.594  15.290  19.363  0.00  0.00    +0.000 C 
ATOM      2  C   UNL     1       1.694  14.875  18.210  0.00  0.00    +0.000 C 
ATOM      3  C   UNL     1       0.545  14.047  18.755  0.00  0.00    +0.000 C 
ATOM      4  C   UNL     1       0.958  12.738  19.544  0.00  0.00    +0.000 C 
ATOM      5  C   UNL     1       2.048  13.090  20.584  0.00  0.00    +0.000 C 
ATOM      6  C   UNL     1       3.151  14.037  20.050  0.00  0.00    +0.000 C 
ATOM      7  C   UNL     1       1.526  11.868  18.377  0.00  0.00    +0.000 C 
ATOM      8  C   UNL     1       1.369  10.480  18.870  0.00  0.00    +0.000 A 
ATOM      9  C   UNL     1       2.185   9.431  18.429  0.00  0.00    +0.000 A 
ATOM     10  C   UNL     1       2.104   8.247  19.107  0.00  0.00    +0.000 A 
ATOM     11  C   UNL     1       1.226   8.083  20.176  0.00  0.00    +0.000 A 
ATOM     12  C   UNL     1       0.345   9.137  20.559  0.00  0.00    +0.000 A 
ATOM     13  C   UNL     1       0.398  10.367  19.864  0.00  0.00    +0.000 A 
ATOM     14  C   UNL     1      -0.243  11.744  20.147  0.00  0.00    +0.000 C 
ATOM     15  N   UNL     1      -1.358  12.253  19.273  0.00  0.00    +0.000 NA
ATOM     16  C   UNL     1      -1.995  12.970  20.146  0.00  0.00    +0.000 C 
ATOM     17  N   UNL     1      -1.868  14.323  20.386  0.00  0.00    +0.000 N 
ATOM     18  N   UNL     1      -2.345  12.280  21.217  0.00  0.00    +0.000 N 
ATOM     19  C   UNL     1      -1.105  11.772  21.549  0.00  0.00    +0.000 C 
ATOM     20  O   UNL     1      -0.710  11.544  22.679  0.00  0.00    +0.000 OA
ATOM     21  H   UNL     1      -0.931  14.488  20.740  0.00  0.00    +0.000 HD
ATOM     22  H   UNL     1      -2.391  14.686  21.173  0.00  0.00    +0.000 HD
ENDROOT
BRANCH   1  24
ATOM     23  C   UNL     1       3.305  16.560  17.477  0.00  0.00    +0.000 C 
ATOM     24  O   UNL     1       3.605  16.115  18.791  0.00  0.00    +0.000 OA
ENDBRANCH   1  24
BRANCH  11  25
ATOM     25  O   UNL     1       1.423   6.904  20.841  0.00  0.00    +0.000 OA
BRANCH  25  26
ATOM     26  C   UNL     1       2.170   5.888  20.187  0.00  0.00    +0.000 C 
BRANCH  26  27
ATOM     27  C   UNL     1       1.368   4.571  20.263  0.00  0.00    +0.000 C 
ATOM     28  C   UNL     1       1.372   3.806  18.936  0.00  0.00    +0.000 C 
ATOM     29  C   UNL     1       1.911   3.685  21.383  0.00  0.00    +0.000 C 
ENDBRANCH  26  27
ENDBRANCH  25  26
ENDBRANCH  11  25
BRANCH  18  30
ATOM     30  C   UNL     1      -3.489  12.774  22.010  0.00  0.00    +0.000 C 
BRANCH  30  31
ATOM     31  C   UNL     1      -3.385  12.876  23.525  0.00  0.00    +0.000 C 
ATOM     32  F   UNL     1      -3.252  11.683  24.136  0.00  0.00    +0.000 F 
ATOM     33  F   UNL     1      -2.326  13.646  23.856  0.00  0.00    +0.000 F 
ATOM     34  F   UNL     1      -4.481  13.485  24.043  0.00  0.00    +0.000 F 
ENDBRANCH  30  31
ENDBRANCH  18  30
TORSDOF 6
ENDMDL
MODEL 6
REMARK VINA RESULT:      -6.7      3.475      5.869
REMARK  Name = 
REMARK  9 active torsions:
REMARK  status: ('A' for Active; 'I' for Inactive)
REMARK    1  A    between atoms: C_1  and  O_2
REMARK    2  A    between atoms: O_2  and  C_3
REMARK    3  A    between atoms: C_13  and  O_14
REMARK    4  A    between atoms: O_14  and  C_15
REMARK    5  A    between atoms: C_15  and  C_16
REMARK    6  A    between atoms: C_16  and  C_17
REMARK    7  A    between atoms: C_16  and  C_18
REMARK    8  A    between atoms: N_25  and  C_26
REMARK    9  A    between atoms: C_26  and  C_27
REMARK                            x       y       z     vdW  Elec       q    Type
REMARK                         _______ _______ _______ _____ _____    ______ ____
ROOT
ATOM      1  C   UNL     1      -4.809  14.090  22.082  0.00  0.00    +0.000 C 
ATOM      2  C   UNL     1      -3.747  14.457  23.107  0.00  0.00    +0.000 C 
ATOM      3  C   UNL     1      -2.401  14.539  22.412  0.00  0.00    +0.000 C 
ATOM      4  C   UNL     1      -1.929  13.221  21.673  0.00  0.00    +0.000 C 
ATOM      5  C   UNL     1      -3.081  12.691  20.786  0.00  0.00    +0.000 C 
ATOM      6  C   UNL     1      -4.471  12.727  21.465  0.00  0.00    +0.000 C 
ATOM      7  C   UNL     1      -1.662  12.287  22.898  0.00  0.00    +0.000 C 
ATOM      8  C   UNL     1      -0.682  11.305  22.380  0.00  0.00    +0.000 A 
ATOM      9  C   UNL     1      -0.557  10.018  22.915  0.00  0.00    +0.000 A 
ATOM     10  C   UNL     1       0.213   9.124  22.224  0.00  0.00    +0.000 A 
ATOM     11  C   UNL     1       0.867   9.487  21.049  0.00  0.00    +0.000 A 
ATOM     12  C   UNL     1       0.793  10.826  20.563  0.00  0.00    +0.000 A 
ATOM     13  C   UNL     1       0.016  11.775  21.268  0.00  0.00    +0.000 A 
ATOM     14  C   UNL     1      -0.440  13.207  20.914  0.00  0.00    +0.000 C 
ATOM     15  N   UNL     1       0.146  14.389  21.639  0.00  0.00    +0.000 NA
ATOM     16  C   UNL     1       0.062  15.275  20.696  0.00  0.00    +0.000 C 
ATOM     17  N   UNL     1      -0.947  16.192  20.484  0.00  0.00    +0.000 N 
ATOM     18  N   UNL     1       0.667  14.898  19.583  0.00  0.00    +0.000 N 
ATOM     19  C   UNL     1       0.042  13.679  19.412  0.00  0.00    +0.000 C 
ATOM     20  O   UNL     1      -0.219  13.159  18.341  0.00  0.00    +0.000 OA
ATOM     21  H   UNL     1      -1.792  15.676  20.255  0.00  0.00    +0.000 HD
ATOM     22  H   UNL     1      -0.876  16.743  19.638  0.00  0.00    +0.000 HD
ENDROOT
BRANCH   1  24
ATOM     23  C   UNL     1      -6.127  15.091  23.796  0.00  0.00    +0.000 C 
ATOM     24  O   UNL     1      -6.049  14.097  22.787  0.00  0.00    +0.000 OA
ENDBRANCH   1  24
BRANCH  11  25
ATOM     25  O   UNL     1       1.428   8.418  20.408  0.00  0.00    +0.000 OA
BRANCH  25  26
ATOM     26  C   UNL     1       1.812   8.582  19.051  0.00  0.00    +0.000 C 
BRANCH  26  27
ATOM     27  C   UNL     1       2.311   7.221  18.520  0.00  0.00    +0.000 C 
ATOM     28  C   UNL     1       3.551   7.359  17.630  0.00  0.00    +0.000 C 
ATOM     29  C   UNL     1       2.601   6.274  19.683  0.00  0.00    +0.000 C 
ENDBRANCH  26  27
ENDBRANCH  25  26
ENDBRANCH  11  25
BRANCH  18  30
ATOM     30  C   UNL     1       1.116  15.953  18.653  0.00  0.00    +0.000 C 
BRANCH  30  31
ATOM     31  C   UNL     1       2.580  16.043  18.246  0.00  0.00    +0.000 C 
ATOM     32  F   UNL     1       3.374  16.554  19.206  0.00  0.00    +0.000 F 
ATOM     33  F   UNL     1       3.037  14.815  17.921  0.00  0.00    +0.000 F 
ATOM     34  F   UNL     1       2.724  16.814  17.137  0.00  0.00    +0.000 F 
ENDBRANCH  30  31
ENDBRANCH  18  30
TORSDOF 6
ENDMDL
MODEL 7
REMARK VINA RESULT:      -6.6      3.526      5.740
REMARK  Name = 
REMARK  9 active torsions:
REMARK  status: ('A' for Active; 'I' for Inactive)
REMARK    1  A    between atoms: C_1  and  O_2
REMARK    2  A    between atoms: O_2  and  C_3
REMARK    3  A    between atoms: C_13  and  O_14
REMARK    4  A    between atoms: O_14  and  C_15
REMARK    5  A    between atoms: C_15  and  C_16
REMARK    6  A    between atoms: C_16  and  C_17
REMARK    7  A    between atoms: C_16  and  C_18
REMARK    8  A    between atoms: N_25  and  C_26
REMARK    9  A    between atoms: C_26  and  C_27
REMARK                            x       y       z     vdW  Elec       q    Type
REMARK                         _______ _______ _______ _____ _____    ______ ____
ROOT
ATOM      1  C   UNL     1      -3.874  13.855  22.705  0.00  0.00    +0.000 C 
ATOM      2  C   UNL     1      -2.705  13.898  23.676  0.00  0.00    +0.000 C 
ATOM      3  C   UNL     1      -1.413  13.994  22.886  0.00  0.00    +0.000 C 
ATOM      4  C   UNL     1      -1.149  12.818  21.859  0.00  0.00    +0.000 C 
ATOM      5  C   UNL     1      -2.415  12.596  20.999  0.00  0.00    +0.000 C 
ATOM      6  C   UNL     1      -3.739  12.624  21.800  0.00  0.00    +0.000 C 
ATOM      7  C   UNL     1      -0.899  11.630  22.844  0.00  0.00    +0.000 C 
ATOM      8  C   UNL     1      -0.077  10.687  22.050  0.00  0.00    +0.000 A 
ATOM      9  C   UNL     1      -0.059   9.311  22.305  0.00  0.00    +0.000 A 
ATOM     10  C   UNL     1       0.552   8.510  21.381  0.00  0.00    +0.000 A 
ATOM     11  C   UNL     1       1.154   9.045  20.244  0.00  0.00    +0.000 A 
ATOM     12  C   UNL     1       1.196  10.457  20.042  0.00  0.00    +0.000 A 
ATOM     13  C   UNL     1       0.585  11.309  20.992  0.00  0.00    +0.000 A 
ATOM     14  C   UNL     1       0.269  12.820  20.974  0.00  0.00    +0.000 C 
ATOM     15  N   UNL     1       1.037  13.764  21.860  0.00  0.00    +0.000 NA
ATOM     16  C   UNL     1       0.984  14.830  21.124  0.00  0.00    +0.000 C 
ATOM     17  N   UNL     1       0.072  15.864  21.195  0.00  0.00    +0.000 N 
ATOM     18  N   UNL     1       1.459  14.636  19.906  0.00  0.00    +0.000 N 
ATOM     19  C   UNL     1       0.689  13.544  19.556  0.00  0.00    +0.000 C 
ATOM     20  O   UNL     1       0.293  13.285  18.434  0.00  0.00    +0.000 OA
ATOM     21  H   UNL     1      -0.840  15.490  20.949  0.00  0.00    +0.000 HD
ATOM     22  H   UNL     1       0.142  16.569  20.472  0.00  0.00    +0.000 HD
ENDROOT
BRANCH   1  24
ATOM     23  C   UNL     1      -5.637  15.112  23.699  0.00  0.00    +0.000 C 
ATOM     24  O   UNL     1      -5.050  13.834  23.512  0.00  0.00    +0.000 OA
ENDBRANCH   1  24
BRANCH  11  25
ATOM     25  O   UNL     1       1.541   8.083  19.353  0.00  0.00    +0.000 OA
BRANCH  25  26
ATOM     26  C   UNL     1       2.218   6.942  19.858  0.00  0.00    +0.000 C 
BRANCH  26  27
ATOM     27  C   UNL     1       3.013   6.298  18.702  0.00  0.00    +0.000 C 
ATOM     28  C   UNL     1       3.550   7.337  17.711  0.00  0.00    +0.000 C 
ATOM     29  C   UNL     1       4.161   5.455  19.254  0.00  0.00    +0.000 C 
ENDBRANCH  26  27
ENDBRANCH  25  26
ENDBRANCH  11  25
BRANCH  18  30
ATOM     30  C   UNL     1       1.954  15.813  19.165  0.00  0.00    +0.000 C 
BRANCH  30  31
ATOM     31  C   UNL     1       3.102  15.669  18.175  0.00  0.00    +0.000 C 
ATOM     32  F   UNL     1       4.313  15.871  18.725  0.00  0.00    +0.000 F 
ATOM     33  F   UNL     1       3.078  14.432  17.632  0.00  0.00    +0.000 F 
ATOM     34  F   UNL     1       2.963  16.543  17.146  0.00  0.00    +0.000 F 
ENDBRANCH  30  31
ENDBRANCH  18  30
TORSDOF 6
ENDMDL
MODEL 8
REMARK VINA RESULT:      -6.6      3.895      7.191
REMARK  Name = 
REMARK  9 active torsions:
REMARK  status: ('A' for Active; 'I' for Inactive)
REMARK    1  A    between atoms: C_1  and  O_2
REMARK    2  A    between atoms: O_2  and  C_3
REMARK    3  A    between atoms: C_13  and  O_14
REMARK    4  A    between atoms: O_14  and  C_15
REMARK    5  A    between atoms: C_15  and  C_16
REMARK    6  A    between atoms: C_16  and  C_17
REMARK    7  A    between atoms: C_16  and  C_18
REMARK    8  A    between atoms: N_25  and  C_26
REMARK    9  A    between atoms: C_26  and  C_27
REMARK                            x       y       z     vdW  Elec       q    Type
REMARK                         _______ _______ _______ _____ _____    ______ ____
ROOT
ATOM      1  C   UNL     1       1.674   8.772  19.953  0.00  0.00    +0.000 C 
ATOM      2  C   UNL     1       1.653   9.252  18.510  0.00  0.00    +0.000 C 
ATOM      3  C   UNL     1       1.079  10.655  18.466  0.00  0.00    +0.000 C 
ATOM      4  C   UNL     1      -0.383  10.816  19.053  0.00  0.00    +0.000 C 
ATOM      5  C   UNL     1      -0.456  10.133  20.439  0.00  0.00    +0.000 C 
ATOM      6  C   UNL     1       0.242   8.753  20.503  0.00  0.00    +0.000 C 
ATOM      7  C   UNL     1      -1.209  10.040  17.978  0.00  0.00    +0.000 C 
ATOM      8  C   UNL     1      -2.565  10.628  18.089  0.00  0.00    +0.000 A 
ATOM      9  C   UNL     1      -3.719   9.923  17.727  0.00  0.00    +0.000 A 
ATOM     10  C   UNL     1      -4.922  10.470  18.076  0.00  0.00    +0.000 A 
ATOM     11  C   UNL     1      -4.997  11.690  18.744  0.00  0.00    +0.000 A 
ATOM     12  C   UNL     1      -3.813  12.432  19.033  0.00  0.00    +0.000 A 
ATOM     13  C   UNL     1      -2.556  11.896  18.667  0.00  0.00    +0.000 A 
ATOM     14  C   UNL     1      -1.112  12.320  19.010  0.00  0.00    +0.000 C 
ATOM     15  N   UNL     1      -0.228  12.922  17.950  0.00  0.00    +0.000 NA
ATOM     16  C   UNL     1       0.507  13.683  18.699  0.00  0.00    +0.000 C 
ATOM     17  N   UNL     1       1.741  13.397  19.247  0.00  0.00    +0.000 N 
ATOM     18  N   UNL     1      -0.205  14.524  19.430  0.00  0.00    +0.000 N 
ATOM     19  C   UNL     1      -1.049  13.611  20.030  0.00  0.00    +0.000 C 
ATOM     20  O   UNL     1      -1.514  13.705  21.153  0.00  0.00    +0.000 OA
ATOM     21  H   UNL     1       1.616  12.639  19.912  0.00  0.00    +0.000 HD
ATOM     22  H   UNL     1       2.118  14.090  19.880  0.00  0.00    +0.000 HD
ENDROOT
BRANCH   1  24
ATOM     23  C   UNL     1       2.705   7.077  18.634  0.00  0.00    +0.000 C 
ATOM     24  O   UNL     1       2.284   7.484  19.926  0.00  0.00    +0.000 OA
ENDBRANCH   1  24
BRANCH  11  25
ATOM     25  O   UNL     1      -6.263  11.978  19.172  0.00  0.00    +0.000 OA
BRANCH  25  26
ATOM     26  C   UNL     1      -7.290  12.072  18.196  0.00  0.00    +0.000 C 
BRANCH  26  27
ATOM     27  C   UNL     1      -7.705  13.554  18.072  0.00  0.00    +0.000 C 
ATOM     28  C   UNL     1      -7.537  14.322  19.388  0.00  0.00    +0.000 C 
ATOM     29  C   UNL     1      -6.908  14.235  16.961  0.00  0.00    +0.000 C 
ENDBRANCH  26  27
ENDBRANCH  25  26
ENDBRANCH  11  25
BRANCH  18  30
ATOM     30  C   UNL     1       0.454  15.761  19.894  0.00  0.00    +0.000 C 
BRANCH  30  31
ATOM     31  C   UNL     1       0.724  16.898  18.917  0.00  0.00    +0.000 C 
ATOM     32  F   UNL     1       1.907  16.791  18.283  0.00  0.00    +0.000 F 
ATOM     33  F   UNL     1      -0.257  16.942  17.990  0.00  0.00    +0.000 F 
ATOM     34  F   UNL     1       0.705  18.095  19.556  0.00  0.00    +0.000 F 
ENDBRANCH  30  31
ENDBRANCH  18  30
TORSDOF 6
ENDMDL
MODEL 9
REMARK VINA RESULT:      -6.6      1.056      1.303
REMARK  Name = 
REMARK  9 active torsions:
REMARK  status: ('A' for Active; 'I' for Inactive)
REMARK    1  A    between atoms: C_1  and  O_2
REMARK    2  A    between atoms: O_2  and  C_3
REMARK    3  A    between atoms: C_13  and  O_14
REMARK    4  A    between atoms: O_14  and  C_15
REMARK    5  A    between atoms: C_15  and  C_16
REMARK    6  A    between atoms: C_16  and  C_17
REMARK    7  A    between atoms: C_16  and  C_18
REMARK    8  A    between atoms: N_25  and  C_26
REMARK    9  A    between atoms: C_26  and  C_27
REMARK                            x       y       z     vdW  Elec       q    Type
REMARK                         _______ _______ _______ _____ _____    ______ ____
ROOT
ATOM      1  C   UNL     1       3.047  16.143  19.498  0.00  0.00    +0.000 C 
ATOM      2  C   UNL     1       1.966  15.922  18.452  0.00  0.00    +0.000 C 
ATOM      3  C   UNL     1       0.847  15.103  19.066  0.00  0.00    +0.000 C 
ATOM      4  C   UNL     1       1.267  13.687  19.637  0.00  0.00    +0.000 C 
ATOM      5  C   UNL     1       2.516  13.848  20.535  0.00  0.00    +0.000 C 
ATOM      6  C   UNL     1       3.600  14.786  19.952  0.00  0.00    +0.000 C 
ATOM      7  C   UNL     1       1.599  12.932  18.309  0.00  0.00    +0.000 C 
ATOM      8  C   UNL     1       1.410  11.506  18.663  0.00  0.00    +0.000 A 
ATOM      9  C   UNL     1       2.075  10.472  17.994  0.00  0.00    +0.000 A 
ATOM     10  C   UNL     1       2.002   9.222  18.541  0.00  0.00    +0.000 A 
ATOM     11  C   UNL     1       1.274   8.981  19.704  0.00  0.00    +0.000 A 
ATOM     12  C   UNL     1       0.536  10.031  20.327  0.00  0.00    +0.000 A 
ATOM     13  C   UNL     1       0.582  11.331  19.771  0.00  0.00    +0.000 A 
ATOM     14  C   UNL     1       0.092  12.698  20.296  0.00  0.00    +0.000 C 
ATOM     15  N   UNL     1      -1.094  13.373  19.659  0.00  0.00    +0.000 NA
ATOM     16  C   UNL     1      -1.547  14.015  20.690  0.00  0.00    +0.000 C 
ATOM     17  N   UNL     1      -1.287  15.320  21.057  0.00  0.00    +0.000 N 
ATOM     18  N   UNL     1      -1.793  13.223  21.719  0.00  0.00    +0.000 N 
ATOM     19  C   UNL     1      -0.560  12.608  21.805  0.00  0.00    +0.000 C 
ATOM     20  O   UNL     1      -0.028  12.223  22.832  0.00  0.00    +0.000 OA
ATOM     21  H   UNL     1      -0.299  15.387  21.285  0.00  0.00    +0.000 HD
ATOM     22  H   UNL     1      -1.665  15.615  21.948  0.00  0.00    +0.000 HD
ENDROOT
BRANCH   1  24
ATOM     23  C   UNL     1       5.181  17.188  19.673  0.00  0.00    +0.000 C 
ATOM     24  O   UNL     1       4.027  16.971  18.877  0.00  0.00    +0.000 OA
ENDBRANCH   1  24
BRANCH  11  25
ATOM     25  O   UNL     1       1.473   7.722  20.197  0.00  0.00    +0.000 OA
BRANCH  25  26
ATOM     26  C   UNL     1       2.455   6.910  19.571  0.00  0.00    +0.000 C 
BRANCH  26  27
ATOM     27  C   UNL     1       1.878   5.486  19.415  0.00  0.00    +0.000 C 
ATOM     28  C   UNL     1       2.615   4.670  18.347  0.00  0.00    +0.000 C 
ATOM     29  C   UNL     1       1.913   4.752  20.754  0.00  0.00    +0.000 C 
ENDBRANCH  26  27
ENDBRANCH  25  26
ENDBRANCH  11  25
BRANCH  18  30
ATOM     30  C   UNL     1      -2.775  13.683  22.722  0.00  0.00    +0.000 C 
BRANCH  30  31
ATOM     31  C   UNL     1      -3.567  12.672  23.539  0.00  0.00    +0.000 C 
ATOM     32  F   UNL     1      -2.956  11.477  23.652  0.00  0.00    +0.000 F 
ATOM     33  F   UNL     1      -3.783  13.161  24.779  0.00  0.00    +0.000 F 
ATOM     34  F   UNL     1      -4.790  12.461  22.990  0.00  0.00    +0.000 F 
ENDBRANCH  30  31
ENDBRANCH  18  30
TORSDOF 6
ENDMDL
