MODEL 1
REMARK VINA RESULT:      -7.7      0.000      0.000
REMARK  Name = 
REMARK  5 active torsions:
REMARK  status: ('A' for Active; 'I' for Inactive)
REMARK    1  A    between atoms: C_1  and  O_2
REMARK    2  A    between atoms: O_2  and  C_3
REMARK    3  A    between atoms: C_3  and  C_5
REMARK    4  A    between atoms: N_12  and  O_13
REMARK    5  A    between atoms: N_18  and  C_19
REMARK                            x       y       z     vdW  Elec       q    Type
REMARK                         _______ _______ _______ _____ _____    ______ ____
ROOT
ATOM      1  C   UNL     1       2.981   5.888  18.770  0.00  0.00    +0.000 A 
ATOM      2  C   UNL     1       2.483   5.284  19.943  0.00  0.00    +0.000 A 
ATOM      3  C   UNL     1       1.731   6.029  20.889  0.00  0.00    +0.000 A 
ATOM      4  C   UNL     1       1.482   7.374  20.646  0.00  0.00    +0.000 A 
ATOM      5  C   UNL     1       1.924   7.917  19.439  0.00  0.00    +0.000 A 
ATOM      6  C   UNL     1       2.696   7.228  18.526  0.00  0.00    +0.000 A 
ATOM      7  C   UNL     1       1.365   9.271  19.352  0.00  0.00    +0.000 C 
ATOM      8  N   UNL     1       1.261  10.042  18.319  0.00  0.00    +0.000 NA
ATOM      9  C   UNL     1       0.792   9.547  20.738  0.00  0.00    +0.000 C 
ATOM     10  C   UNL     1       0.482  10.794  21.148  0.00  0.00    +0.000 C 
ATOM     11  C   UNL     1      -0.312  11.080  22.390  0.00  0.00    +0.000 C 
ATOM     12  O   UNL     1      -0.542  10.295  23.294  0.00  0.00    +0.000 OA
ATOM     13  N   UNL     1      -0.718  12.419  22.265  0.00  0.00    +0.000 N 
ATOM     14  C   UNL     1      -1.459  13.119  23.282  0.00  0.00    +0.000 C 
ATOM     15  C   UNL     1      -0.174  13.024  21.101  0.00  0.00    +0.000 A 
ATOM     16  C   UNL     1      -0.300  14.309  20.568  0.00  0.00    +0.000 A 
ATOM     17 BR   UNL     1      -1.404  15.686  21.256  0.00  0.00    +0.000 Br
ATOM     18  C   UNL     1       0.431  14.640  19.415  0.00  0.00    +0.000 A 
ATOM     19  C   UNL     1       1.360  13.749  18.883  0.00  0.00    +0.000 A 
ATOM     20  C   UNL     1       1.524  12.499  19.465  0.00  0.00    +0.000 A 
ATOM     21  C   UNL     1       0.660  12.092  20.472  0.00  0.00    +0.000 A 
ATOM     22  N   UNL     1       0.715   8.295  21.367  0.00  0.00    +0.000 N 
ATOM     23  H   UNL     1       0.589   8.261  22.373  0.00  0.00    +0.000 HD
ENDROOT
BRANCH   1  24
ATOM     24  C   UNL     1       3.778   5.218  17.704  0.00  0.00    +0.000 C 
ATOM     25  O   UNL     1       3.371   4.234  17.099  0.00  0.00    +0.000 OA
BRANCH  24  27
ATOM     26  C   UNL     1       5.962   5.224  18.448  0.00  0.00    +0.000 C 
ATOM     27  O   UNL     1       5.001   5.779  17.540  0.00  0.00    +0.000 OA
ENDBRANCH  24  27
ENDBRANCH   1  24
BRANCH   8  28
ATOM     28  O   UNL     1       1.909   9.572  17.182  0.00  0.00    +0.000 OA
ATOM     29  H   UNL     1       2.486   8.875  17.544  0.00  0.00    +0.000 HD
ENDBRANCH   8  28
TORSDOF 3
ENDMDL
MODEL 2
REMARK VINA RESULT:      -7.6      0.949      1.069
REMARK  Name = 
REMARK  5 active torsions:
REMARK  status: ('A' for Active; 'I' for Inactive)
REMARK    1  A    between atoms: C_1  and  O_2
REMARK    2  A    between atoms: O_2  and  C_3
REMARK    3  A    between atoms: C_3  and  C_5
REMARK    4  A    between atoms: N_12  and  O_13
REMARK    5  A    between atoms: N_18  and  C_19
REMARK                            x       y       z     vdW  Elec       q    Type
REMARK                         _______ _______ _______ _____ _____    ______ ____
ROOT
ATOM      1  C   UNL     1       3.566   6.017  18.284  0.00  0.00    +0.000 A 
ATOM      2  C   UNL     1       3.148   5.226  19.374  0.00  0.00    +0.000 A 
ATOM      3  C   UNL     1       2.291   5.753  20.376  0.00  0.00    +0.000 A 
ATOM      4  C   UNL     1       1.858   7.068  20.272  0.00  0.00    +0.000 A 
ATOM      5  C   UNL     1       2.229   7.795  19.140  0.00  0.00    +0.000 A 
ATOM      6  C   UNL     1       3.098   7.323  18.177  0.00  0.00    +0.000 A 
ATOM      7  C   UNL     1       1.487   9.060  19.184  0.00  0.00    +0.000 C 
ATOM      8  N   UNL     1       1.284   9.916  18.237  0.00  0.00    +0.000 NA
ATOM      9  C   UNL     1       0.869   9.101  20.578  0.00  0.00    +0.000 C 
ATOM     10  C   UNL     1       0.384  10.241  21.111  0.00  0.00    +0.000 C 
ATOM     11  C   UNL     1      -0.452  10.278  22.357  0.00  0.00    +0.000 C 
ATOM     12  O   UNL     1      -0.578   9.376  23.168  0.00  0.00    +0.000 OA
ATOM     13  N   UNL     1      -1.042  11.554  22.366  0.00  0.00    +0.000 N 
ATOM     14  C   UNL     1      -1.882  12.029  23.434  0.00  0.00    +0.000 C 
ATOM     15  C   UNL     1      -0.578  12.351  21.286  0.00  0.00    +0.000 A 
ATOM     16  C   UNL     1      -0.878  13.656  20.890  0.00  0.00    +0.000 A 
ATOM     17 BR   UNL     1      -2.170  14.784  21.694  0.00  0.00    +0.000 Br
ATOM     18  C   UNL     1      -0.191  14.208  19.796  0.00  0.00    +0.000 A 
ATOM     19  C   UNL     1       0.857  13.518  19.194  0.00  0.00    +0.000 A 
ATOM     20  C   UNL     1       1.190  12.247  19.643  0.00  0.00    +0.000 A 
ATOM     21  C   UNL     1       0.384  11.618  20.581  0.00  0.00    +0.000 A 
ATOM     22  N   UNL     1       0.963   7.790  21.068  0.00  0.00    +0.000 N 
ATOM     23  H   UNL     1       0.835   7.630  22.062  0.00  0.00    +0.000 HD
ENDROOT
BRANCH   1  24
ATOM     24  C   UNL     1       4.458   5.583  17.172  0.00  0.00    +0.000 C 
ATOM     25  O   UNL     1       4.846   6.353  16.302  0.00  0.00    +0.000 OA
BRANCH  24  27
ATOM     26  C   UNL     1       5.522   3.846  16.087  0.00  0.00    +0.000 C 
ATOM     27  O   UNL     1       4.723   4.255  17.207  0.00  0.00    +0.000 OA
ENDBRANCH  24  27
ENDBRANCH   1  24
BRANCH   8  28
ATOM     28  O   UNL     1       2.001   9.667  17.072  0.00  0.00    +0.000 OA
ATOM     29  H   UNL     1       1.414   9.054  16.593  0.00  0.00    +0.000 HD
ENDBRANCH   8  28
TORSDOF 3
ENDMDL
MODEL 3
REMARK VINA RESULT:      -7.6      1.039      1.107
REMARK  Name = 
REMARK  5 active torsions:
REMARK  status: ('A' for Active; 'I' for Inactive)
REMARK    1  A    between atoms: C_1  and  O_2
REMARK    2  A    between atoms: O_2  and  C_3
REMARK    3  A    between atoms: C_3  and  C_5
REMARK    4  A    between atoms: N_12  and  O_13
REMARK    5  A    between atoms: N_18  and  C_19
REMARK                            x       y       z     vdW  Elec       q    Type
REMARK                         _______ _______ _______ _____ _____    ______ ____
ROOT
ATOM      1  C   UNL     1       3.734   5.129  18.879  0.00  0.00    +0.000 A 
ATOM      2  C   UNL     1       3.200   4.507  20.027  0.00  0.00    +0.000 A 
ATOM      3  C   UNL     1       2.321   5.204  20.898  0.00  0.00    +0.000 A 
ATOM      4  C   UNL     1       1.981   6.518  20.604  0.00  0.00    +0.000 A 
ATOM      5  C   UNL     1       2.466   7.074  19.420  0.00  0.00    +0.000 A 
ATOM      6  C   UNL     1       3.359   6.435  18.583  0.00  0.00    +0.000 A 
ATOM      7  C   UNL     1       1.806   8.374  19.259  0.00  0.00    +0.000 C 
ATOM      8  N   UNL     1       1.717   9.115  18.203  0.00  0.00    +0.000 NA
ATOM      9  C   UNL     1       1.110   8.627  20.593  0.00  0.00    +0.000 C 
ATOM     10  C   UNL     1       0.669   9.851  20.949  0.00  0.00    +0.000 C 
ATOM     11  C   UNL     1      -0.236  10.092  22.122  0.00  0.00    +0.000 C 
ATOM     12  O   UNL     1      -0.468   9.308  23.026  0.00  0.00    +0.000 OA
ATOM     13  N   UNL     1      -0.740  11.390  21.935  0.00  0.00    +0.000 N 
ATOM     14  C   UNL     1      -1.610  12.044  22.878  0.00  0.00    +0.000 C 
ATOM     15  C   UNL     1      -0.162  12.017  20.800  0.00  0.00    +0.000 A 
ATOM     16  C   UNL     1      -0.353  13.277  20.227  0.00  0.00    +0.000 A 
ATOM     17 BR   UNL     1      -1.614  14.569  20.799  0.00  0.00    +0.000 Br
ATOM     18  C   UNL     1       0.433  13.647  19.123  0.00  0.00    +0.000 A 
ATOM     19  C   UNL     1       1.468  12.827  18.682  0.00  0.00    +0.000 A 
ATOM     20  C   UNL     1       1.691  11.606  19.304  0.00  0.00    +0.000 A 
ATOM     21  C   UNL     1       0.790  11.147  20.256  0.00  0.00    +0.000 A 
ATOM     22  N   UNL     1       1.090   7.384  21.245  0.00  0.00    +0.000 N 
ATOM     23  H   UNL     1       0.892   7.358  22.240  0.00  0.00    +0.000 HD
ENDROOT
BRANCH   1  24
ATOM     24  C   UNL     1       4.660   4.509  17.891  0.00  0.00    +0.000 C 
ATOM     25  O   UNL     1       4.353   4.339  16.718  0.00  0.00    +0.000 OA
BRANCH  24  27
ATOM     26  C   UNL     1       6.956   4.729  17.825  0.00  0.00    +0.000 C 
ATOM     27  O   UNL     1       5.826   4.108  18.453  0.00  0.00    +0.000 OA
ENDBRANCH  24  27
ENDBRANCH   1  24
BRANCH   8  28
ATOM     28  O   UNL     1       2.484   8.681  17.128  0.00  0.00    +0.000 OA
ATOM     29  H   UNL     1       2.478   7.713  17.245  0.00  0.00    +0.000 HD
ENDBRANCH   8  28
TORSDOF 3
ENDMDL
MODEL 4
REMARK VINA RESULT:      -7.3      1.937      3.703
REMARK  Name = 
REMARK  5 active torsions:
REMARK  status: ('A' for Active; 'I' for Inactive)
REMARK    1  A    between atoms: C_1  and  O_2
REMARK    2  A    between atoms: O_2  and  C_3
REMARK    3  A    between atoms: C_3  and  C_5
REMARK    4  A    between atoms: N_12  and  O_13
REMARK    5  A    between atoms: N_18  and  C_19
REMARK                            x       y       z     vdW  Elec       q    Type
REMARK                         _______ _______ _______ _____ _____    ______ ____
ROOT
ATOM      1  C   UNL     1       2.177   7.127  19.442  0.00  0.00    +0.000 A 
ATOM      2  C   UNL     1       2.412   7.594  18.132  0.00  0.00    +0.000 A 
ATOM      3  C   UNL     1       2.048   8.911  17.746  0.00  0.00    +0.000 A 
ATOM      4  C   UNL     1       1.455   9.749  18.681  0.00  0.00    +0.000 A 
ATOM      5  C   UNL     1       1.309   9.279  19.987  0.00  0.00    +0.000 A 
ATOM      6  C   UNL     1       1.610   7.989  20.375  0.00  0.00    +0.000 A 
ATOM      7  C   UNL     1       0.849  10.412  20.798  0.00  0.00    +0.000 C 
ATOM      8  N   UNL     1       0.846  10.542  22.084  0.00  0.00    +0.000 NA
ATOM      9  C   UNL     1       0.488  11.495  19.787  0.00  0.00    +0.000 C 
ATOM     10  C   UNL     1      -0.268  12.561  20.121  0.00  0.00    +0.000 C 
ATOM     11  C   UNL     1      -0.433  13.764  19.238  0.00  0.00    +0.000 C 
ATOM     12  O   UNL     1      -0.150  13.833  18.054  0.00  0.00    +0.000 OA
ATOM     13  N   UNL     1      -0.968  14.761  20.072  0.00  0.00    +0.000 N 
ATOM     14  C   UNL     1      -1.339  16.070  19.602  0.00  0.00    +0.000 C 
ATOM     15  C   UNL     1      -1.237  14.263  21.374  0.00  0.00    +0.000 A 
ATOM     16  C   UNL     1      -1.756  14.871  22.520  0.00  0.00    +0.000 A 
ATOM     17 BR   UNL     1      -2.186  16.707  22.695  0.00  0.00    +0.000 Br
ATOM     18  C   UNL     1      -1.979  14.086  23.663  0.00  0.00    +0.000 A 
ATOM     19  C   UNL     1      -1.805  12.704  23.621  0.00  0.00    +0.000 A 
ATOM     20  C   UNL     1      -1.354  12.104  22.453  0.00  0.00    +0.000 A 
ATOM     21  C   UNL     1      -0.937  12.896  21.392  0.00  0.00    +0.000 A 
ATOM     22  N   UNL     1       1.080  11.092  18.580  0.00  0.00    +0.000 N 
ATOM     23  H   UNL     1       0.776  11.531  17.717  0.00  0.00    +0.000 HD
ENDROOT
BRANCH   1  24
ATOM     24  C   UNL     1       2.512   5.774  19.969  0.00  0.00    +0.000 C 
ATOM     25  O   UNL     1       3.534   5.179  19.651  0.00  0.00    +0.000 OA
BRANCH  24  27
ATOM     26  C   UNL     1       1.021   4.037  20.258  0.00  0.00    +0.000 C 
ATOM     27  O   UNL     1       1.540   5.273  20.769  0.00  0.00    +0.000 OA
ENDBRANCH  24  27
ENDBRANCH   1  24
BRANCH   8  28
ATOM     28  O   UNL     1       1.181   9.386  22.781  0.00  0.00    +0.000 OA
ATOM     29  H   UNL     1       2.142   9.490  22.907  0.00  0.00    +0.000 HD
ENDBRANCH   8  28
TORSDOF 3
ENDMDL
MODEL 5
REMARK VINA RESULT:      -7.2      2.198      4.001
REMARK  Name = 
REMARK  5 active torsions:
REMARK  status: ('A' for Active; 'I' for Inactive)
REMARK    1  A    between atoms: C_1  and  O_2
REMARK    2  A    between atoms: O_2  and  C_3
REMARK    3  A    between atoms: C_3  and  C_5
REMARK    4  A    between atoms: N_12  and  O_13
REMARK    5  A    between atoms: N_18  and  C_19
REMARK                            x       y       z     vdW  Elec       q    Type
REMARK                         _______ _______ _______ _____ _____    ______ ____
ROOT
ATOM      1  C   UNL     1       3.550   3.656  18.196  0.00  0.00    +0.000 A 
ATOM      2  C   UNL     1       4.109   4.261  17.052  0.00  0.00    +0.000 A 
ATOM      3  C   UNL     1       3.971   5.655  16.817  0.00  0.00    +0.000 A 
ATOM      4  C   UNL     1       3.276   6.429  17.737  0.00  0.00    +0.000 A 
ATOM      5  C   UNL     1       2.803   5.809  18.895  0.00  0.00    +0.000 A 
ATOM      6  C   UNL     1       2.883   4.450  19.123  0.00  0.00    +0.000 A 
ATOM      7  C   UNL     1       2.295   6.872  19.769  0.00  0.00    +0.000 C 
ATOM      8  N   UNL     1       2.025   6.825  21.032  0.00  0.00    +0.000 NA
ATOM      9  C   UNL     1       2.271   8.121  18.892  0.00  0.00    +0.000 C 
ATOM     10  C   UNL     1       1.571   9.222  19.235  0.00  0.00    +0.000 C 
ATOM     11  C   UNL     1       1.723  10.544  18.541  0.00  0.00    +0.000 C 
ATOM     12  O   UNL     1       2.262  10.735  17.465  0.00  0.00    +0.000 OA
ATOM     13  N   UNL     1       1.123  11.480  19.401  0.00  0.00    +0.000 N 
ATOM     14  C   UNL     1       0.995  12.878  19.082  0.00  0.00    +0.000 C 
ATOM     15  C   UNL     1       0.528  10.850  20.526  0.00  0.00    +0.000 A 
ATOM     16  C   UNL     1      -0.163  11.360  21.627  0.00  0.00    +0.000 A 
ATOM     17 BR   UNL     1      -0.436  13.195  22.005  0.00  0.00    +0.000 Br
ATOM     18  C   UNL     1      -0.707  10.463  22.562  0.00  0.00    +0.000 A 
ATOM     19  C   UNL     1      -0.667   9.089  22.335  0.00  0.00    +0.000 A 
ATOM     20  C   UNL     1      -0.035   8.599  21.199  0.00  0.00    +0.000 A 
ATOM     21  C   UNL     1       0.679   9.465  20.384  0.00  0.00    +0.000 A 
ATOM     22  N   UNL     1       3.068   7.811  17.780  0.00  0.00    +0.000 N 
ATOM     23  H   UNL     1       3.004   8.399  16.955  0.00  0.00    +0.000 HD
ENDROOT
BRANCH   1  24
ATOM     24  C   UNL     1       3.626   2.212  18.556  0.00  0.00    +0.000 C 
ATOM     25  O   UNL     1       3.695   1.327  17.713  0.00  0.00    +0.000 OA
BRANCH  24  27
ATOM     26  C   UNL     1       4.835   1.768  20.471  0.00  0.00    +0.000 C 
ATOM     27  O   UNL     1       3.543   2.005  19.893  0.00  0.00    +0.000 OA
ENDBRANCH  24  27
ENDBRANCH   1  24
BRANCH   8  28
ATOM     28  O   UNL     1       2.083   5.552  21.587  0.00  0.00    +0.000 OA
ATOM     29  H   UNL     1       1.167   5.415  21.891  0.00  0.00    +0.000 HD
ENDBRANCH   8  28
TORSDOF 3
ENDMDL
MODEL 6
REMARK VINA RESULT:      -6.9      3.454      8.371
REMARK  Name = 
REMARK  5 active torsions:
REMARK  status: ('A' for Active; 'I' for Inactive)
REMARK    1  A    between atoms: C_1  and  O_2
REMARK    2  A    between atoms: O_2  and  C_3
REMARK    3  A    between atoms: C_3  and  C_5
REMARK    4  A    between atoms: N_12  and  O_13
REMARK    5  A    between atoms: N_18  and  C_19
REMARK                            x       y       z     vdW  Elec       q    Type
REMARK                         _______ _______ _______ _____ _____    ______ ____
ROOT
ATOM      1  C   UNL     1       0.304  11.944  20.773  0.00  0.00    +0.000 A 
ATOM      2  C   UNL     1       0.899  12.469  19.608  0.00  0.00    +0.000 A 
ATOM      3  C   UNL     1       1.604  11.631  18.703  0.00  0.00    +0.000 A 
ATOM      4  C   UNL     1       1.700  10.272  18.976  0.00  0.00    +0.000 A 
ATOM      5  C   UNL     1       1.032   9.778  20.097  0.00  0.00    +0.000 A 
ATOM      6  C   UNL     1       0.382  10.577  21.016  0.00  0.00    +0.000 A 
ATOM      7  C   UNL     1       1.129   8.315  20.039  0.00  0.00    +0.000 C 
ATOM      8  N   UNL     1       0.443   7.429  20.684  0.00  0.00    +0.000 NA
ATOM      9  C   UNL     1       2.142   8.034  18.933  0.00  0.00    +0.000 C 
ATOM     10  C   UNL     1       2.736   6.831  18.797  0.00  0.00    +0.000 C 
ATOM     11  C   UNL     1       3.533   6.438  17.587  0.00  0.00    +0.000 C 
ATOM     12  O   UNL     1       3.962   7.192  16.731  0.00  0.00    +0.000 OA
ATOM     13  N   UNL     1       3.659   5.040  17.669  0.00  0.00    +0.000 N 
ATOM     14  C   UNL     1       4.415   4.258  16.726  0.00  0.00    +0.000 C 
ATOM     15  C   UNL     1       3.092   4.534  18.868  0.00  0.00    +0.000 A 
ATOM     16  C   UNL     1       2.976   3.238  19.375  0.00  0.00    +0.000 A 
ATOM     17 BR   UNL     1       3.503   1.653  18.480  0.00  0.00    +0.000 Br
ATOM     18  C   UNL     1       2.416   3.054  20.650  0.00  0.00    +0.000 A 
ATOM     19  C   UNL     1       2.094   4.149  21.448  0.00  0.00    +0.000 A 
ATOM     20  C   UNL     1       2.278   5.435  20.957  0.00  0.00    +0.000 A 
ATOM     21  C   UNL     1       2.635   5.617  19.629  0.00  0.00    +0.000 A 
ATOM     22  N   UNL     1       2.260   9.237  18.221  0.00  0.00    +0.000 N 
ATOM     23  H   UNL     1       3.049   9.358  17.594  0.00  0.00    +0.000 HD
ENDROOT
BRANCH   1  24
ATOM     24  C   UNL     1      -0.460  12.714  21.795  0.00  0.00    +0.000 C 
ATOM     25  O   UNL     1      -0.822  13.869  21.613  0.00  0.00    +0.000 OA
BRANCH  24  27
ATOM     26  C   UNL     1      -2.030  11.886  23.270  0.00  0.00    +0.000 C 
ATOM     27  O   UNL     1      -0.640  12.016  22.944  0.00  0.00    +0.000 OA
ENDBRANCH  24  27
ENDBRANCH   1  24
BRANCH   8  28
ATOM     28  O   UNL     1      -0.384   7.949  21.673  0.00  0.00    +0.000 OA
ATOM     29  H   UNL     1       0.238   8.097  22.409  0.00  0.00    +0.000 HD
ENDBRANCH   8  28
TORSDOF 3
ENDMDL
MODEL 7
REMARK VINA RESULT:      -6.6      3.326      5.479
REMARK  Name = 
REMARK  5 active torsions:
REMARK  status: ('A' for Active; 'I' for Inactive)
REMARK    1  A    between atoms: C_1  and  O_2
REMARK    2  A    between atoms: O_2  and  C_3
REMARK    3  A    between atoms: C_3  and  C_5
REMARK    4  A    between atoms: N_12  and  O_13
REMARK    5  A    between atoms: N_18  and  C_19
REMARK                            x       y       z     vdW  Elec       q    Type
REMARK                         _______ _______ _______ _____ _____    ______ ____
ROOT
ATOM      1  C   UNL     1       0.142  10.036  18.552  0.00  0.00    +0.000 A 
ATOM      2  C   UNL     1      -0.951   9.961  17.664  0.00  0.00    +0.000 A 
ATOM      3  C   UNL     1      -2.128  10.724  17.882  0.00  0.00    +0.000 A 
ATOM      4  C   UNL     1      -2.194  11.562  18.989  0.00  0.00    +0.000 A 
ATOM      5  C   UNL     1      -1.065  11.669  19.801  0.00  0.00    +0.000 A 
ATOM      6  C   UNL     1       0.072  10.903  19.638  0.00  0.00    +0.000 A 
ATOM      7  C   UNL     1      -1.331  12.747  20.759  0.00  0.00    +0.000 C 
ATOM      8  N   UNL     1      -0.498  13.392  21.509  0.00  0.00    +0.000 NA
ATOM      9  C   UNL     1      -2.815  13.059  20.594  0.00  0.00    +0.000 C 
ATOM     10  C   UNL     1      -3.504  13.764  21.515  0.00  0.00    +0.000 C 
ATOM     11  C   UNL     1      -4.883  14.305  21.276  0.00  0.00    +0.000 C 
ATOM     12  O   UNL     1      -5.640  13.978  20.378  0.00  0.00    +0.000 OA
ATOM     13  N   UNL     1      -5.087  15.253  22.294  0.00  0.00    +0.000 N 
ATOM     14  C   UNL     1      -6.322  15.972  22.469  0.00  0.00    +0.000 C 
ATOM     15  C   UNL     1      -3.996  15.286  23.202  0.00  0.00    +0.000 A 
ATOM     16  C   UNL     1      -3.751  16.054  24.343  0.00  0.00    +0.000 A 
ATOM     17 BR   UNL     1      -4.855  17.450  24.991  0.00  0.00    +0.000 Br
ATOM     18  C   UNL     1      -2.588  15.806  25.091  0.00  0.00    +0.000 A 
ATOM     19  C   UNL     1      -1.757  14.733  24.777  0.00  0.00    +0.000 A 
ATOM     20  C   UNL     1      -2.050  13.936  23.679  0.00  0.00    +0.000 A 
ATOM     21  C   UNL     1      -3.077  14.301  22.820  0.00  0.00    +0.000 A 
ATOM     22  N   UNL     1      -3.189  12.462  19.381  0.00  0.00    +0.000 N 
ATOM     23  H   UNL     1      -4.177  12.335  19.184  0.00  0.00    +0.000 HD
ENDROOT
BRANCH   1  24
ATOM     24  C   UNL     1       1.427   9.291  18.433  0.00  0.00    +0.000 C 
ATOM     25  O   UNL     1       2.080   9.268  17.398  0.00  0.00    +0.000 OA
BRANCH  24  27
ATOM     26  C   UNL     1       2.302   7.325  19.264  0.00  0.00    +0.000 C 
ATOM     27  O   UNL     1       1.738   8.609  19.562  0.00  0.00    +0.000 OA
ENDBRANCH  24  27
ENDBRANCH   1  24
BRANCH   8  28
ATOM     28  O   UNL     1       0.794  12.878  21.509  0.00  0.00    +0.000 OA
ATOM     29  H   UNL     1       0.670  12.001  21.917  0.00  0.00    +0.000 HD
ENDBRANCH   8  28
TORSDOF 3
ENDMDL
