MODEL 1
REMARK VINA RESULT:      -8.1      0.000      0.000
REMARK  Name = 
REMARK  10 active torsions:
REMARK  status: ('A' for Active; 'I' for Inactive)
REMARK    1  A    between atoms: C_1  and  C_2
REMARK    2  A    between atoms: C_5  and  C_6
REMARK    3  A    between atoms: C_6  and  N_7
REMARK    4  A    between atoms: C_8  and  C_9
REMARK    5  A    between atoms: C_9  and  C_10
REMARK    6  A    between atoms: C_17  and  C_18
REMARK    7  A    between atoms: C_18  and  C_19
REMARK    8  A    between atoms: C_19  and  O_20
REMARK    9  A    between atoms: C_21  and  C_22
REMARK   10  A    between atoms: C_23  and  N_24
REMARK                            x       y       z     vdW  Elec       q    Type
REMARK                         _______ _______ _______ _____ _____    ______ ____
ROOT
ATOM      1  N   UNL     1       4.124   4.740  18.501  0.00  0.00    +0.000 N 
ATOM      2  C   UNL     1       3.127   5.616  18.337  0.00  0.00    +0.000 A 
ATOM      3  S   UNL     1       1.608   4.874  18.644  0.00  0.00    +0.000 S 
ATOM      4  C   UNL     1       2.348   3.491  19.326  0.00  0.00    +0.000 A 
ATOM      5  C   UNL     1       3.717   3.549  19.130  0.00  0.00    +0.000 A 
ATOM      6  C   UNL     1       4.728   2.551  19.579  0.00  0.00    +0.000 C 
ENDROOT
BRANCH   1   7
ATOM      7  C   UNL     1       5.568   5.031  18.237  0.00  0.00    +0.000 C 
BRANCH   7  12
ATOM      8  C   UNL     1       7.396   4.714  12.779  0.00  0.00    +0.000 C 
ATOM      9  C   UNL     1       6.911   4.736  14.196  0.00  0.00    +0.000 A 
ATOM     10  C   UNL     1       6.008   3.789  14.642  0.00  0.00    +0.000 A 
ATOM     11  C   UNL     1       5.655   3.788  15.986  0.00  0.00    +0.000 A 
ATOM     12  C   UNL     1       6.066   4.828  16.825  0.00  0.00    +0.000 A 
ATOM     13  C   UNL     1       7.016   5.701  16.303  0.00  0.00    +0.000 A 
ATOM     14  N   UNL     1       7.447   5.659  15.029  0.00  0.00    +0.000 NA
BRANCH  13  15
ATOM     15  N   UNL     1       7.631   6.681  17.089  0.00  0.00    +0.000 N 
ATOM     16  H   UNL     1       7.128   7.557  17.121  0.00  0.00    +0.000 HD
ATOM     17  H   UNL     1       8.533   6.857  16.636  0.00  0.00    +0.000 HD
ENDBRANCH  13  15
ENDBRANCH   7  12
ENDBRANCH   1   7
BRANCH   2  18
ATOM     18  C   UNL     1       3.178   7.035  17.841  0.00  0.00    +0.000 C 
BRANCH  18  19
ATOM     19  C   UNL     1       2.229   7.993  18.497  0.00  0.00    +0.000 A 
ATOM     20  C   UNL     1       1.629   9.027  17.774  0.00  0.00    +0.000 A 
ATOM     21  C   UNL     1       0.838   9.957  18.436  0.00  0.00    +0.000 A 
ATOM     22  C   UNL     1       0.664   9.814  19.802  0.00  0.00    +0.000 A 
ATOM     23  N   UNL     1       1.213   8.811  20.526  0.00  0.00    +0.000 NA
ATOM     24  C   UNL     1       1.982   7.928  19.865  0.00  0.00    +0.000 A 
ENDBRANCH  18  19
ENDBRANCH   2  18
BRANCH   4  25
ATOM     25  C   UNL     1       1.491   2.474  20.040  0.00  0.00    +0.000 C 
BRANCH  25  26
ATOM     26  C   UNL     1       1.277   2.784  21.519  0.00  0.00    +0.000 C 
BRANCH  26  27
ATOM     27  O   UNL     1       2.498   2.681  22.237  0.00  0.00    +0.000 OA
ATOM     28  H   UNL     1       2.444   1.890  22.807  0.00  0.00    +0.000 HD
ENDBRANCH  26  27
ENDBRANCH  25  26
ENDBRANCH   4  25
TORSDOF 8
ENDMDL
MODEL 2
REMARK VINA RESULT:      -7.2      2.738      6.522
REMARK  Name = 
REMARK  10 active torsions:
REMARK  status: ('A' for Active; 'I' for Inactive)
REMARK    1  A    between atoms: C_1  and  C_2
REMARK    2  A    between atoms: C_5  and  C_6
REMARK    3  A    between atoms: C_6  and  N_7
REMARK    4  A    between atoms: C_8  and  C_9
REMARK    5  A    between atoms: C_9  and  C_10
REMARK    6  A    between atoms: C_17  and  C_18
REMARK    7  A    between atoms: C_18  and  C_19
REMARK    8  A    between atoms: C_19  and  O_20
REMARK    9  A    between atoms: C_21  and  C_22
REMARK   10  A    between atoms: C_23  and  N_24
REMARK                            x       y       z     vdW  Elec       q    Type
REMARK                         _______ _______ _______ _____ _____    ______ ____
ROOT
ATOM      1  N   UNL     1       4.414   5.379  17.920  0.00  0.00    +0.000 N 
ATOM      2  C   UNL     1       3.782   4.369  17.314  0.00  0.00    +0.000 A 
ATOM      3  S   UNL     1       4.621   3.886  15.895  0.00  0.00    +0.000 S 
ATOM      4  C   UNL     1       5.996   4.813  16.315  0.00  0.00    +0.000 A 
ATOM      5  C   UNL     1       5.708   5.603  17.415  0.00  0.00    +0.000 A 
ATOM      6  C   UNL     1       6.632   6.547  18.103  0.00  0.00    +0.000 C 
ENDROOT
BRANCH   1   7
ATOM      7  C   UNL     1       3.915   6.094  19.135  0.00  0.00    +0.000 C 
BRANCH   7  12
ATOM      8  C   UNL     1       0.039  10.297  18.399  0.00  0.00    +0.000 C 
ATOM      9  C   UNL     1       1.086   9.237  18.557  0.00  0.00    +0.000 A 
ATOM     10  C   UNL     1       2.060   9.066  17.591  0.00  0.00    +0.000 A 
ATOM     11  C   UNL     1       3.066   8.135  17.819  0.00  0.00    +0.000 A 
ATOM     12  C   UNL     1       2.993   7.270  18.915  0.00  0.00    +0.000 A 
ATOM     13  C   UNL     1       2.011   7.555  19.860  0.00  0.00    +0.000 A 
ATOM     14  N   UNL     1       1.085   8.519  19.704  0.00  0.00    +0.000 NA
BRANCH  13  15
ATOM     15  N   UNL     1       1.936   6.872  21.078  0.00  0.00    +0.000 N 
ATOM     16  H   UNL     1       1.149   6.241  21.148  0.00  0.00    +0.000 HD
ATOM     17  H   UNL     1       1.811   7.604  21.785  0.00  0.00    +0.000 HD
ENDBRANCH  13  15
ENDBRANCH   7  12
ENDBRANCH   1   7
BRANCH   2  18
ATOM     18  C   UNL     1       2.459   3.736  17.651  0.00  0.00    +0.000 C 
BRANCH  18  19
ATOM     19  C   UNL     1       2.303   3.259  19.065  0.00  0.00    +0.000 A 
ATOM     20  C   UNL     1       1.120   3.475  19.775  0.00  0.00    +0.000 A 
ATOM     21  C   UNL     1       1.047   3.112  21.114  0.00  0.00    +0.000 A 
ATOM     22  C   UNL     1       2.162   2.535  21.696  0.00  0.00    +0.000 A 
ATOM     23  N   UNL     1       3.315   2.292  21.030  0.00  0.00    +0.000 NA
ATOM     24  C   UNL     1       3.363   2.659  19.738  0.00  0.00    +0.000 A 
ENDBRANCH  18  19
ENDBRANCH   2  18
BRANCH   4  25
ATOM     25  C   UNL     1       7.270   4.640  15.524  0.00  0.00    +0.000 C 
BRANCH  25  26
ATOM     26  C   UNL     1       7.113   4.943  14.037  0.00  0.00    +0.000 C 
BRANCH  26  27
ATOM     27  O   UNL     1       8.204   5.718  13.563  0.00  0.00    +0.000 OA
ATOM     28  H   UNL     1       8.080   6.634  13.877  0.00  0.00    +0.000 HD
ENDBRANCH  26  27
ENDBRANCH  25  26
ENDBRANCH   4  25
TORSDOF 8
ENDMDL
MODEL 3
REMARK VINA RESULT:      -7.1      1.032      1.099
REMARK  Name = 
REMARK  10 active torsions:
REMARK  status: ('A' for Active; 'I' for Inactive)
REMARK    1  A    between atoms: C_1  and  C_2
REMARK    2  A    between atoms: C_5  and  C_6
REMARK    3  A    between atoms: C_6  and  N_7
REMARK    4  A    between atoms: C_8  and  C_9
REMARK    5  A    between atoms: C_9  and  C_10
REMARK    6  A    between atoms: C_17  and  C_18
REMARK    7  A    between atoms: C_18  and  C_19
REMARK    8  A    between atoms: C_19  and  O_20
REMARK    9  A    between atoms: C_21  and  C_22
REMARK   10  A    between atoms: C_23  and  N_24
REMARK                            x       y       z     vdW  Elec       q    Type
REMARK                         _______ _______ _______ _____ _____    ______ ____
ROOT
ATOM      1  N   UNL     1       3.969   5.405  18.539  0.00  0.00    +0.000 N 
ATOM      2  C   UNL     1       2.917   6.227  18.463  0.00  0.00    +0.000 A 
ATOM      3  S   UNL     1       1.471   5.408  18.897  0.00  0.00    +0.000 S 
ATOM      4  C   UNL     1       2.337   4.067  19.510  0.00  0.00    +0.000 A 
ATOM      5  C   UNL     1       3.679   4.196  19.198  0.00  0.00    +0.000 A 
ATOM      6  C   UNL     1       4.775   3.252  19.557  0.00  0.00    +0.000 C 
ENDROOT
BRANCH   1   7
ATOM      7  C   UNL     1       5.368   5.769  18.153  0.00  0.00    +0.000 C 
BRANCH   7  12
ATOM      8  C   UNL     1       7.252   4.448  12.868  0.00  0.00    +0.000 C 
ATOM      9  C   UNL     1       6.740   4.735  14.247  0.00  0.00    +0.000 A 
ATOM     10  C   UNL     1       5.647   4.050  14.744  0.00  0.00    +0.000 A 
ATOM     11  C   UNL     1       5.262   4.278  16.059  0.00  0.00    +0.000 A 
ATOM     12  C   UNL     1       5.854   5.304  16.801  0.00  0.00    +0.000 A 
ATOM     13  C   UNL     1       6.981   5.899  16.239  0.00  0.00    +0.000 A 
ATOM     14  N   UNL     1       7.431   5.620  15.001  0.00  0.00    +0.000 NA
BRANCH  13  15
ATOM     15  N   UNL     1       7.762   6.819  16.945  0.00  0.00    +0.000 N 
ATOM     16  H   UNL     1       8.748   6.596  16.959  0.00  0.00    +0.000 HD
ATOM     17  H   UNL     1       7.419   6.772  17.911  0.00  0.00    +0.000 HD
ENDBRANCH  13  15
ENDBRANCH   7  12
ENDBRANCH   1   7
BRANCH   2  18
ATOM     18  C   UNL     1       2.853   7.646  17.967  0.00  0.00    +0.000 C 
BRANCH  18  19
ATOM     19  C   UNL     1       1.828   8.523  18.623  0.00  0.00    +0.000 A 
ATOM     20  C   UNL     1       1.065   9.426  17.879  0.00  0.00    +0.000 A 
ATOM     21  C   UNL     1       0.200  10.294  18.533  0.00  0.00    +0.000 A 
ATOM     22  C   UNL     1       0.119  10.222  19.912  0.00  0.00    +0.000 A 
ATOM     23  N   UNL     1       0.828   9.342  20.659  0.00  0.00    +0.000 NA
ATOM     24  C   UNL     1       1.664   8.518  20.005  0.00  0.00    +0.000 A 
ENDBRANCH  18  19
ENDBRANCH   2  18
BRANCH   4  25
ATOM     25  C   UNL     1       1.598   3.009  20.293  0.00  0.00    +0.000 C 
BRANCH  25  26
ATOM     26  C   UNL     1       0.800   2.046  19.418  0.00  0.00    +0.000 C 
BRANCH  26  27
ATOM     27  O   UNL     1       1.613   1.517  18.380  0.00  0.00    +0.000 OA
ATOM     28  H   UNL     1       1.872   0.611  18.636  0.00  0.00    +0.000 HD
ENDBRANCH  26  27
ENDBRANCH  25  26
ENDBRANCH   4  25
TORSDOF 8
ENDMDL
MODEL 4
REMARK VINA RESULT:      -7.0      1.391      1.658
REMARK  Name = 
REMARK  10 active torsions:
REMARK  status: ('A' for Active; 'I' for Inactive)
REMARK    1  A    between atoms: C_1  and  C_2
REMARK    2  A    between atoms: C_5  and  C_6
REMARK    3  A    between atoms: C_6  and  N_7
REMARK    4  A    between atoms: C_8  and  C_9
REMARK    5  A    between atoms: C_9  and  C_10
REMARK    6  A    between atoms: C_17  and  C_18
REMARK    7  A    between atoms: C_18  and  C_19
REMARK    8  A    between atoms: C_19  and  O_20
REMARK    9  A    between atoms: C_21  and  C_22
REMARK   10  A    between atoms: C_23  and  N_24
REMARK                            x       y       z     vdW  Elec       q    Type
REMARK                         _______ _______ _______ _____ _____    ______ ____
ROOT
ATOM      1  N   UNL     1       3.969   5.308  18.757  0.00  0.00    +0.000 N 
ATOM      2  C   UNL     1       2.981   6.206  18.683  0.00  0.00    +0.000 A 
ATOM      3  S   UNL     1       1.463   5.474  19.016  0.00  0.00    +0.000 S 
ATOM      4  C   UNL     1       2.207   4.045  19.591  0.00  0.00    +0.000 A 
ATOM      5  C   UNL     1       3.567   4.092  19.339  0.00  0.00    +0.000 A 
ATOM      6  C   UNL     1       4.577   3.055  19.690  0.00  0.00    +0.000 C 
ENDROOT
BRANCH   1   7
ATOM      7  C   UNL     1       5.404   5.589  18.445  0.00  0.00    +0.000 C 
BRANCH   7  12
ATOM      8  C   UNL     1       7.584   4.789  13.169  0.00  0.00    +0.000 C 
ATOM      9  C   UNL     1       6.962   4.989  14.517  0.00  0.00    +0.000 A 
ATOM     10  C   UNL     1       5.672   5.474  14.628  0.00  0.00    +0.000 A 
ATOM     11  C   UNL     1       5.099   5.556  15.891  0.00  0.00    +0.000 A 
ATOM     12  C   UNL     1       5.870   5.323  17.033  0.00  0.00    +0.000 A 
ATOM     13  C   UNL     1       7.137   4.786  16.822  0.00  0.00    +0.000 A 
ATOM     14  N   UNL     1       7.675   4.605  15.602  0.00  0.00    +0.000 NA
BRANCH  13  15
ATOM     15  N   UNL     1       7.944   4.354  17.879  0.00  0.00    +0.000 N 
ATOM     16  H   UNL     1       8.150   5.073  18.560  0.00  0.00    +0.000 HD
ATOM     17  H   UNL     1       8.829   4.078  17.442  0.00  0.00    +0.000 HD
ENDBRANCH  13  15
ENDBRANCH   7  12
ENDBRANCH   1   7
BRANCH   2  18
ATOM     18  C   UNL     1       3.037   7.649  18.260  0.00  0.00    +0.000 C 
BRANCH  18  19
ATOM     19  C   UNL     1       1.946   8.530  18.791  0.00  0.00    +0.000 A 
ATOM     20  C   UNL     1       1.635   8.556  20.153  0.00  0.00    +0.000 A 
ATOM     21  C   UNL     1       0.552   9.304  20.595  0.00  0.00    +0.000 A 
ATOM     22  C   UNL     1      -0.180  10.013  19.658  0.00  0.00    +0.000 A 
ATOM     23  N   UNL     1       0.110  10.027  18.335  0.00  0.00    +0.000 NA
ATOM     24  C   UNL     1       1.158   9.288  17.931  0.00  0.00    +0.000 A 
ENDBRANCH  18  19
ENDBRANCH   2  18
BRANCH   4  25
ATOM     25  C   UNL     1       1.363   3.005  20.287  0.00  0.00    +0.000 C 
BRANCH  25  26
ATOM     26  C   UNL     1       0.584   2.108  19.330  0.00  0.00    +0.000 C 
BRANCH  26  27
ATOM     27  O   UNL     1       1.454   1.503  18.385  0.00  0.00    +0.000 OA
ATOM     28  H   UNL     1       2.126   2.165  18.131  0.00  0.00    +0.000 HD
ENDBRANCH  26  27
ENDBRANCH  25  26
ENDBRANCH   4  25
TORSDOF 8
ENDMDL
MODEL 5
REMARK VINA RESULT:      -6.8      1.063      1.369
REMARK  Name = 
REMARK  10 active torsions:
REMARK  status: ('A' for Active; 'I' for Inactive)
REMARK    1  A    between atoms: C_1  and  C_2
REMARK    2  A    between atoms: C_5  and  C_6
REMARK    3  A    between atoms: C_6  and  N_7
REMARK    4  A    between atoms: C_8  and  C_9
REMARK    5  A    between atoms: C_9  and  C_10
REMARK    6  A    between atoms: C_17  and  C_18
REMARK    7  A    between atoms: C_18  and  C_19
REMARK    8  A    between atoms: C_19  and  O_20
REMARK    9  A    between atoms: C_21  and  C_22
REMARK   10  A    between atoms: C_23  and  N_24
REMARK                            x       y       z     vdW  Elec       q    Type
REMARK                         _______ _______ _______ _____ _____    ______ ____
ROOT
ATOM      1  N   UNL     1       3.980   5.575  18.376  0.00  0.00    +0.000 N 
ATOM      2  C   UNL     1       2.743   6.062  18.517  0.00  0.00    +0.000 A 
ATOM      3  S   UNL     1       1.718   4.915  19.280  0.00  0.00    +0.000 S 
ATOM      4  C   UNL     1       3.043   3.924  19.715  0.00  0.00    +0.000 A 
ATOM      5  C   UNL     1       4.196   4.393  19.110  0.00  0.00    +0.000 A 
ATOM      6  C   UNL     1       5.567   3.826  19.237  0.00  0.00    +0.000 C 
ENDROOT
BRANCH   1   7
ATOM      7  C   UNL     1       5.102   6.279  17.680  0.00  0.00    +0.000 C 
BRANCH   7  12
ATOM      8  C   UNL     1       7.300   4.272  12.743  0.00  0.00    +0.000 C 
ATOM      9  C   UNL     1       6.696   4.742  14.031  0.00  0.00    +0.000 A 
ATOM     10  C   UNL     1       5.444   4.301  14.420  0.00  0.00    +0.000 A 
ATOM     11  C   UNL     1       4.961   4.687  15.664  0.00  0.00    +0.000 A 
ATOM     12  C   UNL     1       5.645   5.640  16.424  0.00  0.00    +0.000 A 
ATOM     13  C   UNL     1       6.920   5.982  15.979  0.00  0.00    +0.000 A 
ATOM     14  N   UNL     1       7.449   5.541  14.823  0.00  0.00    +0.000 NA
BRANCH  13  15
ATOM     15  N   UNL     1       7.772   6.795  16.733  0.00  0.00    +0.000 N 
ATOM     16  H   UNL     1       8.736   6.772  16.430  0.00  0.00    +0.000 HD
ATOM     17  H   UNL     1       7.737   6.408  17.682  0.00  0.00    +0.000 HD
ENDBRANCH  13  15
ENDBRANCH   7  12
ENDBRANCH   1   7
BRANCH   2  18
ATOM     18  C   UNL     1       2.170   7.360  18.016  0.00  0.00    +0.000 C 
BRANCH  18  19
ATOM     19  C   UNL     1       1.743   8.338  19.070  0.00  0.00    +0.000 A 
ATOM     20  C   UNL     1       1.697   7.974  20.418  0.00  0.00    +0.000 A 
ATOM     21  C   UNL     1       1.199   8.872  21.354  0.00  0.00    +0.000 A 
ATOM     22  C   UNL     1       0.774  10.112  20.909  0.00  0.00    +0.000 A 
ATOM     23  N   UNL     1       0.827  10.502  19.614  0.00  0.00    +0.000 NA
ATOM     24  C   UNL     1       1.305   9.612  18.726  0.00  0.00    +0.000 A 
ENDBRANCH  18  19
ENDBRANCH   2  18
BRANCH   4  25
ATOM     25  C   UNL     1       2.820   2.773  20.666  0.00  0.00    +0.000 C 
BRANCH  25  26
ATOM     26  C   UNL     1       2.139   3.179  21.969  0.00  0.00    +0.000 C 
BRANCH  26  27
ATOM     27  O   UNL     1       0.946   2.435  22.167  0.00  0.00    +0.000 OA
ATOM     28  H   UNL     1       0.214   2.924  21.745  0.00  0.00    +0.000 HD
ENDBRANCH  26  27
ENDBRANCH  25  26
ENDBRANCH   4  25
TORSDOF 8
ENDMDL
MODEL 6
REMARK VINA RESULT:      -6.7      1.551      2.491
REMARK  Name = 
REMARK  10 active torsions:
REMARK  status: ('A' for Active; 'I' for Inactive)
REMARK    1  A    between atoms: C_1  and  C_2
REMARK    2  A    between atoms: C_5  and  C_6
REMARK    3  A    between atoms: C_6  and  N_7
REMARK    4  A    between atoms: C_8  and  C_9
REMARK    5  A    between atoms: C_9  and  C_10
REMARK    6  A    between atoms: C_17  and  C_18
REMARK    7  A    between atoms: C_18  and  C_19
REMARK    8  A    between atoms: C_19  and  O_20
REMARK    9  A    between atoms: C_21  and  C_22
REMARK   10  A    between atoms: C_23  and  N_24
REMARK                            x       y       z     vdW  Elec       q    Type
REMARK                         _______ _______ _______ _____ _____    ______ ____
ROOT
ATOM      1  N   UNL     1       3.635   4.212  17.789  0.00  0.00    +0.000 N 
ATOM      2  C   UNL     1       2.798   5.224  18.039  0.00  0.00    +0.000 A 
ATOM      3  S   UNL     1       1.381   4.663  18.831  0.00  0.00    +0.000 S 
ATOM      4  C   UNL     1       2.078   3.129  19.130  0.00  0.00    +0.000 A 
ATOM      5  C   UNL     1       3.284   3.026  18.460  0.00  0.00    +0.000 A 
ATOM      6  C   UNL     1       4.212   1.860  18.465  0.00  0.00    +0.000 C 
ENDROOT
BRANCH   1   7
ATOM      7  C   UNL     1       4.924   4.334  17.040  0.00  0.00    +0.000 C 
BRANCH   7  12
ATOM      8  C   UNL     1       8.696   8.538  18.191  0.00  0.00    +0.000 C 
ATOM      9  C   UNL     1       7.707   7.439  17.951  0.00  0.00    +0.000 A 
ATOM     10  C   UNL     1       7.517   6.450  18.899  0.00  0.00    +0.000 A 
ATOM     11  C   UNL     1       6.525   5.502  18.681  0.00  0.00    +0.000 A 
ATOM     12  C   UNL     1       5.860   5.446  17.452  0.00  0.00    +0.000 A 
ATOM     13  C   UNL     1       6.077   6.513  16.585  0.00  0.00    +0.000 A 
ATOM     14  N   UNL     1       6.963   7.498  16.822  0.00  0.00    +0.000 NA
BRANCH  13  15
ATOM     15  N   UNL     1       5.350   6.663  15.400  0.00  0.00    +0.000 N 
ATOM     16  H   UNL     1       5.444   7.574  14.972  0.00  0.00    +0.000 HD
ATOM     17  H   UNL     1       4.368   6.548  15.674  0.00  0.00    +0.000 HD
ENDBRANCH  13  15
ENDBRANCH   7  12
ENDBRANCH   1   7
BRANCH   2  18
ATOM     18  C   UNL     1       2.903   6.668  17.631  0.00  0.00    +0.000 C 
BRANCH  18  19
ATOM     19  C   UNL     1       2.261   7.659  18.556  0.00  0.00    +0.000 A 
ATOM     20  C   UNL     1       2.148   7.402  19.925  0.00  0.00    +0.000 A 
ATOM     21  C   UNL     1       1.456   8.294  20.734  0.00  0.00    +0.000 A 
ATOM     22  C   UNL     1       0.909   9.422  20.147  0.00  0.00    +0.000 A 
ATOM     23  N   UNL     1       1.021   9.710  18.829  0.00  0.00    +0.000 NA
ATOM     24  C   UNL     1       1.687   8.827  18.065  0.00  0.00    +0.000 A 
ENDBRANCH  18  19
ENDBRANCH   2  18
BRANCH   4  25
ATOM     25  C   UNL     1       1.368   2.166  20.051  0.00  0.00    +0.000 C 
BRANCH  25  26
ATOM     26  C   UNL     1       1.381   2.596  21.515  0.00  0.00    +0.000 C 
BRANCH  26  27
ATOM     27  O   UNL     1       2.698   2.543  22.044  0.00  0.00    +0.000 OA
ATOM     28  H   UNL     1       2.896   1.612  22.262  0.00  0.00    +0.000 HD
ENDBRANCH  26  27
ENDBRANCH  25  26
ENDBRANCH   4  25
TORSDOF 8
ENDMDL
MODEL 7
REMARK VINA RESULT:      -6.7      1.547      2.303
REMARK  Name = 
REMARK  10 active torsions:
REMARK  status: ('A' for Active; 'I' for Inactive)
REMARK    1  A    between atoms: C_1  and  C_2
REMARK    2  A    between atoms: C_5  and  C_6
REMARK    3  A    between atoms: C_6  and  N_7
REMARK    4  A    between atoms: C_8  and  C_9
REMARK    5  A    between atoms: C_9  and  C_10
REMARK    6  A    between atoms: C_17  and  C_18
REMARK    7  A    between atoms: C_18  and  C_19
REMARK    8  A    between atoms: C_19  and  O_20
REMARK    9  A    between atoms: C_21  and  C_22
REMARK   10  A    between atoms: C_23  and  N_24
REMARK                            x       y       z     vdW  Elec       q    Type
REMARK                         _______ _______ _______ _____ _____    ______ ____
ROOT
ATOM      1  N   UNL     1       3.468   4.170  17.763  0.00  0.00    +0.000 N 
ATOM      2  C   UNL     1       2.822   5.269  18.165  0.00  0.00    +0.000 A 
ATOM      3  S   UNL     1       1.420   4.858  19.069  0.00  0.00    +0.000 S 
ATOM      4  C   UNL     1       1.902   3.221  19.194  0.00  0.00    +0.000 A 
ATOM      5  C   UNL     1       3.008   2.998  18.392  0.00  0.00    +0.000 A 
ATOM      6  C   UNL     1       3.745   1.714  18.223  0.00  0.00    +0.000 C 
ENDROOT
BRANCH   1   7
ATOM      7  C   UNL     1       4.682   4.163  16.889  0.00  0.00    +0.000 C 
BRANCH   7  12
ATOM      8  C   UNL     1       8.552   8.151  18.420  0.00  0.00    +0.000 C 
ATOM      9  C   UNL     1       7.560   7.126  17.964  0.00  0.00    +0.000 A 
ATOM     10  C   UNL     1       6.960   7.236  16.723  0.00  0.00    +0.000 A 
ATOM     11  C   UNL     1       6.117   6.215  16.300  0.00  0.00    +0.000 A 
ATOM     12  C   UNL     1       5.747   5.193  17.179  0.00  0.00    +0.000 A 
ATOM     13  C   UNL     1       6.444   5.135  18.383  0.00  0.00    +0.000 A 
ATOM     14  N   UNL     1       7.340   6.062  18.771  0.00  0.00    +0.000 NA
BRANCH  13  15
ATOM     15  N   UNL     1       6.289   4.071  19.277  0.00  0.00    +0.000 N 
ATOM     16  H   UNL     1       5.591   3.397  18.996  0.00  0.00    +0.000 HD
ATOM     17  H   UNL     1       5.970   4.503  20.151  0.00  0.00    +0.000 HD
ENDBRANCH  13  15
ENDBRANCH   7  12
ENDBRANCH   1   7
BRANCH   2  18
ATOM     18  C   UNL     1       3.105   6.711  17.840  0.00  0.00    +0.000 C 
BRANCH  18  19
ATOM     19  C   UNL     1       2.227   7.720  18.519  0.00  0.00    +0.000 A 
ATOM     20  C   UNL     1       1.615   8.748  17.798  0.00  0.00    +0.000 A 
ATOM     21  C   UNL     1       0.894   9.724  18.475  0.00  0.00    +0.000 A 
ATOM     22  C   UNL     1       0.799   9.631  19.852  0.00  0.00    +0.000 A 
ATOM     23  N   UNL     1       1.361   8.634  20.576  0.00  0.00    +0.000 NA
ATOM     24  C   UNL     1       2.061   7.707  19.900  0.00  0.00    +0.000 A 
ENDBRANCH  18  19
ENDBRANCH   2  18
BRANCH   4  25
ATOM     25  C   UNL     1       1.148   2.301  20.122  0.00  0.00    +0.000 C 
BRANCH  25  26
ATOM     26  C   UNL     1       1.359   2.617  21.600  0.00  0.00    +0.000 C 
BRANCH  26  27
ATOM     27  O   UNL     1       2.736   2.547  21.939  0.00  0.00    +0.000 OA
ATOM     28  H   UNL     1       3.112   1.758  21.503  0.00  0.00    +0.000 HD
ENDBRANCH  26  27
ENDBRANCH  25  26
ENDBRANCH   4  25
TORSDOF 8
ENDMDL
MODEL 8
REMARK VINA RESULT:      -6.5      1.559      2.311
REMARK  Name = 
REMARK  10 active torsions:
REMARK  status: ('A' for Active; 'I' for Inactive)
REMARK    1  A    between atoms: C_1  and  C_2
REMARK    2  A    between atoms: C_5  and  C_6
REMARK    3  A    between atoms: C_6  and  N_7
REMARK    4  A    between atoms: C_8  and  C_9
REMARK    5  A    between atoms: C_9  and  C_10
REMARK    6  A    between atoms: C_17  and  C_18
REMARK    7  A    between atoms: C_18  and  C_19
REMARK    8  A    between atoms: C_19  and  O_20
REMARK    9  A    between atoms: C_21  and  C_22
REMARK   10  A    between atoms: C_23  and  N_24
REMARK                            x       y       z     vdW  Elec       q    Type
REMARK                         _______ _______ _______ _____ _____    ______ ____
ROOT
ATOM      1  N   UNL     1       3.629   4.386  18.101  0.00  0.00    +0.000 N 
ATOM      2  C   UNL     1       2.976   5.463  18.550  0.00  0.00    +0.000 A 
ATOM      3  S   UNL     1       1.517   5.010  19.334  0.00  0.00    +0.000 S 
ATOM      4  C   UNL     1       1.966   3.360  19.357  0.00  0.00    +0.000 A 
ATOM      5  C   UNL     1       3.115   3.178  18.607  0.00  0.00    +0.000 A 
ATOM      6  C   UNL     1       3.841   1.897  18.381  0.00  0.00    +0.000 C 
ENDROOT
BRANCH   1   7
ATOM      7  C   UNL     1       4.893   4.424  17.302  0.00  0.00    +0.000 C 
BRANCH   7  12
ATOM      8  C   UNL     1       8.779   8.620  18.023  0.00  0.00    +0.000 C 
ATOM      9  C   UNL     1       7.766   7.524  17.897  0.00  0.00    +0.000 A 
ATOM     10  C   UNL     1       7.662   6.551  18.874  0.00  0.00    +0.000 A 
ATOM     11  C   UNL     1       6.648   5.606  18.765  0.00  0.00    +0.000 A 
ATOM     12  C   UNL     1       5.869   5.536  17.606  0.00  0.00    +0.000 A 
ATOM     13  C   UNL     1       6.008   6.589  16.706  0.00  0.00    +0.000 A 
ATOM     14  N   UNL     1       6.918   7.571  16.843  0.00  0.00    +0.000 NA
BRANCH  13  15
ATOM     15  N   UNL     1       5.172   6.726  15.593  0.00  0.00    +0.000 N 
ATOM     16  H   UNL     1       4.188   6.761  15.820  0.00  0.00    +0.000 HD
ATOM     17  H   UNL     1       5.333   5.879  15.036  0.00  0.00    +0.000 HD
ENDBRANCH  13  15
ENDBRANCH   7  12
ENDBRANCH   1   7
BRANCH   2  18
ATOM     18  C   UNL     1       3.299   6.920  18.357  0.00  0.00    +0.000 C 
BRANCH  18  19
ATOM     19  C   UNL     1       2.218   7.887  18.738  0.00  0.00    +0.000 A 
ATOM     20  C   UNL     1       1.616   8.712  17.785  0.00  0.00    +0.000 A 
ATOM     21  C   UNL     1       0.692   9.667  18.190  0.00  0.00    +0.000 A 
ATOM     22  C   UNL     1       0.392   9.756  19.538  0.00  0.00    +0.000 A 
ATOM     23  N   UNL     1       0.940   8.955  20.482  0.00  0.00    +0.000 NA
ATOM     24  C   UNL     1       1.838   8.045  20.067  0.00  0.00    +0.000 A 
ENDBRANCH  18  19
ENDBRANCH   2  18
BRANCH   4  25
ATOM     25  C   UNL     1       1.144   2.385  20.165  0.00  0.00    +0.000 C 
BRANCH  25  26
ATOM     26  C   UNL     1       1.337   2.523  21.672  0.00  0.00    +0.000 C 
BRANCH  26  27
ATOM     27  O   UNL     1       2.717   2.545  22.003  0.00  0.00    +0.000 OA
ATOM     28  H   UNL     1       2.918   1.730  22.503  0.00  0.00    +0.000 HD
ENDBRANCH  26  27
ENDBRANCH  25  26
ENDBRANCH   4  25
TORSDOF 8
ENDMDL
MODEL 9
REMARK VINA RESULT:      -6.5      2.589      6.469
REMARK  Name = 
REMARK  10 active torsions:
REMARK  status: ('A' for Active; 'I' for Inactive)
REMARK    1  A    between atoms: C_1  and  C_2
REMARK    2  A    between atoms: C_5  and  C_6
REMARK    3  A    between atoms: C_6  and  N_7
REMARK    4  A    between atoms: C_8  and  C_9
REMARK    5  A    between atoms: C_9  and  C_10
REMARK    6  A    between atoms: C_17  and  C_18
REMARK    7  A    between atoms: C_18  and  C_19
REMARK    8  A    between atoms: C_19  and  O_20
REMARK    9  A    between atoms: C_21  and  C_22
REMARK   10  A    between atoms: C_23  and  N_24
REMARK                            x       y       z     vdW  Elec       q    Type
REMARK                         _______ _______ _______ _____ _____    ______ ____
ROOT
ATOM      1  N   UNL     1       4.068   6.196  17.446  0.00  0.00    +0.000 N 
ATOM      2  C   UNL     1       3.810   4.898  17.636  0.00  0.00    +0.000 A 
ATOM      3  S   UNL     1       5.262   3.980  17.629  0.00  0.00    +0.000 S 
ATOM      4  C   UNL     1       6.229   5.388  17.718  0.00  0.00    +0.000 A 
ATOM      5  C   UNL     1       5.435   6.510  17.561  0.00  0.00    +0.000 A 
ATOM      6  C   UNL     1       5.882   7.932  17.585  0.00  0.00    +0.000 C 
ENDROOT
BRANCH   1   7
ATOM      7  C   UNL     1       3.029   7.264  17.315  0.00  0.00    +0.000 C 
BRANCH   7  12
ATOM      8  C   UNL     1       0.573   9.345  22.097  0.00  0.00    +0.000 C 
ATOM      9  C   UNL     1       1.198   8.748  20.874  0.00  0.00    +0.000 A 
ATOM     10  C   UNL     1       1.743   7.478  20.915  0.00  0.00    +0.000 A 
ATOM     11  C   UNL     1       2.229   6.924  19.737  0.00  0.00    +0.000 A 
ATOM     12  C   UNL     1       2.326   7.701  18.579  0.00  0.00    +0.000 A 
ATOM     13  C   UNL     1       1.702   8.945  18.618  0.00  0.00    +0.000 A 
ATOM     14  N   UNL     1       1.137   9.461  19.725  0.00  0.00    +0.000 NA
BRANCH  13  15
ATOM     15  N   UNL     1       1.583   9.749  17.480  0.00  0.00    +0.000 N 
ATOM     16  H   UNL     1       0.872  10.464  17.553  0.00  0.00    +0.000 HD
ATOM     17  H   UNL     1       1.303   9.108  16.730  0.00  0.00    +0.000 HD
ENDBRANCH  13  15
ENDBRANCH   7  12
ENDBRANCH   1   7
BRANCH   2  18
ATOM     18  C   UNL     1       2.483   4.196  17.731  0.00  0.00    +0.000 C 
BRANCH  18  19
ATOM     19  C   UNL     1       2.174   3.557  19.053  0.00  0.00    +0.000 A 
ATOM     20  C   UNL     1       0.863   3.475  19.527  0.00  0.00    +0.000 A 
ATOM     21  C   UNL     1       0.625   2.970  20.800  0.00  0.00    +0.000 A 
ATOM     22  C   UNL     1       1.710   2.554  21.552  0.00  0.00    +0.000 A 
ATOM     23  N   UNL     1       2.989   2.600  21.111  0.00  0.00    +0.000 NA
ATOM     24  C   UNL     1       3.194   3.100  19.880  0.00  0.00    +0.000 A 
ENDBRANCH  18  19
ENDBRANCH   2  18
BRANCH   4  25
ATOM     25  C   UNL     1       7.709   5.249  17.980  0.00  0.00    +0.000 C 
BRANCH  25  26
ATOM     26  C   UNL     1       8.200   6.066  19.171  0.00  0.00    +0.000 C 
BRANCH  26  27
ATOM     27  O   UNL     1       8.066   5.329  20.377  0.00  0.00    +0.000 OA
ATOM     28  H   UNL     1       8.925   4.905  20.566  0.00  0.00    +0.000 HD
ENDBRANCH  26  27
ENDBRANCH  25  26
ENDBRANCH   4  25
TORSDOF 8
ENDMDL
