MODEL 1
REMARK VINA RESULT:      -8.0      0.000      0.000
REMARK  Name = 
REMARK  9 active torsions:
REMARK  status: ('A' for Active; 'I' for Inactive)
REMARK    1  A    between atoms: C_1  and  C_2
REMARK    2  A    between atoms: C_2  and  C_3
REMARK    3  A    between atoms: C_2  and  O_4
REMARK    4  A    between atoms: C_2  and  C_5
REMARK    5  A    between atoms: C_10  and  C_11
REMARK    6  A    between atoms: N_16  and  C_17
REMARK    7  A    between atoms: C_20  and  N_21
REMARK    8  A    between atoms: N_21  and  S_22
REMARK    9  A    between atoms: S_22  and  C_23
REMARK                            x       y       z     vdW  Elec       q    Type
REMARK                         _______ _______ _______ _____ _____    ______ ____
ROOT
ATOM      1  C   UNL     1       1.746   8.337  18.850  0.00  0.00    +0.000 A 
ATOM      2  C   UNL     1       1.160   8.913  17.745  0.00  0.00    +0.000 A 
ATOM      3  C   UNL     1       0.467  10.071  17.980  0.00  0.00    +0.000 A 
ATOM      4  N   UNL     1       0.344  10.621  19.200  0.00  0.00    +0.000 NA
ATOM      5  C   UNL     1       0.912   9.972  20.224  0.00  0.00    +0.000 A 
ATOM      6  N   UNL     1       0.745  10.426  21.525  0.00  0.00    +0.000 N 
ATOM      7  N   UNL     1       1.609   8.840  20.092  0.00  0.00    +0.000 NA
ATOM      8  H   UNL     1       0.947   9.648  22.142  0.00  0.00    +0.000 HD
ENDROOT
BRANCH   1  14
ATOM      9  C   UNL     1       3.337   3.711  19.634  0.00  0.00    +0.000 A 
ATOM     10  C   UNL     1       2.390   3.436  20.565  0.00  0.00    +0.000 A 
ATOM     11  C   UNL     1       1.389   4.397  20.990  0.00  0.00    +0.000 A 
ATOM     12  C   UNL     1       1.380   5.616  20.436  0.00  0.00    +0.000 A 
ATOM     13  N   UNL     1       2.327   5.937  19.462  0.00  0.00    +0.000 N 
ATOM     14  C   UNL     1       2.534   7.114  18.749  0.00  0.00    +0.000 A 
ATOM     15  C   UNL     1       3.650   6.847  17.973  0.00  0.00    +0.000 A 
ATOM     16  N   UNL     1       4.117   5.579  18.160  0.00  0.00    +0.000 NA
ATOM     17  C   UNL     1       3.315   5.037  19.052  0.00  0.00    +0.000 A 
BRANCH   9  19
ATOM     18  C   UNL     1       3.889   1.824  18.026  0.00  0.00    +0.000 C 
ATOM     19  C   UNL     1       4.375   2.651  19.224  0.00  0.00    +0.000 C 
ATOM     20  C   UNL     1       4.732   1.737  20.403  0.00  0.00    +0.000 C 
BRANCH  19  21
ATOM     21  O   UNL     1       5.597   3.294  18.816  0.00  0.00    +0.000 OA
ATOM     22  H   UNL     1       6.332   2.716  19.083  0.00  0.00    +0.000 HD
ENDBRANCH  19  21
ENDBRANCH   9  19
ENDBRANCH   1  14
BRANCH   6  23
ATOM     23  C   UNL     1      -0.466  11.188  21.790  0.00  0.00    +0.000 C 
ATOM     24  C   UNL     1      -1.122  10.788  23.116  0.00  0.00    +0.000 C 
ATOM     25  C   UNL     1      -2.417  11.568  23.334  0.00  0.00    +0.000 C 
ATOM     26  C   UNL     1      -2.218  13.086  23.289  0.00  0.00    +0.000 C 
ATOM     27  C   UNL     1      -1.381  13.515  22.067  0.00  0.00    +0.000 C 
ATOM     28  C   UNL     1      -0.119  12.680  21.860  0.00  0.00    +0.000 C 
BRANCH  26  29
ATOM     29  N   UNL     1      -3.505  13.800  23.191  0.00  0.00    +0.000 NA
ATOM     30  H   UNL     1      -3.523  14.776  23.490  0.00  0.00    +0.000 HD
BRANCH  29  31
ATOM     31  S   UNL     1      -5.003  13.071  23.340  0.00  0.00    +0.000 S 
ATOM     32  C   UNL     1      -6.107  14.460  23.450  0.00  0.00    +0.000 C 
ATOM     33  O   UNL     1      -5.241  12.424  22.068  0.00  0.00    +0.000 OA
ATOM     34  O   UNL     1      -5.059  12.335  24.580  0.00  0.00    +0.000 OA
ENDBRANCH  29  31
ENDBRANCH  26  29
ENDBRANCH   6  23
TORSDOF 6
ENDMDL
MODEL 2
REMARK VINA RESULT:      -7.8      1.223      1.288
REMARK  Name = 
REMARK  9 active torsions:
REMARK  status: ('A' for Active; 'I' for Inactive)
REMARK    1  A    between atoms: C_1  and  C_2
REMARK    2  A    between atoms: C_2  and  C_3
REMARK    3  A    between atoms: C_2  and  O_4
REMARK    4  A    between atoms: C_2  and  C_5
REMARK    5  A    between atoms: C_10  and  C_11
REMARK    6  A    between atoms: N_16  and  C_17
REMARK    7  A    between atoms: C_20  and  N_21
REMARK    8  A    between atoms: N_21  and  S_22
REMARK    9  A    between atoms: S_22  and  C_23
REMARK                            x       y       z     vdW  Elec       q    Type
REMARK                         _______ _______ _______ _____ _____    ______ ____
ROOT
ATOM      1  C   UNL     1       1.820   8.394  18.841  0.00  0.00    +0.000 A 
ATOM      2  C   UNL     1       1.326   9.031  17.725  0.00  0.00    +0.000 A 
ATOM      3  C   UNL     1       0.660  10.204  17.961  0.00  0.00    +0.000 A 
ATOM      4  N   UNL     1       0.480  10.715  19.191  0.00  0.00    +0.000 NA
ATOM      5  C   UNL     1       0.959  10.009  20.222  0.00  0.00    +0.000 A 
ATOM      6  N   UNL     1       0.728  10.422  21.527  0.00  0.00    +0.000 N 
ATOM      7  N   UNL     1       1.624   8.858  20.091  0.00  0.00    +0.000 NA
ATOM      8  H   UNL     1       0.863   9.615  22.125  0.00  0.00    +0.000 HD
ENDROOT
BRANCH   1  14
ATOM      9  C   UNL     1       3.297   3.737  19.668  0.00  0.00    +0.000 A 
ATOM     10  C   UNL     1       2.367   3.507  20.628  0.00  0.00    +0.000 A 
ATOM     11  C   UNL     1       1.406   4.504  21.061  0.00  0.00    +0.000 A 
ATOM     12  C   UNL     1       1.418   5.713  20.485  0.00  0.00    +0.000 A 
ATOM     13  N   UNL     1       2.348   5.990  19.482  0.00  0.00    +0.000 N 
ATOM     14  C   UNL     1       2.570   7.147  18.742  0.00  0.00    +0.000 A 
ATOM     15  C   UNL     1       3.657   6.834  17.943  0.00  0.00    +0.000 A 
ATOM     16  N   UNL     1       4.093   5.557  18.141  0.00  0.00    +0.000 NA
ATOM     17  C   UNL     1       3.298   5.054  19.063  0.00  0.00    +0.000 A 
BRANCH   9  19
ATOM     18  C   UNL     1       3.752   1.806  18.082  0.00  0.00    +0.000 C 
ATOM     19  C   UNL     1       4.293   2.641  19.252  0.00  0.00    +0.000 C 
ATOM     20  C   UNL     1       4.656   1.739  20.438  0.00  0.00    +0.000 C 
BRANCH  19  21
ATOM     21  O   UNL     1       5.522   3.241  18.799  0.00  0.00    +0.000 OA
ATOM     22  H   UNL     1       5.348   4.187  18.658  0.00  0.00    +0.000 HD
ENDBRANCH  19  21
ENDBRANCH   9  19
ENDBRANCH   1  14
BRANCH   6  23
ATOM     23  C   UNL     1      -0.470  11.219  21.746  0.00  0.00    +0.000 C 
ATOM     24  C   UNL     1      -1.142  10.898  23.086  0.00  0.00    +0.000 C 
ATOM     25  C   UNL     1      -2.423  11.711  23.257  0.00  0.00    +0.000 C 
ATOM     26  C   UNL     1      -2.195  13.221  23.138  0.00  0.00    +0.000 C 
ATOM     27  C   UNL     1      -1.342  13.573  21.902  0.00  0.00    +0.000 C 
ATOM     28  C   UNL     1      -0.096  12.706  21.744  0.00  0.00    +0.000 C 
BRANCH  26  29
ATOM     29  N   UNL     1      -3.468  13.953  22.996  0.00  0.00    +0.000 NA
ATOM     30  H   UNL     1      -3.926  13.922  22.084  0.00  0.00    +0.000 HD
BRANCH  29  31
ATOM     31  S   UNL     1      -3.861  15.336  23.848  0.00  0.00    +0.000 S 
ATOM     32  C   UNL     1      -2.941  15.143  25.358  0.00  0.00    +0.000 C 
ATOM     33  O   UNL     1      -3.259  16.425  23.108  0.00  0.00    +0.000 OA
ATOM     34  O   UNL     1      -5.270  15.327  24.159  0.00  0.00    +0.000 OA
ENDBRANCH  29  31
ENDBRANCH  26  29
ENDBRANCH   6  23
TORSDOF 6
ENDMDL
MODEL 3
REMARK VINA RESULT:      -7.6      1.215      1.516
REMARK  Name = 
REMARK  9 active torsions:
REMARK  status: ('A' for Active; 'I' for Inactive)
REMARK    1  A    between atoms: C_1  and  C_2
REMARK    2  A    between atoms: C_2  and  C_3
REMARK    3  A    between atoms: C_2  and  O_4
REMARK    4  A    between atoms: C_2  and  C_5
REMARK    5  A    between atoms: C_10  and  C_11
REMARK    6  A    between atoms: N_16  and  C_17
REMARK    7  A    between atoms: C_20  and  N_21
REMARK    8  A    between atoms: N_21  and  S_22
REMARK    9  A    between atoms: S_22  and  C_23
REMARK                            x       y       z     vdW  Elec       q    Type
REMARK                         _______ _______ _______ _____ _____    ______ ____
ROOT
ATOM      1  C   UNL     1       1.121   9.220  18.600  0.00  0.00    +0.000 A 
ATOM      2  C   UNL     1       0.093   9.366  17.696  0.00  0.00    +0.000 A 
ATOM      3  C   UNL     1      -0.814  10.350  17.989  0.00  0.00    +0.000 A 
ATOM      4  N   UNL     1      -0.732  11.126  19.083  0.00  0.00    +0.000 NA
ATOM      5  C   UNL     1       0.278  10.887  19.929  0.00  0.00    +0.000 A 
ATOM      6  N   UNL     1       0.373  11.580  21.127  0.00  0.00    +0.000 N 
ATOM      7  N   UNL     1       1.211   9.953  19.726  0.00  0.00    +0.000 NA
ATOM      8  H   UNL     1       0.970  11.038  21.741  0.00  0.00    +0.000 HD
ENDROOT
BRANCH   1  14
ATOM      9  C   UNL     1       3.882   5.146  19.178  0.00  0.00    +0.000 A 
ATOM     10  C   UNL     1       3.134   4.663  20.201  0.00  0.00    +0.000 A 
ATOM     11  C   UNL     1       1.975   5.355  20.736  0.00  0.00    +0.000 A 
ATOM     12  C   UNL     1       1.608   6.522  20.195  0.00  0.00    +0.000 A 
ATOM     13  N   UNL     1       2.340   7.050  19.130  0.00  0.00    +0.000 N 
ATOM     14  C   UNL     1       2.174   8.228  18.408  0.00  0.00    +0.000 A 
ATOM     15  C   UNL     1       3.235   8.232  17.517  0.00  0.00    +0.000 A 
ATOM     16  N   UNL     1       4.019   7.122  17.645  0.00  0.00    +0.000 NA
ATOM     17  C   UNL     1       3.472   6.415  18.612  0.00  0.00    +0.000 A 
BRANCH   9  19
ATOM     18  C   UNL     1       6.406   5.145  18.892  0.00  0.00    +0.000 C 
ATOM     19  C   UNL     1       5.103   4.369  18.655  0.00  0.00    +0.000 C 
ATOM     20  C   UNL     1       4.945   4.019  17.170  0.00  0.00    +0.000 C 
BRANCH  19  21
ATOM     21  O   UNL     1       5.229   3.120  19.361  0.00  0.00    +0.000 OA
ATOM     22  H   UNL     1       6.062   3.153  19.862  0.00  0.00    +0.000 HD
ENDBRANCH  19  21
ENDBRANCH   9  19
ENDBRANCH   1  14
BRANCH   6  23
ATOM     23  C   UNL     1      -0.878  12.076  21.684  0.00  0.00    +0.000 C 
ATOM     24  C   UNL     1      -1.240  11.381  23.002  0.00  0.00    +0.000 C 
ATOM     25  C   UNL     1      -2.581  11.886  23.527  0.00  0.00    +0.000 C 
ATOM     26  C   UNL     1      -2.620  13.405  23.713  0.00  0.00    +0.000 C 
ATOM     27  C   UNL     1      -2.068  14.145  22.476  0.00  0.00    +0.000 C 
ATOM     28  C   UNL     1      -0.749  13.579  21.957  0.00  0.00    +0.000 C 
BRANCH  26  29
ATOM     29  N   UNL     1      -3.997  13.893  23.917  0.00  0.00    +0.000 NA
ATOM     30  H   UNL     1      -4.146  14.574  24.663  0.00  0.00    +0.000 HD
BRANCH  29  31
ATOM     31  S   UNL     1      -5.372  12.996  23.604  0.00  0.00    +0.000 S 
ATOM     32  C   UNL     1      -6.668  14.208  23.717  0.00  0.00    +0.000 C 
ATOM     33  O   UNL     1      -5.264  12.603  22.215  0.00  0.00    +0.000 OA
ATOM     34  O   UNL     1      -5.559  12.018  24.648  0.00  0.00    +0.000 OA
ENDBRANCH  29  31
ENDBRANCH  26  29
ENDBRANCH   6  23
TORSDOF 6
ENDMDL
MODEL 4
REMARK VINA RESULT:      -7.6      4.578     11.083
REMARK  Name = 
REMARK  9 active torsions:
REMARK  status: ('A' for Active; 'I' for Inactive)
REMARK    1  A    between atoms: C_1  and  C_2
REMARK    2  A    between atoms: C_2  and  C_3
REMARK    3  A    between atoms: C_2  and  O_4
REMARK    4  A    between atoms: C_2  and  C_5
REMARK    5  A    between atoms: C_10  and  C_11
REMARK    6  A    between atoms: N_16  and  C_17
REMARK    7  A    between atoms: C_20  and  N_21
REMARK    8  A    between atoms: N_21  and  S_22
REMARK    9  A    between atoms: S_22  and  C_23
REMARK                            x       y       z     vdW  Elec       q    Type
REMARK                         _______ _______ _______ _____ _____    ______ ____
ROOT
ATOM      1  C   UNL     1       1.871   7.197  20.221  0.00  0.00    +0.000 A 
ATOM      2  C   UNL     1       1.306   5.955  20.403  0.00  0.00    +0.000 A 
ATOM      3  C   UNL     1       1.936   4.921  19.761  0.00  0.00    +0.000 A 
ATOM      4  N   UNL     1       3.027   5.085  18.994  0.00  0.00    +0.000 NA
ATOM      5  C   UNL     1       3.484   6.334  18.839  0.00  0.00    +0.000 A 
ATOM      6  N   UNL     1       4.546   6.595  17.984  0.00  0.00    +0.000 N 
ATOM      7  N   UNL     1       2.939   7.403  19.427  0.00  0.00    +0.000 NA
ATOM      8  H   UNL     1       4.511   7.582  17.756  0.00  0.00    +0.000 HD
ENDROOT
BRANCH   1  14
ATOM      9  C   UNL     1      -0.487  11.510  20.853  0.00  0.00    +0.000 A 
ATOM     10  C   UNL     1      -0.833  11.627  19.547  0.00  0.00    +0.000 A 
ATOM     11  C   UNL     1      -0.468  10.651  18.537  0.00  0.00    +0.000 A 
ATOM     12  C   UNL     1       0.234   9.570  18.899  0.00  0.00    +0.000 A 
ATOM     13  N   UNL     1       0.599   9.401  20.236  0.00  0.00    +0.000 N 
ATOM     14  C   UNL     1       1.322   8.388  20.859  0.00  0.00    +0.000 A 
ATOM     15  C   UNL     1       1.407   8.798  22.180  0.00  0.00    +0.000 A 
ATOM     16  N   UNL     1       0.767   9.984  22.395  0.00  0.00    +0.000 NA
ATOM     17  C   UNL     1       0.279  10.337  21.223  0.00  0.00    +0.000 A 
BRANCH   9  19
ATOM     18  C   UNL     1      -2.308  13.118  21.594  0.00  0.00    +0.000 C 
ATOM     19  C   UNL     1      -0.900  12.578  21.880  0.00  0.00    +0.000 C 
ATOM     20  C   UNL     1       0.118  13.724  21.931  0.00  0.00    +0.000 C 
BRANCH  19  21
ATOM     21  O   UNL     1      -0.938  12.002  23.200  0.00  0.00    +0.000 OA
ATOM     22  H   UNL     1      -1.413  11.156  23.134  0.00  0.00    +0.000 HD
ENDBRANCH  19  21
ENDBRANCH   9  19
ENDBRANCH   1  14
BRANCH   6  23
ATOM     23  C   UNL     1       4.727   5.663  16.882  0.00  0.00    +0.000 C 
ATOM     24  C   UNL     1       5.213   6.363  15.607  0.00  0.00    +0.000 C 
ATOM     25  C   UNL     1       5.339   5.365  14.458  0.00  0.00    +0.000 C 
ATOM     26  C   UNL     1       6.258   4.185  14.786  0.00  0.00    +0.000 C 
ATOM     27  C   UNL     1       5.932   3.575  16.165  0.00  0.00    +0.000 C 
ATOM     28  C   UNL     1       5.770   4.610  17.275  0.00  0.00    +0.000 C 
BRANCH  26  29
ATOM     29  N   UNL     1       6.119   3.097  13.799  0.00  0.00    +0.000 NA
ATOM     30  H   UNL     1       6.493   2.183  14.056  0.00  0.00    +0.000 HD
BRANCH  29  31
ATOM     31  S   UNL     1       6.096   3.323  12.143  0.00  0.00    +0.000 S 
ATOM     32  C   UNL     1       6.507   1.709  11.520  0.00  0.00    +0.000 C 
ATOM     33  O   UNL     1       4.710   3.577  11.812  0.00  0.00    +0.000 OA
ATOM     34  O   UNL     1       7.140   4.245  11.767  0.00  0.00    +0.000 OA
ENDBRANCH  29  31
ENDBRANCH  26  29
ENDBRANCH   6  23
TORSDOF 6
ENDMDL
MODEL 5
REMARK VINA RESULT:      -7.5      3.472     10.787
REMARK  Name = 
REMARK  9 active torsions:
REMARK  status: ('A' for Active; 'I' for Inactive)
REMARK    1  A    between atoms: C_1  and  C_2
REMARK    2  A    between atoms: C_2  and  C_3
REMARK    3  A    between atoms: C_2  and  O_4
REMARK    4  A    between atoms: C_2  and  C_5
REMARK    5  A    between atoms: C_10  and  C_11
REMARK    6  A    between atoms: N_16  and  C_17
REMARK    7  A    between atoms: C_20  and  N_21
REMARK    8  A    between atoms: N_21  and  S_22
REMARK    9  A    between atoms: S_22  and  C_23
REMARK                            x       y       z     vdW  Elec       q    Type
REMARK                         _______ _______ _______ _____ _____    ______ ____
ROOT
ATOM      1  C   UNL     1      -0.168  11.370  20.549  0.00  0.00    +0.000 A 
ATOM      2  C   UNL     1       0.582  12.238  19.788  0.00  0.00    +0.000 A 
ATOM      3  C   UNL     1       1.486  11.652  18.942  0.00  0.00    +0.000 A 
ATOM      4  N   UNL     1       1.653  10.322  18.850  0.00  0.00    +0.000 NA
ATOM      5  C   UNL     1       0.910   9.554  19.657  0.00  0.00    +0.000 A 
ATOM      6  N   UNL     1       1.097   8.179  19.689  0.00  0.00    +0.000 N 
ATOM      7  N   UNL     1       0.002  10.034  20.511  0.00  0.00    +0.000 NA
ATOM      8  H   UNL     1       0.706   7.844  20.563  0.00  0.00    +0.000 HD
ENDROOT
BRANCH   1  14
ATOM      9  C   UNL     1      -4.486  13.036  22.319  0.00  0.00    +0.000 A 
ATOM     10  C   UNL     1      -5.097  13.035  21.108  0.00  0.00    +0.000 A 
ATOM     11  C   UNL     1      -4.431  12.638  19.881  0.00  0.00    +0.000 A 
ATOM     12  C   UNL     1      -3.154  12.239  19.933  0.00  0.00    +0.000 A 
ATOM     13  N   UNL     1      -2.490  12.209  21.160  0.00  0.00    +0.000 N 
ATOM     14  C   UNL     1      -1.185  11.848  21.479  0.00  0.00    +0.000 A 
ATOM     15  C   UNL     1      -1.094  12.077  22.842  0.00  0.00    +0.000 A 
ATOM     16  N   UNL     1      -2.266  12.537  23.368  0.00  0.00    +0.000 NA
ATOM     17  C   UNL     1      -3.102  12.608  22.352  0.00  0.00    +0.000 A 
BRANCH   9  19
ATOM     18  C   UNL     1      -6.750  13.217  23.455  0.00  0.00    +0.000 C 
ATOM     19  C   UNL     1      -5.242  13.471  23.586  0.00  0.00    +0.000 C 
ATOM     20  C   UNL     1      -4.969  14.942  23.921  0.00  0.00    +0.000 C 
BRANCH  19  21
ATOM     21  O   UNL     1      -4.789  12.701  24.716  0.00  0.00    +0.000 OA
ATOM     22  H   UNL     1      -5.570  12.489  25.255  0.00  0.00    +0.000 HD
ENDBRANCH  19  21
ENDBRANCH   9  19
ENDBRANCH   1  14
BRANCH   6  23
ATOM     23  C   UNL     1       2.423   7.702  19.327  0.00  0.00    +0.000 C 
ATOM     24  C   UNL     1       2.643   6.241  19.736  0.00  0.00    +0.000 C 
ATOM     25  C   UNL     1       4.061   5.791  19.391  0.00  0.00    +0.000 C 
ATOM     26  C   UNL     1       4.405   5.974  17.910  0.00  0.00    +0.000 C 
ATOM     27  C   UNL     1       4.008   7.376  17.402  0.00  0.00    +0.000 C 
ATOM     28  C   UNL     1       2.600   7.804  17.808  0.00  0.00    +0.000 C 
BRANCH  26  29
ATOM     29  N   UNL     1       5.852   5.830  17.666  0.00  0.00    +0.000 NA
ATOM     30  H   UNL     1       6.464   6.559  18.037  0.00  0.00    +0.000 HD
BRANCH  29  31
ATOM     31  S   UNL     1       6.514   5.078  16.328  0.00  0.00    +0.000 S 
ATOM     32  C   UNL     1       5.362   3.762  16.006  0.00  0.00    +0.000 C 
ATOM     33  O   UNL     1       6.390   6.037  15.251  0.00  0.00    +0.000 OA
ATOM     34  O   UNL     1       7.789   4.502  16.679  0.00  0.00    +0.000 OA
ENDBRANCH  29  31
ENDBRANCH  26  29
ENDBRANCH   6  23
TORSDOF 6
ENDMDL
MODEL 6
REMARK VINA RESULT:      -7.3      1.510      1.922
REMARK  Name = 
REMARK  9 active torsions:
REMARK  status: ('A' for Active; 'I' for Inactive)
REMARK    1  A    between atoms: C_1  and  C_2
REMARK    2  A    between atoms: C_2  and  C_3
REMARK    3  A    between atoms: C_2  and  O_4
REMARK    4  A    between atoms: C_2  and  C_5
REMARK    5  A    between atoms: C_10  and  C_11
REMARK    6  A    between atoms: N_16  and  C_17
REMARK    7  A    between atoms: C_20  and  N_21
REMARK    8  A    between atoms: N_21  and  S_22
REMARK    9  A    between atoms: S_22  and  C_23
REMARK                            x       y       z     vdW  Elec       q    Type
REMARK                         _______ _______ _______ _____ _____    ______ ____
ROOT
ATOM      1  C   UNL     1       0.751   9.648  18.842  0.00  0.00    +0.000 A 
ATOM      2  C   UNL     1      -0.303   9.832  17.975  0.00  0.00    +0.000 A 
ATOM      3  C   UNL     1      -1.174  10.835  18.310  0.00  0.00    +0.000 A 
ATOM      4  N   UNL     1      -1.037  11.593  19.410  0.00  0.00    +0.000 NA
ATOM      5  C   UNL     1      -0.006  11.317  20.219  0.00  0.00    +0.000 A 
ATOM      6  N   UNL     1       0.146  11.991  21.423  0.00  0.00    +0.000 N 
ATOM      7  N   UNL     1       0.896  10.363  19.974  0.00  0.00    +0.000 NA
ATOM      8  H   UNL     1       0.748  11.426  22.009  0.00  0.00    +0.000 HD
ENDROOT
BRANCH   1  14
ATOM      9  C   UNL     1       3.467   5.531  19.321  0.00  0.00    +0.000 A 
ATOM     10  C   UNL     1       2.775   5.080  20.397  0.00  0.00    +0.000 A 
ATOM     11  C   UNL     1       1.665   5.803  20.989  0.00  0.00    +0.000 A 
ATOM     12  C   UNL     1       1.286   6.969  20.452  0.00  0.00    +0.000 A 
ATOM     13  N   UNL     1       1.959   7.464  19.334  0.00  0.00    +0.000 N 
ATOM     14  C   UNL     1       1.770   8.633  18.603  0.00  0.00    +0.000 A 
ATOM     15  C   UNL     1       2.773   8.600  17.648  0.00  0.00    +0.000 A 
ATOM     16  N   UNL     1       3.544   7.479  17.746  0.00  0.00    +0.000 NA
ATOM     17  C   UNL     1       3.045   6.798  18.758  0.00  0.00    +0.000 A 
BRANCH   9  19
ATOM     18  C   UNL     1       4.528   3.234  19.099  0.00  0.00    +0.000 C 
ATOM     19  C   UNL     1       4.637   4.722  18.736  0.00  0.00    +0.000 C 
ATOM     20  C   UNL     1       5.988   5.291  19.188  0.00  0.00    +0.000 C 
BRANCH  19  21
ATOM     21  O   UNL     1       4.618   4.800  17.298  0.00  0.00    +0.000 OA
ATOM     22  H   UNL     1       5.265   5.477  17.035  0.00  0.00    +0.000 HD
ENDBRANCH  19  21
ENDBRANCH   9  19
ENDBRANCH   1  14
BRANCH   6  23
ATOM     23  C   UNL     1      -1.073  12.511  22.026  0.00  0.00    +0.000 C 
ATOM     24  C   UNL     1      -1.683  11.529  23.033  0.00  0.00    +0.000 C 
ATOM     25  C   UNL     1      -2.987  12.082  23.604  0.00  0.00    +0.000 C 
ATOM     26  C   UNL     1      -2.820  13.457  24.256  0.00  0.00    +0.000 C 
ATOM     27  C   UNL     1      -2.026  14.424  23.353  0.00  0.00    +0.000 C 
ATOM     28  C   UNL     1      -0.754  13.815  22.766  0.00  0.00    +0.000 C 
BRANCH  26  29
ATOM     29  N   UNL     1      -4.124  14.097  24.516  0.00  0.00    +0.000 NA
ATOM     30  H   UNL     1      -4.483  14.055  25.470  0.00  0.00    +0.000 HD
BRANCH  29  31
ATOM     31  S   UNL     1      -5.351  14.230  23.389  0.00  0.00    +0.000 S 
ATOM     32  C   UNL     1      -6.515  12.998  23.927  0.00  0.00    +0.000 C 
ATOM     33  O   UNL     1      -5.948  15.527  23.625  0.00  0.00    +0.000 OA
ATOM     34  O   UNL     1      -4.852  13.859  22.086  0.00  0.00    +0.000 OA
ENDBRANCH  29  31
ENDBRANCH  26  29
ENDBRANCH   6  23
TORSDOF 6
ENDMDL
MODEL 7
REMARK VINA RESULT:      -7.2      7.660     11.517
REMARK  Name = 
REMARK  9 active torsions:
REMARK  status: ('A' for Active; 'I' for Inactive)
REMARK    1  A    between atoms: C_1  and  C_2
REMARK    2  A    between atoms: C_2  and  C_3
REMARK    3  A    between atoms: C_2  and  O_4
REMARK    4  A    between atoms: C_2  and  C_5
REMARK    5  A    between atoms: C_10  and  C_11
REMARK    6  A    between atoms: N_16  and  C_17
REMARK    7  A    between atoms: C_20  and  N_21
REMARK    8  A    between atoms: N_21  and  S_22
REMARK    9  A    between atoms: S_22  and  C_23
REMARK                            x       y       z     vdW  Elec       q    Type
REMARK                         _______ _______ _______ _____ _____    ______ ____
ROOT
ATOM      1  C   UNL     1       8.438   9.761  18.188  0.00  0.00    +0.000 A 
ATOM      2  C   UNL     1       9.046   9.031  19.184  0.00  0.00    +0.000 A 
ATOM      3  C   UNL     1       8.732   7.698  19.213  0.00  0.00    +0.000 A 
ATOM      4  N   UNL     1       7.885   7.121  18.345  0.00  0.00    +0.000 NA
ATOM      5  C   UNL     1       7.308   7.915  17.434  0.00  0.00    +0.000 A 
ATOM      6  N   UNL     1       6.348   7.411  16.568  0.00  0.00    +0.000 N 
ATOM      7  N   UNL     1       7.553   9.224  17.327  0.00  0.00    +0.000 NA
ATOM      8  H   UNL     1       5.817   8.200  16.217  0.00  0.00    +0.000 HD
ENDROOT
BRANCH   1  14
ATOM      9  C   UNL     1      10.640  14.191  18.465  0.00  0.00    +0.000 A 
ATOM     10  C   UNL     1      11.701  13.732  19.175  0.00  0.00    +0.000 A 
ATOM     11  C   UNL     1      11.845  12.346  19.582  0.00  0.00    +0.000 A 
ATOM     12  C   UNL     1      10.899  11.464  19.237  0.00  0.00    +0.000 A 
ATOM     13  N   UNL     1       9.798  11.890  18.492  0.00  0.00    +0.000 N 
ATOM     14  C   UNL     1       8.693  11.188  18.020  0.00  0.00    +0.000 A 
ATOM     15  C   UNL     1       7.917  12.154  17.401  0.00  0.00    +0.000 A 
ATOM     16  N   UNL     1       8.492  13.390  17.455  0.00  0.00    +0.000 NA
ATOM     17  C   UNL     1       9.624  13.223  18.107  0.00  0.00    +0.000 A 
BRANCH   9  19
ATOM     18  C   UNL     1      11.162  15.924  16.682  0.00  0.00    +0.000 C 
ATOM     19  C   UNL     1      10.540  15.673  18.063  0.00  0.00    +0.000 C 
ATOM     20  C   UNL     1      11.183  16.581  19.118  0.00  0.00    +0.000 C 
BRANCH  19  21
ATOM     21  O   UNL     1       9.157  16.064  17.971  0.00  0.00    +0.000 OA
ATOM     22  H   UNL     1       9.002  16.374  17.062  0.00  0.00    +0.000 HD
ENDBRANCH  19  21
ENDBRANCH   9  19
ENDBRANCH   1  14
BRANCH   6  23
ATOM     23  C   UNL     1       5.594   6.260  17.042  0.00  0.00    +0.000 C 
ATOM     24  C   UNL     1       4.192   6.646  17.526  0.00  0.00    +0.000 C 
ATOM     25  C   UNL     1       3.452   5.425  18.067  0.00  0.00    +0.000 C 
ATOM     26  C   UNL     1       3.355   4.284  17.050  0.00  0.00    +0.000 C 
ATOM     27  C   UNL     1       4.716   3.996  16.384  0.00  0.00    +0.000 C 
ATOM     28  C   UNL     1       5.442   5.249  15.899  0.00  0.00    +0.000 C 
BRANCH  26  29
ATOM     29  N   UNL     1       2.921   3.025  17.686  0.00  0.00    +0.000 NA
ATOM     30  H   UNL     1       1.925   2.805  17.655  0.00  0.00    +0.000 HD
BRANCH  29  31
ATOM     31  S   UNL     1       3.679   2.322  18.999  0.00  0.00    +0.000 S 
ATOM     32  C   UNL     1       2.471   2.499  20.292  0.00  0.00    +0.000 C 
ATOM     33  O   UNL     1       3.770   0.914  18.679  0.00  0.00    +0.000 OA
ATOM     34  O   UNL     1       4.849   3.090  19.350  0.00  0.00    +0.000 OA
ENDBRANCH  29  31
ENDBRANCH  26  29
ENDBRANCH   6  23
TORSDOF 6
ENDMDL
MODEL 8
REMARK VINA RESULT:      -7.1      3.143     10.855
REMARK  Name = 
REMARK  9 active torsions:
REMARK  status: ('A' for Active; 'I' for Inactive)
REMARK    1  A    between atoms: C_1  and  C_2
REMARK    2  A    between atoms: C_2  and  C_3
REMARK    3  A    between atoms: C_2  and  O_4
REMARK    4  A    between atoms: C_2  and  C_5
REMARK    5  A    between atoms: C_10  and  C_11
REMARK    6  A    between atoms: N_16  and  C_17
REMARK    7  A    between atoms: C_20  and  N_21
REMARK    8  A    between atoms: N_21  and  S_22
REMARK    9  A    between atoms: S_22  and  C_23
REMARK                            x       y       z     vdW  Elec       q    Type
REMARK                         _______ _______ _______ _____ _____    ______ ____
ROOT
ATOM      1  C   UNL     1      -0.854  13.189  20.930  0.00  0.00    +0.000 A 
ATOM      2  C   UNL     1       0.332  13.722  21.383  0.00  0.00    +0.000 A 
ATOM      3  C   UNL     1       1.466  13.084  20.955  0.00  0.00    +0.000 A 
ATOM      4  N   UNL     1       1.447  12.005  20.155  0.00  0.00    +0.000 NA
ATOM      5  C   UNL     1       0.248  11.529  19.796  0.00  0.00    +0.000 A 
ATOM      6  N   UNL     1       0.146  10.362  19.053  0.00  0.00    +0.000 N 
ATOM      7  N   UNL     1      -0.911  12.085  20.161  0.00  0.00    +0.000 NA
ATOM      8  H   UNL     1      -0.795  10.007  19.179  0.00  0.00    +0.000 HD
ENDROOT
BRANCH   1  14
ATOM      9  C   UNL     1      -5.128  14.030  23.294  0.00  0.00    +0.000 A 
ATOM     10  C   UNL     1      -4.938  13.038  24.199  0.00  0.00    +0.000 A 
ATOM     11  C   UNL     1      -3.771  12.175  24.201  0.00  0.00    +0.000 A 
ATOM     12  C   UNL     1      -2.821  12.363  23.277  0.00  0.00    +0.000 A 
ATOM     13  N   UNL     1      -2.966  13.383  22.335  0.00  0.00    +0.000 N 
ATOM     14  C   UNL     1      -2.142  13.775  21.285  0.00  0.00    +0.000 A 
ATOM     15  C   UNL     1      -2.840  14.803  20.673  0.00  0.00    +0.000 A 
ATOM     16  N   UNL     1      -4.024  15.067  21.298  0.00  0.00    +0.000 NA
ATOM     17  C   UNL     1      -4.091  14.213  22.298  0.00  0.00    +0.000 A 
BRANCH   9  19
ATOM     18  C   UNL     1      -6.096  16.273  23.988  0.00  0.00    +0.000 C 
ATOM     19  C   UNL     1      -6.387  14.913  23.339  0.00  0.00    +0.000 C 
ATOM     20  C   UNL     1      -7.538  14.203  24.063  0.00  0.00    +0.000 C 
BRANCH  19  21
ATOM     21  O   UNL     1      -6.846  15.182  22.001  0.00  0.00    +0.000 OA
ATOM     22  H   UNL     1      -7.555  14.546  21.804  0.00  0.00    +0.000 HD
ENDBRANCH  19  21
ENDBRANCH   9  19
ENDBRANCH   1  14
BRANCH   6  23
ATOM     23  C   UNL     1       1.240   9.412  19.196  0.00  0.00    +0.000 C 
ATOM     24  C   UNL     1       0.886   8.262  20.147  0.00  0.00    +0.000 C 
ATOM     25  C   UNL     1       2.073   7.317  20.315  0.00  0.00    +0.000 C 
ATOM     26  C   UNL     1       2.585   6.753  18.987  0.00  0.00    +0.000 C 
ATOM     27  C   UNL     1       2.761   7.861  17.928  0.00  0.00    +0.000 C 
ATOM     28  C   UNL     1       1.571   8.811  17.825  0.00  0.00    +0.000 C 
BRANCH  26  29
ATOM     29  N   UNL     1       3.900   6.104  19.142  0.00  0.00    +0.000 NA
ATOM     30  H   UNL     1       4.722   6.637  18.854  0.00  0.00    +0.000 HD
BRANCH  29  31
ATOM     31  S   UNL     1       4.156   4.455  19.043  0.00  0.00    +0.000 S 
ATOM     32  C   UNL     1       3.831   4.108  17.330  0.00  0.00    +0.000 C 
ATOM     33  O   UNL     1       5.575   4.275  19.263  0.00  0.00    +0.000 OA
ATOM     34  O   UNL     1       3.177   3.766  19.849  0.00  0.00    +0.000 OA
ENDBRANCH  29  31
ENDBRANCH  26  29
ENDBRANCH   6  23
TORSDOF 6
ENDMDL
MODEL 9
REMARK VINA RESULT:      -7.1      3.509     10.317
REMARK  Name = 
REMARK  9 active torsions:
REMARK  status: ('A' for Active; 'I' for Inactive)
REMARK    1  A    between atoms: C_1  and  C_2
REMARK    2  A    between atoms: C_2  and  C_3
REMARK    3  A    between atoms: C_2  and  O_4
REMARK    4  A    between atoms: C_2  and  C_5
REMARK    5  A    between atoms: C_10  and  C_11
REMARK    6  A    between atoms: N_16  and  C_17
REMARK    7  A    between atoms: C_20  and  N_21
REMARK    8  A    between atoms: N_21  and  S_22
REMARK    9  A    between atoms: S_22  and  C_23
REMARK                            x       y       z     vdW  Elec       q    Type
REMARK                         _______ _______ _______ _____ _____    ______ ____
ROOT
ATOM      1  C   UNL     1       0.577  10.809  18.850  0.00  0.00    +0.000 A 
ATOM      2  C   UNL     1       1.643  11.538  18.370  0.00  0.00    +0.000 A 
ATOM      3  C   UNL     1       2.628  10.809  17.758  0.00  0.00    +0.000 A 
ATOM      4  N   UNL     1       2.584   9.472  17.630  0.00  0.00    +0.000 NA
ATOM      5  C   UNL     1       1.530   8.841  18.162  0.00  0.00    +0.000 A 
ATOM      6  N   UNL     1       1.462   7.455  18.156  0.00  0.00    +0.000 N 
ATOM      7  N   UNL     1       0.520   9.466  18.774  0.00  0.00    +0.000 NA
ATOM      8  H   UNL     1       0.798   7.184  18.873  0.00  0.00    +0.000 HD
ENDROOT
BRANCH   1  14
ATOM      9  C   UNL     1      -2.616  12.225  22.364  0.00  0.00    +0.000 A 
ATOM     10  C   UNL     1      -1.989  11.538  23.352  0.00  0.00    +0.000 A 
ATOM     11  C   UNL     1      -0.803  10.732  23.130  0.00  0.00    +0.000 A 
ATOM     12  C   UNL     1      -0.284  10.662  21.898  0.00  0.00    +0.000 A 
ATOM     13  N   UNL     1      -0.888  11.365  20.854  0.00  0.00    +0.000 N 
ATOM     14  C   UNL     1      -0.556  11.452  19.506  0.00  0.00    +0.000 A 
ATOM     15  C   UNL     1      -1.551  12.248  18.964  0.00  0.00    +0.000 A 
ATOM     16  N   UNL     1      -2.452  12.660  19.903  0.00  0.00    +0.000 NA
ATOM     17  C   UNL     1      -2.043  12.130  21.037  0.00  0.00    +0.000 A 
BRANCH   9  19
ATOM     18  C   UNL     1      -3.581  14.566  22.563  0.00  0.00    +0.000 C 
ATOM     19  C   UNL     1      -3.873  13.062  22.658  0.00  0.00    +0.000 C 
ATOM     20  C   UNL     1      -4.467  12.712  24.028  0.00  0.00    +0.000 C 
BRANCH  19  21
ATOM     21  O   UNL     1      -4.893  12.776  21.682  0.00  0.00    +0.000 OA
ATOM     22  H   UNL     1      -4.627  11.967  21.213  0.00  0.00    +0.000 HD
ENDBRANCH  19  21
ENDBRANCH   9  19
ENDBRANCH   1  14
BRANCH   6  23
ATOM     23  C   UNL     1       2.735   6.749  18.128  0.00  0.00    +0.000 C 
ATOM     24  C   UNL     1       3.277   6.480  19.537  0.00  0.00    +0.000 C 
ATOM     25  C   UNL     1       4.637   5.789  19.468  0.00  0.00    +0.000 C 
ATOM     26  C   UNL     1       4.608   4.486  18.664  0.00  0.00    +0.000 C 
ATOM     27  C   UNL     1       3.884   4.665  17.314  0.00  0.00    +0.000 C 
ATOM     28  C   UNL     1       2.550   5.401  17.422  0.00  0.00    +0.000 C 
BRANCH  26  29
ATOM     29  N   UNL     1       5.969   4.009  18.353  0.00  0.00    +0.000 NA
ATOM     30  H   UNL     1       6.312   3.200  18.874  0.00  0.00    +0.000 HD
BRANCH  29  31
ATOM     31  S   UNL     1       7.216   4.990  17.827  0.00  0.00    +0.000 S 
ATOM     32  C   UNL     1       7.827   5.696  19.341  0.00  0.00    +0.000 C 
ATOM     33  O   UNL     1       8.229   4.086  17.328  0.00  0.00    +0.000 OA
ATOM     34  O   UNL     1       6.682   6.048  17.004  0.00  0.00    +0.000 OA
ENDBRANCH  29  31
ENDBRANCH  26  29
ENDBRANCH   6  23
TORSDOF 6
ENDMDL
