MODEL 1
REMARK VINA RESULT:      -6.9      0.000      0.000
REMARK  Name = 
REMARK  13 active torsions:
REMARK  status: ('A' for Active; 'I' for Inactive)
REMARK    1  A    between atoms: C_1  and  C_2
REMARK    2  A    between atoms: C_2  and  C_3
REMARK    3  A    between atoms: C_2  and  C_4
REMARK    4  A    between atoms: C_4  and  N_5
REMARK    5  A    between atoms: N_8  and  C_9
REMARK    6  A    between atoms: C_14  and  C_15
REMARK    7  A    between atoms: N_17  and  C_18
REMARK    8  A    between atoms: N_17  and  C_19
REMARK    9  A    between atoms: C_19  and  C_20
REMARK   10  A    between atoms: C_20  and  C_21
REMARK   11  A    between atoms: C_21  and  O_22
REMARK   12  A    between atoms: C_23  and  C_24
REMARK   13  A    between atoms: C_24  and  C_25
REMARK                            x       y       z     vdW  Elec       q    Type
REMARK                         _______ _______ _______ _____ _____    ______ ____
ROOT
ATOM      1  N   UNL     1       0.636  15.116  18.913  0.00  0.00    +0.000 N 
ATOM      2  C   UNL     1       1.717  15.976  18.738  0.00  0.00    +0.000 A 
ATOM      3  O   UNL     1       1.578  17.199  18.766  0.00  0.00    +0.000 OA
ATOM      4  N   UNL     1       2.955  15.383  18.520  0.00  0.00    +0.000 N 
ATOM      5  C   UNL     1       4.126  16.217  18.331  0.00  0.00    +0.000 C 
ATOM      6  C   UNL     1       3.176  14.013  18.446  0.00  0.00    +0.000 A 
ATOM      7  O   UNL     1       4.287  13.512  18.281  0.00  0.00    +0.000 OA
ATOM      8  C   UNL     1       1.998  13.154  18.596  0.00  0.00    +0.000 A 
ATOM      9  N   UNL     1       2.194  11.825  18.463  0.00  0.00    +0.000 NA
ATOM     10  C   UNL     1       1.137  11.004  18.673  0.00  0.00    +0.000 A 
ATOM     11  C   UNL     1      -0.118  11.534  19.007  0.00  0.00    +0.000 A 
ATOM     12  N   UNL     1      -0.287  12.902  19.107  0.00  0.00    +0.000 NA
ATOM     13  C   UNL     1       0.777  13.714  18.877  0.00  0.00    +0.000 A 
ENDROOT
BRANCH  10  14
ATOM     14  C   UNL     1       1.451   9.551  18.404  0.00  0.00    +0.000 C 
ATOM     15  O   UNL     1       1.669   9.175  17.255  0.00  0.00    +0.000 OA
ATOM     16  N   UNL     1       1.586   8.645  19.477  0.00  0.00    +0.000 N 
ATOM     17  C   UNL     1       1.048   8.863  20.817  0.00  0.00    +0.000 C 
BRANCH  16  18
ATOM     18  C   UNL     1       2.537   7.545  19.326  0.00  0.00    +0.000 C 
BRANCH  18  19
ATOM     19  C   UNL     1       2.155   6.271  20.071  0.00  0.00    +0.000 C 
BRANCH  19  20
ATOM     20  C   UNL     1       2.491   5.008  19.295  0.00  0.00    +0.000 C 
BRANCH  20  21
ATOM     21  O   UNL     1       2.265   3.872  20.124  0.00  0.00    +0.000 OA
ATOM     22  H   UNL     1       1.426   4.015  20.594  0.00  0.00    +0.000 HD
ENDBRANCH  20  21
ENDBRANCH  19  20
ENDBRANCH  18  19
ENDBRANCH  16  18
ENDBRANCH  10  14
BRANCH   1  23
ATOM     23  C   UNL     1      -0.711  15.677  19.024  0.00  0.00    +0.000 C 
BRANCH  23  25
ATOM     24  C   UNL     1      -1.672  17.463  20.492  0.00  0.00    +0.000 C 
ATOM     25  C   UNL     1      -1.150  16.023  20.458  0.00  0.00    +0.000 C 
ATOM     26  C   UNL     1      -2.225  15.082  20.999  0.00  0.00    +0.000 C 
ENDBRANCH  23  25
ENDBRANCH   1  23
BRANCH  11  27
ATOM     27  C   UNL     1      -1.360  10.714  19.308  0.00  0.00    +0.000 C 
BRANCH  27  28
ATOM     28  C   UNL     1      -2.389  10.703  18.185  0.00  0.00    +0.000 A 
ATOM     29  C   UNL     1      -2.062   9.989  17.018  0.00  0.00    +0.000 A 
ATOM     30  C   UNL     1      -2.838  10.076  15.871  0.00  0.00    +0.000 A 
ATOM     31  C   UNL     1      -3.984  10.859  15.876  0.00  0.00    +0.000 A 
ATOM     32  C   UNL     1      -4.398  11.507  17.045  0.00  0.00    +0.000 A 
ATOM     33  C   UNL     1      -5.593  12.246  17.028  0.00  0.00    +0.000 A 
ATOM     34  C   UNL     1      -6.068  12.863  18.180  0.00  0.00    +0.000 A 
ATOM     35  C   UNL     1      -5.353  12.751  19.363  0.00  0.00    +0.000 A 
ATOM     36  C   UNL     1      -4.142  12.051  19.385  0.00  0.00    +0.000 A 
ATOM     37  C   UNL     1      -3.619  11.424  18.229  0.00  0.00    +0.000 A 
ENDBRANCH  27  28
ENDBRANCH  11  27
TORSDOF 9
ENDMDL
MODEL 2
REMARK VINA RESULT:      -6.8      3.364      7.772
REMARK  Name = 
REMARK  13 active torsions:
REMARK  status: ('A' for Active; 'I' for Inactive)
REMARK    1  A    between atoms: C_1  and  C_2
REMARK    2  A    between atoms: C_2  and  C_3
REMARK    3  A    between atoms: C_2  and  C_4
REMARK    4  A    between atoms: C_4  and  N_5
REMARK    5  A    between atoms: N_8  and  C_9
REMARK    6  A    between atoms: C_14  and  C_15
REMARK    7  A    between atoms: N_17  and  C_18
REMARK    8  A    between atoms: N_17  and  C_19
REMARK    9  A    between atoms: C_19  and  C_20
REMARK   10  A    between atoms: C_20  and  C_21
REMARK   11  A    between atoms: C_21  and  O_22
REMARK   12  A    between atoms: C_23  and  C_24
REMARK   13  A    between atoms: C_24  and  C_25
REMARK                            x       y       z     vdW  Elec       q    Type
REMARK                         _______ _______ _______ _____ _____    ______ ____
ROOT
ATOM      1  N   UNL     1      -4.187  11.754  18.638  0.00  0.00    +0.000 N 
ATOM      2  C   UNL     1      -5.543  11.485  18.801  0.00  0.00    +0.000 A 
ATOM      3  O   UNL     1      -6.218  11.004  17.890  0.00  0.00    +0.000 OA
ATOM      4  N   UNL     1      -6.095  11.797  20.038  0.00  0.00    +0.000 N 
ATOM      5  C   UNL     1      -7.502  11.542  20.279  0.00  0.00    +0.000 C 
ATOM      6  C   UNL     1      -5.399  12.369  21.095  0.00  0.00    +0.000 A 
ATOM      7  O   UNL     1      -5.904  12.608  22.191  0.00  0.00    +0.000 OA
ATOM      8  C   UNL     1      -3.985  12.670  20.858  0.00  0.00    +0.000 A 
ATOM      9  N   UNL     1      -3.318  13.283  21.858  0.00  0.00    +0.000 NA
ATOM     10  C   UNL     1      -1.991  13.504  21.693  0.00  0.00    +0.000 A 
ATOM     11  C   UNL     1      -1.348  13.112  20.511  0.00  0.00    +0.000 A 
ATOM     12  N   UNL     1      -2.069  12.511  19.496  0.00  0.00    +0.000 NA
ATOM     13  C   UNL     1      -3.402  12.311  19.668  0.00  0.00    +0.000 A 
ENDROOT
BRANCH  10  14
ATOM     14  C   UNL     1      -1.372  14.279  22.833  0.00  0.00    +0.000 C 
ATOM     15  O   UNL     1      -0.933  13.680  23.812  0.00  0.00    +0.000 OA
ATOM     16  N   UNL     1      -1.210  15.676  22.733  0.00  0.00    +0.000 N 
ATOM     17  C   UNL     1      -1.955  16.532  21.813  0.00  0.00    +0.000 C 
BRANCH  16  18
ATOM     18  C   UNL     1      -0.055  16.279  23.396  0.00  0.00    +0.000 C 
BRANCH  18  19
ATOM     19  C   UNL     1       0.975  16.883  22.449  0.00  0.00    +0.000 C 
BRANCH  19  20
ATOM     20  C   UNL     1       2.276  16.097  22.411  0.00  0.00    +0.000 C 
BRANCH  20  21
ATOM     21  O   UNL     1       2.544  15.696  21.070  0.00  0.00    +0.000 OA
ATOM     22  H   UNL     1       2.437  16.479  20.503  0.00  0.00    +0.000 HD
ENDBRANCH  20  21
ENDBRANCH  19  20
ENDBRANCH  18  19
ENDBRANCH  16  18
ENDBRANCH  10  14
BRANCH   1  23
ATOM     23  C   UNL     1      -3.575  11.564  17.322  0.00  0.00    +0.000 C 
BRANCH  23  25
ATOM     24  C   UNL     1      -3.240   9.831  15.546  0.00  0.00    +0.000 C 
ATOM     25  C   UNL     1      -3.085  10.132  17.041  0.00  0.00    +0.000 C 
ATOM     26  C   UNL     1      -1.632   9.904  17.456  0.00  0.00    +0.000 C 
ENDBRANCH  23  25
ENDBRANCH   1  23
BRANCH  11  27
ATOM     27  C   UNL     1       0.137  13.264  20.231  0.00  0.00    +0.000 C 
BRANCH  27  28
ATOM     28  C   UNL     1       0.820  11.984  19.769  0.00  0.00    +0.000 A 
ATOM     29  C   UNL     1       1.497  12.021  18.538  0.00  0.00    +0.000 A 
ATOM     30  C   UNL     1       1.983  10.868  17.939  0.00  0.00    +0.000 A 
ATOM     31  C   UNL     1       1.830   9.646  18.580  0.00  0.00    +0.000 A 
ATOM     32  C   UNL     1       1.251   9.578  19.852  0.00  0.00    +0.000 A 
ATOM     33  C   UNL     1       1.163   8.331  20.494  0.00  0.00    +0.000 A 
ATOM     34  C   UNL     1       0.641   8.224  21.779  0.00  0.00    +0.000 A 
ATOM     35  C   UNL     1       0.199   9.363  22.436  0.00  0.00    +0.000 A 
ATOM     36  C   UNL     1       0.245  10.604  21.793  0.00  0.00    +0.000 A 
ATOM     37  C   UNL     1       0.754  10.749  20.481  0.00  0.00    +0.000 A 
ENDBRANCH  27  28
ENDBRANCH  11  27
TORSDOF 9
ENDMDL
MODEL 3
REMARK VINA RESULT:      -6.8      3.732      8.079
REMARK  Name = 
REMARK  13 active torsions:
REMARK  status: ('A' for Active; 'I' for Inactive)
REMARK    1  A    between atoms: C_1  and  C_2
REMARK    2  A    between atoms: C_2  and  C_3
REMARK    3  A    between atoms: C_2  and  C_4
REMARK    4  A    between atoms: C_4  and  N_5
REMARK    5  A    between atoms: N_8  and  C_9
REMARK    6  A    between atoms: C_14  and  C_15
REMARK    7  A    between atoms: N_17  and  C_18
REMARK    8  A    between atoms: N_17  and  C_19
REMARK    9  A    between atoms: C_19  and  C_20
REMARK   10  A    between atoms: C_20  and  C_21
REMARK   11  A    between atoms: C_21  and  O_22
REMARK   12  A    between atoms: C_23  and  C_24
REMARK   13  A    between atoms: C_24  and  C_25
REMARK                            x       y       z     vdW  Elec       q    Type
REMARK                         _______ _______ _______ _____ _____    ______ ____
ROOT
ATOM      1  N   UNL     1      -4.206  11.721  18.623  0.00  0.00    +0.000 N 
ATOM      2  C   UNL     1      -5.559  11.421  18.757  0.00  0.00    +0.000 A 
ATOM      3  O   UNL     1      -6.209  10.947  17.825  0.00  0.00    +0.000 OA
ATOM      4  N   UNL     1      -6.137  11.693  19.992  0.00  0.00    +0.000 N 
ATOM      5  C   UNL     1      -7.542  11.405  20.204  0.00  0.00    +0.000 C 
ATOM      6  C   UNL     1      -5.470  12.255  21.073  0.00  0.00    +0.000 A 
ATOM      7  O   UNL     1      -5.997  12.460  22.165  0.00  0.00    +0.000 OA
ATOM      8  C   UNL     1      -4.058  12.590  20.865  0.00  0.00    +0.000 A 
ATOM      9  N   UNL     1      -3.420  13.194  21.890  0.00  0.00    +0.000 NA
ATOM     10  C   UNL     1      -2.096  13.445  21.752  0.00  0.00    +0.000 A 
ATOM     11  C   UNL     1      -1.426  13.092  20.572  0.00  0.00    +0.000 A 
ATOM     12  N   UNL     1      -2.118  12.500  19.533  0.00  0.00    +0.000 NA
ATOM     13  C   UNL     1      -3.449  12.270  19.678  0.00  0.00    +0.000 A 
ENDROOT
BRANCH  10  14
ATOM     14  C   UNL     1      -1.510  14.206  22.919  0.00  0.00    +0.000 C 
ATOM     15  O   UNL     1      -0.918  13.600  23.809  0.00  0.00    +0.000 OA
ATOM     16  N   UNL     1      -1.560  15.615  22.941  0.00  0.00    +0.000 N 
ATOM     17  C   UNL     1      -2.488  16.423  22.154  0.00  0.00    +0.000 C 
BRANCH  16  18
ATOM     18  C   UNL     1      -0.458  16.327  23.585  0.00  0.00    +0.000 C 
BRANCH  18  19
ATOM     19  C   UNL     1      -0.886  17.499  24.461  0.00  0.00    +0.000 C 
BRANCH  19  20
ATOM     20  C   UNL     1      -0.232  17.481  25.833  0.00  0.00    +0.000 C 
BRANCH  20  21
ATOM     21  O   UNL     1       0.670  16.380  25.910  0.00  0.00    +0.000 OA
ATOM     22  H   UNL     1       0.138  15.571  26.000  0.00  0.00    +0.000 HD
ENDBRANCH  20  21
ENDBRANCH  19  20
ENDBRANCH  18  19
ENDBRANCH  16  18
ENDBRANCH  10  14
BRANCH   1  23
ATOM     23  C   UNL     1      -3.569  11.573  17.313  0.00  0.00    +0.000 C 
BRANCH  23  25
ATOM     24  C   UNL     1      -3.176   9.902  15.490  0.00  0.00    +0.000 C 
ATOM     25  C   UNL     1      -3.067  10.152  16.998  0.00  0.00    +0.000 C 
ATOM     26  C   UNL     1      -1.627   9.911  17.448  0.00  0.00    +0.000 C 
ENDBRANCH  23  25
ENDBRANCH   1  23
BRANCH  11  27
ATOM     27  C   UNL     1       0.060  13.281  20.320  0.00  0.00    +0.000 C 
BRANCH  27  28
ATOM     28  C   UNL     1       0.767  12.039  19.794  0.00  0.00    +0.000 A 
ATOM     29  C   UNL     1       1.461  12.158  18.577  0.00  0.00    +0.000 A 
ATOM     30  C   UNL     1       1.971  11.048  17.918  0.00  0.00    +0.000 A 
ATOM     31  C   UNL     1       1.825   9.789  18.484  0.00  0.00    +0.000 A 
ATOM     32  C   UNL     1       1.229   9.638  19.741  0.00  0.00    +0.000 A 
ATOM     33  C   UNL     1       1.149   8.354  20.307  0.00  0.00    +0.000 A 
ATOM     34  C   UNL     1       0.611   8.165  21.575  0.00  0.00    +0.000 A 
ATOM     35  C   UNL     1       0.144   9.257  22.292  0.00  0.00    +0.000 A 
ATOM     36  C   UNL     1       0.183  10.535  21.724  0.00  0.00    +0.000 A 
ATOM     37  C   UNL     1       0.707  10.764  20.431  0.00  0.00    +0.000 A 
ENDBRANCH  27  28
ENDBRANCH  11  27
TORSDOF 9
ENDMDL
MODEL 4
REMARK VINA RESULT:      -6.8      2.915      7.491
REMARK  Name = 
REMARK  13 active torsions:
REMARK  status: ('A' for Active; 'I' for Inactive)
REMARK    1  A    between atoms: C_1  and  C_2
REMARK    2  A    between atoms: C_2  and  C_3
REMARK    3  A    between atoms: C_2  and  C_4
REMARK    4  A    between atoms: C_4  and  N_5
REMARK    5  A    between atoms: N_8  and  C_9
REMARK    6  A    between atoms: C_14  and  C_15
REMARK    7  A    between atoms: N_17  and  C_18
REMARK    8  A    between atoms: N_17  and  C_19
REMARK    9  A    between atoms: C_19  and  C_20
REMARK   10  A    between atoms: C_20  and  C_21
REMARK   11  A    between atoms: C_21  and  O_22
REMARK   12  A    between atoms: C_23  and  C_24
REMARK   13  A    between atoms: C_24  and  C_25
REMARK                            x       y       z     vdW  Elec       q    Type
REMARK                         _______ _______ _______ _____ _____    ______ ____
ROOT
ATOM      1  N   UNL     1      -4.673  12.722  20.374  0.00  0.00    +0.000 N 
ATOM      2  C   UNL     1      -5.616  13.443  21.100  0.00  0.00    +0.000 A 
ATOM      3  O   UNL     1      -6.823  13.223  20.986  0.00  0.00    +0.000 OA
ATOM      4  N   UNL     1      -5.128  14.427  21.951  0.00  0.00    +0.000 N 
ATOM      5  C   UNL     1      -6.054  15.217  22.739  0.00  0.00    +0.000 C 
ATOM      6  C   UNL     1      -3.785  14.748  22.104  0.00  0.00    +0.000 A 
ATOM      7  O   UNL     1      -3.376  15.604  22.886  0.00  0.00    +0.000 OA
ATOM      8  C   UNL     1      -2.836  13.987  21.287  0.00  0.00    +0.000 A 
ATOM      9  N   UNL     1      -1.536  14.334  21.383  0.00  0.00    +0.000 NA
ATOM     10  C   UNL     1      -0.629  13.597  20.697  0.00  0.00    +0.000 A 
ATOM     11  C   UNL     1      -1.046  12.518  19.906  0.00  0.00    +0.000 A 
ATOM     12  N   UNL     1      -2.390  12.208  19.809  0.00  0.00    +0.000 NA
ATOM     13  C   UNL     1      -3.289  12.966  20.489  0.00  0.00    +0.000 A 
ENDROOT
BRANCH  10  14
ATOM     14  C   UNL     1       0.778  14.135  20.804  0.00  0.00    +0.000 C 
ATOM     15  O   UNL     1       1.490  13.801  21.748  0.00  0.00    +0.000 OA
ATOM     16  N   UNL     1       1.308  14.943  19.776  0.00  0.00    +0.000 N 
ATOM     17  C   UNL     1       0.504  15.669  18.796  0.00  0.00    +0.000 C 
BRANCH  16  18
ATOM     18  C   UNL     1       2.742  14.849  19.504  0.00  0.00    +0.000 C 
BRANCH  18  19
ATOM     19  C   UNL     1       3.539  16.095  19.872  0.00  0.00    +0.000 C 
BRANCH  19  20
ATOM     20  C   UNL     1       4.338  16.651  18.705  0.00  0.00    +0.000 C 
BRANCH  20  21
ATOM     21  O   UNL     1       5.256  17.629  19.187  0.00  0.00    +0.000 OA
ATOM     22  H   UNL     1       5.357  17.490  20.144  0.00  0.00    +0.000 HD
ENDBRANCH  20  21
ENDBRANCH  19  20
ENDBRANCH  18  19
ENDBRANCH  16  18
ENDBRANCH  10  14
BRANCH   1  23
ATOM     23  C   UNL     1      -5.128  11.757  19.372  0.00  0.00    +0.000 C 
BRANCH  23  25
ATOM     24  C   UNL     1      -4.601  11.544  16.934  0.00  0.00    +0.000 C 
ATOM     25  C   UNL     1      -5.383  12.351  17.975  0.00  0.00    +0.000 C 
ATOM     26  C   UNL     1      -6.863  12.371  17.594  0.00  0.00    +0.000 C 
ENDBRANCH  23  25
ENDBRANCH   1  23
BRANCH  11  27
ATOM     27  C   UNL     1      -0.123  11.594  19.129  0.00  0.00    +0.000 C 
BRANCH  27  28
ATOM     28  C   UNL     1       0.215  10.297  19.853  0.00  0.00    +0.000 A 
ATOM     29  C   UNL     1      -0.312  10.123  21.145  0.00  0.00    +0.000 A 
ATOM     30  C   UNL     1       0.091   9.074  21.959  0.00  0.00    +0.000 A 
ATOM     31  C   UNL     1       1.011   8.151  21.482  0.00  0.00    +0.000 A 
ATOM     32  C   UNL     1       1.485   8.232  20.168  0.00  0.00    +0.000 A 
ATOM     33  C   UNL     1       2.374   7.247  19.703  0.00  0.00    +0.000 A 
ATOM     34  C   UNL     1       2.830   7.260  18.389  0.00  0.00    +0.000 A 
ATOM     35  C   UNL     1       2.403   8.259  17.525  0.00  0.00    +0.000 A 
ATOM     36  C   UNL     1       1.550   9.266  17.986  0.00  0.00    +0.000 A 
ATOM     37  C   UNL     1       1.079   9.295  19.320  0.00  0.00    +0.000 A 
ENDBRANCH  27  28
ENDBRANCH  11  27
TORSDOF 9
ENDMDL
MODEL 5
REMARK VINA RESULT:      -6.7      3.047      7.786
REMARK  Name = 
REMARK  13 active torsions:
REMARK  status: ('A' for Active; 'I' for Inactive)
REMARK    1  A    between atoms: C_1  and  C_2
REMARK    2  A    between atoms: C_2  and  C_3
REMARK    3  A    between atoms: C_2  and  C_4
REMARK    4  A    between atoms: C_4  and  N_5
REMARK    5  A    between atoms: N_8  and  C_9
REMARK    6  A    between atoms: C_14  and  C_15
REMARK    7  A    between atoms: N_17  and  C_18
REMARK    8  A    between atoms: N_17  and  C_19
REMARK    9  A    between atoms: C_19  and  C_20
REMARK   10  A    between atoms: C_20  and  C_21
REMARK   11  A    between atoms: C_21  and  O_22
REMARK   12  A    between atoms: C_23  and  C_24
REMARK   13  A    between atoms: C_24  and  C_25
REMARK                            x       y       z     vdW  Elec       q    Type
REMARK                         _______ _______ _______ _____ _____    ______ ____
ROOT
ATOM      1  N   UNL     1      -4.561  11.482  18.800  0.00  0.00    +0.000 N 
ATOM      2  C   UNL     1      -5.925  11.761  18.826  0.00  0.00    +0.000 A 
ATOM      3  O   UNL     1      -6.736  11.067  18.211  0.00  0.00    +0.000 OA
ATOM      4  N   UNL     1      -6.321  12.865  19.571  0.00  0.00    +0.000 N 
ATOM      5  C   UNL     1      -7.726  13.213  19.644  0.00  0.00    +0.000 C 
ATOM      6  C   UNL     1      -5.457  13.706  20.261  0.00  0.00    +0.000 A 
ATOM      7  O   UNL     1      -5.835  14.661  20.938  0.00  0.00    +0.000 OA
ATOM      8  C   UNL     1      -4.029  13.393  20.168  0.00  0.00    +0.000 A 
ATOM      9  N   UNL     1      -3.179  14.242  20.783  0.00  0.00    +0.000 NA
ATOM     10  C   UNL     1      -1.859  13.934  20.777  0.00  0.00    +0.000 A 
ATOM     11  C   UNL     1      -1.405  12.772  20.136  0.00  0.00    +0.000 A 
ATOM     12  N   UNL     1      -2.302  11.940  19.492  0.00  0.00    +0.000 NA
ATOM     13  C   UNL     1      -3.619  12.271  19.492  0.00  0.00    +0.000 A 
ENDROOT
BRANCH  10  14
ATOM     14  C   UNL     1      -0.997  15.000  21.411  0.00  0.00    +0.000 C 
ATOM     15  O   UNL     1      -0.868  15.036  22.632  0.00  0.00    +0.000 OA
ATOM     16  N   UNL     1      -0.265  15.893  20.601  0.00  0.00    +0.000 N 
ATOM     17  C   UNL     1      -0.565  16.175  19.200  0.00  0.00    +0.000 C 
BRANCH  16  18
ATOM     18  C   UNL     1       1.023  16.371  21.102  0.00  0.00    +0.000 C 
BRANCH  18  19
ATOM     19  C   UNL     1       2.135  15.329  21.086  0.00  0.00    +0.000 C 
BRANCH  19  20
ATOM     20  C   UNL     1       3.311  15.734  20.212  0.00  0.00    +0.000 C 
BRANCH  20  21
ATOM     21  O   UNL     1       2.888  15.798  18.853  0.00  0.00    +0.000 OA
ATOM     22  H   UNL     1       3.656  15.584  18.296  0.00  0.00    +0.000 HD
ENDBRANCH  20  21
ENDBRANCH  19  20
ENDBRANCH  18  19
ENDBRANCH  16  18
ENDBRANCH  10  14
BRANCH   1  23
ATOM     23  C   UNL     1      -4.068  10.409  17.935  0.00  0.00    +0.000 C 
BRANCH  23  25
ATOM     24  C   UNL     1      -1.905   9.944  16.764  0.00  0.00    +0.000 C 
ATOM     25  C   UNL     1      -3.125  10.870  16.810  0.00  0.00    +0.000 C 
ATOM     26  C   UNL     1      -3.796  10.891  15.437  0.00  0.00    +0.000 C 
ENDBRANCH  23  25
ENDBRANCH   1  23
BRANCH  11  27
ATOM     27  C   UNL     1       0.038  12.300  20.101  0.00  0.00    +0.000 C 
BRANCH  27  28
ATOM     28  C   UNL     1       0.243  10.878  20.608  0.00  0.00    +0.000 A 
ATOM     29  C   UNL     1      -0.224  10.581  21.901  0.00  0.00    +0.000 A 
ATOM     30  C   UNL     1       0.083   9.381  22.526  0.00  0.00    +0.000 A 
ATOM     31  C   UNL     1       0.841   8.432  21.855  0.00  0.00    +0.000 A 
ATOM     32  C   UNL     1       1.242   8.648  20.532  0.00  0.00    +0.000 A 
ATOM     33  C   UNL     1       1.961   7.641  19.865  0.00  0.00    +0.000 A 
ATOM     34  C   UNL     1       2.335   7.792  18.535  0.00  0.00    +0.000 A 
ATOM     35  C   UNL     1       1.996   8.952  17.854  0.00  0.00    +0.000 A 
ATOM     36  C   UNL     1       1.313   9.978  18.517  0.00  0.00    +0.000 A 
ATOM     37  C   UNL     1       0.931   9.867  19.874  0.00  0.00    +0.000 A 
ENDBRANCH  27  28
ENDBRANCH  11  27
TORSDOF 9
ENDMDL
MODEL 6
REMARK VINA RESULT:      -6.6      6.326     10.572
REMARK  Name = 
REMARK  13 active torsions:
REMARK  status: ('A' for Active; 'I' for Inactive)
REMARK    1  A    between atoms: C_1  and  C_2
REMARK    2  A    between atoms: C_2  and  C_3
REMARK    3  A    between atoms: C_2  and  C_4
REMARK    4  A    between atoms: C_4  and  N_5
REMARK    5  A    between atoms: N_8  and  C_9
REMARK    6  A    between atoms: C_14  and  C_15
REMARK    7  A    between atoms: N_17  and  C_18
REMARK    8  A    between atoms: N_17  and  C_19
REMARK    9  A    between atoms: C_19  and  C_20
REMARK   10  A    between atoms: C_20  and  C_21
REMARK   11  A    between atoms: C_21  and  O_22
REMARK   12  A    between atoms: C_23  and  C_24
REMARK   13  A    between atoms: C_24  and  C_25
REMARK                            x       y       z     vdW  Elec       q    Type
REMARK                         _______ _______ _______ _____ _____    ______ ____
ROOT
ATOM      1  N   UNL     1       5.598  15.764  19.798  0.00  0.00    +0.000 N 
ATOM      2  C   UNL     1       4.365  16.058  19.225  0.00  0.00    +0.000 A 
ATOM      3  O   UNL     1       4.271  16.788  18.237  0.00  0.00    +0.000 OA
ATOM      4  N   UNL     1       3.247  15.493  19.829  0.00  0.00    +0.000 N 
ATOM      5  C   UNL     1       1.929  15.755  19.283  0.00  0.00    +0.000 C 
ATOM      6  C   UNL     1       3.279  14.688  20.960  0.00  0.00    +0.000 A 
ATOM      7  O   UNL     1       2.278  14.177  21.459  0.00  0.00    +0.000 OA
ATOM      8  C   UNL     1       4.599  14.444  21.549  0.00  0.00    +0.000 A 
ATOM      9  N   UNL     1       4.633  13.715  22.684  0.00  0.00    +0.000 NA
ATOM     10  C   UNL     1       5.845  13.410  23.206  0.00  0.00    +0.000 A 
ATOM     11  C   UNL     1       7.019  13.855  22.582  0.00  0.00    +0.000 A 
ATOM     12  N   UNL     1       6.945  14.624  21.435  0.00  0.00    +0.000 NA
ATOM     13  C   UNL     1       5.722  14.936  20.933  0.00  0.00    +0.000 A 
ENDROOT
BRANCH  10  14
ATOM     14  C   UNL     1       5.757  12.674  24.523  0.00  0.00    +0.000 C 
ATOM     15  O   UNL     1       5.743  11.446  24.538  0.00  0.00    +0.000 OA
ATOM     16  N   UNL     1       5.787  13.391  25.738  0.00  0.00    +0.000 N 
ATOM     17  C   UNL     1       5.476  14.812  25.868  0.00  0.00    +0.000 C 
BRANCH  16  18
ATOM     18  C   UNL     1       6.412  12.750  26.894  0.00  0.00    +0.000 C 
BRANCH  18  19
ATOM     19  C   UNL     1       7.914  12.980  27.009  0.00  0.00    +0.000 C 
BRANCH  19  20
ATOM     20  C   UNL     1       8.287  13.882  28.174  0.00  0.00    +0.000 C 
BRANCH  20  21
ATOM     21  O   UNL     1       8.525  15.201  27.691  0.00  0.00    +0.000 OA
ATOM     22  H   UNL     1       9.048  15.670  28.363  0.00  0.00    +0.000 HD
ENDBRANCH  20  21
ENDBRANCH  19  20
ENDBRANCH  18  19
ENDBRANCH  16  18
ENDBRANCH  10  14
BRANCH   1  23
ATOM     23  C   UNL     1       6.799  16.425  19.285  0.00  0.00    +0.000 C 
BRANCH  23  25
ATOM     24  C   UNL     1       8.832  16.298  17.828  0.00  0.00    +0.000 C 
ATOM     25  C   UNL     1       7.407  15.772  18.030  0.00  0.00    +0.000 C 
ATOM     26  C   UNL     1       7.437  14.246  18.103  0.00  0.00    +0.000 C 
ENDBRANCH  23  25
ENDBRANCH   1  23
BRANCH  11  27
ATOM     27  C   UNL     1       8.430  13.540  23.047  0.00  0.00    +0.000 C 
BRANCH  27  28
ATOM     28  C   UNL     1       9.509  13.839  22.014  0.00  0.00    +0.000 A 
ATOM     29  C   UNL     1      10.172  15.075  22.113  0.00  0.00    +0.000 A 
ATOM     30  C   UNL     1      11.027  15.524  21.116  0.00  0.00    +0.000 A 
ATOM     31  C   UNL     1      11.264  14.725  20.006  0.00  0.00    +0.000 A 
ATOM     32  C   UNL     1      10.701  13.447  19.915  0.00  0.00    +0.000 A 
ATOM     33  C   UNL     1      11.008  12.645  18.802  0.00  0.00    +0.000 A 
ATOM     34  C   UNL     1      10.513  11.351  18.696  0.00  0.00    +0.000 A 
ATOM     35  C   UNL     1       9.702  10.842  19.701  0.00  0.00    +0.000 A 
ATOM     36  C   UNL     1       9.358  11.643  20.795  0.00  0.00    +0.000 A 
ATOM     37  C   UNL     1       9.830  12.970  20.929  0.00  0.00    +0.000 A 
ENDBRANCH  27  28
ENDBRANCH  11  27
TORSDOF 9
ENDMDL
MODEL 7
REMARK VINA RESULT:      -6.6      3.750      7.484
REMARK  Name = 
REMARK  13 active torsions:
REMARK  status: ('A' for Active; 'I' for Inactive)
REMARK    1  A    between atoms: C_1  and  C_2
REMARK    2  A    between atoms: C_2  and  C_3
REMARK    3  A    between atoms: C_2  and  C_4
REMARK    4  A    between atoms: C_4  and  N_5
REMARK    5  A    between atoms: N_8  and  C_9
REMARK    6  A    between atoms: C_14  and  C_15
REMARK    7  A    between atoms: N_17  and  C_18
REMARK    8  A    between atoms: N_17  and  C_19
REMARK    9  A    between atoms: C_19  and  C_20
REMARK   10  A    between atoms: C_20  and  C_21
REMARK   11  A    between atoms: C_21  and  O_22
REMARK   12  A    between atoms: C_23  and  C_24
REMARK   13  A    between atoms: C_24  and  C_25
REMARK                            x       y       z     vdW  Elec       q    Type
REMARK                         _______ _______ _______ _____ _____    ______ ____
ROOT
ATOM      1  N   UNL     1      -1.228  11.265  19.003  0.00  0.00    +0.000 N 
ATOM      2  C   UNL     1      -0.265  10.260  19.039  0.00  0.00    +0.000 A 
ATOM      3  O   UNL     1       0.023   9.608  18.034  0.00  0.00    +0.000 OA
ATOM      4  N   UNL     1       0.344  10.025  20.266  0.00  0.00    +0.000 N 
ATOM      5  C   UNL     1       1.357   8.994  20.377  0.00  0.00    +0.000 C 
ATOM      6  C   UNL     1       0.044  10.700  21.442  0.00  0.00    +0.000 A 
ATOM      7  O   UNL     1       0.618  10.493  22.510  0.00  0.00    +0.000 OA
ATOM      8  C   UNL     1      -1.006  11.720  21.359  0.00  0.00    +0.000 A 
ATOM      9  N   UNL     1      -1.347  12.337  22.510  0.00  0.00    +0.000 NA
ATOM     10  C   UNL     1      -2.259  13.336  22.448  0.00  0.00    +0.000 A 
ATOM     11  C   UNL     1      -2.831  13.699  21.220  0.00  0.00    +0.000 A 
ATOM     12  N   UNL     1      -2.478  13.026  20.065  0.00  0.00    +0.000 NA
ATOM     13  C   UNL     1      -1.574  12.015  20.146  0.00  0.00    +0.000 A 
ENDROOT
BRANCH  10  14
ATOM     14  C   UNL     1      -2.632  13.886  23.805  0.00  0.00    +0.000 C 
ATOM     15  O   UNL     1      -3.400  13.259  24.529  0.00  0.00    +0.000 OA
ATOM     16  N   UNL     1      -2.027  15.069  24.280  0.00  0.00    +0.000 N 
ATOM     17  C   UNL     1      -1.375  16.063  23.431  0.00  0.00    +0.000 C 
BRANCH  16  18
ATOM     18  C   UNL     1      -1.804  15.191  25.719  0.00  0.00    +0.000 C 
BRANCH  18  19
ATOM     19  C   UNL     1      -1.324  16.565  26.171  0.00  0.00    +0.000 C 
BRANCH  19  20
ATOM     20  C   UNL     1      -0.218  16.492  27.211  0.00  0.00    +0.000 C 
BRANCH  20  21
ATOM     21  O   UNL     1       1.041  16.374  26.552  0.00  0.00    +0.000 OA
ATOM     22  H   UNL     1       1.131  15.453  26.255  0.00  0.00    +0.000 HD
ENDBRANCH  20  21
ENDBRANCH  19  20
ENDBRANCH  18  19
ENDBRANCH  16  18
ENDBRANCH  10  14
BRANCH   1  23
ATOM     23  C   UNL     1      -1.992  11.478  17.773  0.00  0.00    +0.000 C 
BRANCH  23  25
ATOM     24  C   UNL     1      -4.450  11.002  17.766  0.00  0.00    +0.000 C 
ATOM     25  C   UNL     1      -3.064  10.411  17.487  0.00  0.00    +0.000 C 
ATOM     26  C   UNL     1      -3.017   9.883  16.054  0.00  0.00    +0.000 C 
ENDBRANCH  23  25
ENDBRANCH   1  23
BRANCH  11  27
ATOM     27  C   UNL     1      -3.827  14.828  21.019  0.00  0.00    +0.000 C 
BRANCH  27  28
ATOM     28  C   UNL     1      -5.080  14.716  21.877  0.00  0.00    +0.000 A 
ATOM     29  C   UNL     1      -5.293  15.715  22.843  0.00  0.00    +0.000 A 
ATOM     30  C   UNL     1      -6.292  15.602  23.799  0.00  0.00    +0.000 A 
ATOM     31  C   UNL     1      -7.128  14.494  23.789  0.00  0.00    +0.000 A 
ATOM     32  C   UNL     1      -7.014  13.526  22.786  0.00  0.00    +0.000 A 
ATOM     33  C   UNL     1      -7.914  12.447  22.775  0.00  0.00    +0.000 A 
ATOM     34  C   UNL     1      -7.869  11.489  21.768  0.00  0.00    +0.000 A 
ATOM     35  C   UNL     1      -6.923  11.598  20.759  0.00  0.00    +0.000 A 
ATOM     36  C   UNL     1      -5.997  12.646  20.779  0.00  0.00    +0.000 A 
ATOM     37  C   UNL     1      -6.001  13.629  21.796  0.00  0.00    +0.000 A 
ENDBRANCH  27  28
ENDBRANCH  11  27
TORSDOF 9
ENDMDL
MODEL 8
REMARK VINA RESULT:      -6.5      3.933      7.749
REMARK  Name = 
REMARK  13 active torsions:
REMARK  status: ('A' for Active; 'I' for Inactive)
REMARK    1  A    between atoms: C_1  and  C_2
REMARK    2  A    between atoms: C_2  and  C_3
REMARK    3  A    between atoms: C_2  and  C_4
REMARK    4  A    between atoms: C_4  and  N_5
REMARK    5  A    between atoms: N_8  and  C_9
REMARK    6  A    between atoms: C_14  and  C_15
REMARK    7  A    between atoms: N_17  and  C_18
REMARK    8  A    between atoms: N_17  and  C_19
REMARK    9  A    between atoms: C_19  and  C_20
REMARK   10  A    between atoms: C_20  and  C_21
REMARK   11  A    between atoms: C_21  and  O_22
REMARK   12  A    between atoms: C_23  and  C_24
REMARK   13  A    between atoms: C_24  and  C_25
REMARK                            x       y       z     vdW  Elec       q    Type
REMARK                         _______ _______ _______ _____ _____    ______ ____
ROOT
ATOM      1  N   UNL     1      -1.609  11.577  19.509  0.00  0.00    +0.000 N 
ATOM      2  C   UNL     1      -0.610  10.686  19.891  0.00  0.00    +0.000 A 
ATOM      3  O   UNL     1       0.059  10.073  19.057  0.00  0.00    +0.000 OA
ATOM      4  N   UNL     1      -0.414  10.518  21.256  0.00  0.00    +0.000 N 
ATOM      5  C   UNL     1       0.612   9.606  21.726  0.00  0.00    +0.000 C 
ATOM      6  C   UNL     1      -1.152  11.152  22.247  0.00  0.00    +0.000 A 
ATOM      7  O   UNL     1      -0.940  11.008  23.450  0.00  0.00    +0.000 OA
ATOM      8  C   UNL     1      -2.219  12.048  21.793  0.00  0.00    +0.000 A 
ATOM      9  N   UNL     1      -2.981  12.620  22.748  0.00  0.00    +0.000 NA
ATOM     10  C   UNL     1      -3.924  13.511  22.359  0.00  0.00    +0.000 A 
ATOM     11  C   UNL     1      -4.099  13.811  21.000  0.00  0.00    +0.000 A 
ATOM     12  N   UNL     1      -3.318  13.185  20.047  0.00  0.00    +0.000 NA
ATOM     13  C   UNL     1      -2.388  12.281  20.451  0.00  0.00    +0.000 A 
ENDROOT
BRANCH  10  14
ATOM     14  C   UNL     1      -4.776  14.013  23.501  0.00  0.00    +0.000 C 
ATOM     15  O   UNL     1      -4.337  14.874  24.259  0.00  0.00    +0.000 OA
ATOM     16  N   UNL     1      -6.106  13.565  23.643  0.00  0.00    +0.000 N 
ATOM     17  C   UNL     1      -6.636  12.342  23.044  0.00  0.00    +0.000 C 
BRANCH  16  18
ATOM     18  C   UNL     1      -7.085  14.496  24.200  0.00  0.00    +0.000 C 
BRANCH  18  19
ATOM     19  C   UNL     1      -7.908  15.247  23.160  0.00  0.00    +0.000 C 
BRANCH  19  20
ATOM     20  C   UNL     1      -7.297  16.584  22.775  0.00  0.00    +0.000 C 
BRANCH  20  21
ATOM     21  O   UNL     1      -6.445  17.032  23.827  0.00  0.00    +0.000 OA
ATOM     22  H   UNL     1      -6.354  16.300  24.461  0.00  0.00    +0.000 HD
ENDBRANCH  20  21
ENDBRANCH  19  20
ENDBRANCH  18  19
ENDBRANCH  16  18
ENDBRANCH  10  14
BRANCH   1  23
ATOM     23  C   UNL     1      -1.947  11.706  18.091  0.00  0.00    +0.000 C 
BRANCH  23  25
ATOM     24  C   UNL     1      -4.117  10.486  17.826  0.00  0.00    +0.000 C 
ATOM     25  C   UNL     1      -2.626  10.469  17.475  0.00  0.00    +0.000 C 
ATOM     26  C   UNL     1      -2.463  10.390  15.958  0.00  0.00    +0.000 C 
ENDBRANCH  23  25
ENDBRANCH   1  23
BRANCH  11  27
ATOM     27  C   UNL     1      -5.088  14.822  20.448  0.00  0.00    +0.000 C 
BRANCH  27  28
ATOM     28  C   UNL     1      -6.059  14.250  19.423  0.00  0.00    +0.000 A 
ATOM     29  C   UNL     1      -6.416  12.897  19.557  0.00  0.00    +0.000 A 
ATOM     30  C   UNL     1      -7.134  12.233  18.572  0.00  0.00    +0.000 A 
ATOM     31  C   UNL     1      -7.542  12.922  17.439  0.00  0.00    +0.000 A 
ATOM     32  C   UNL     1      -7.293  14.293  17.312  0.00  0.00    +0.000 A 
ATOM     33  C   UNL     1      -7.770  14.970  16.176  0.00  0.00    +0.000 A 
ATOM     34  C   UNL     1      -7.589  16.341  16.033  0.00  0.00    +0.000 A 
ATOM     35  C   UNL     1      -6.929  17.053  17.024  0.00  0.00    +0.000 A 
ATOM     36  C   UNL     1      -6.416  16.386  18.141  0.00  0.00    +0.000 A 
ATOM     37  C   UNL     1      -6.565  14.990  18.312  0.00  0.00    +0.000 A 
ENDBRANCH  27  28
ENDBRANCH  11  27
TORSDOF 9
ENDMDL
MODEL 9
REMARK VINA RESULT:      -6.5      4.028      8.394
REMARK  Name = 
REMARK  13 active torsions:
REMARK  status: ('A' for Active; 'I' for Inactive)
REMARK    1  A    between atoms: C_1  and  C_2
REMARK    2  A    between atoms: C_2  and  C_3
REMARK    3  A    between atoms: C_2  and  C_4
REMARK    4  A    between atoms: C_4  and  N_5
REMARK    5  A    between atoms: N_8  and  C_9
REMARK    6  A    between atoms: C_14  and  C_15
REMARK    7  A    between atoms: N_17  and  C_18
REMARK    8  A    between atoms: N_17  and  C_19
REMARK    9  A    between atoms: C_19  and  C_20
REMARK   10  A    between atoms: C_20  and  C_21
REMARK   11  A    between atoms: C_21  and  O_22
REMARK   12  A    between atoms: C_23  and  C_24
REMARK   13  A    between atoms: C_24  and  C_25
REMARK                            x       y       z     vdW  Elec       q    Type
REMARK                         _______ _______ _______ _____ _____    ______ ____
ROOT
ATOM      1  N   UNL     1      -4.380  12.147  18.228  0.00  0.00    +0.000 N 
ATOM      2  C   UNL     1      -5.745  12.300  18.004  0.00  0.00    +0.000 A 
ATOM      3  O   UNL     1      -6.264  11.971  16.937  0.00  0.00    +0.000 OA
ATOM      4  N   UNL     1      -6.488  12.852  19.042  0.00  0.00    +0.000 N 
ATOM      5  C   UNL     1      -7.916  13.040  18.879  0.00  0.00    +0.000 C 
ATOM      6  C   UNL     1      -5.961  13.273  20.257  0.00  0.00    +0.000 A 
ATOM      7  O   UNL     1      -6.644  13.732  21.170  0.00  0.00    +0.000 OA
ATOM      8  C   UNL     1      -4.513  13.128  20.425  0.00  0.00    +0.000 A 
ATOM      9  N   UNL     1      -3.985  13.591  21.577  0.00  0.00    +0.000 NA
ATOM     10  C   UNL     1      -2.661  13.400  21.790  0.00  0.00    +0.000 A 
ATOM     11  C   UNL     1      -1.874  12.748  20.830  0.00  0.00    +0.000 A 
ATOM     12  N   UNL     1      -2.444  12.311  19.649  0.00  0.00    +0.000 NA
ATOM     13  C   UNL     1      -3.769  12.525  19.441  0.00  0.00    +0.000 A 
ENDROOT
BRANCH  10  14
ATOM     14  C   UNL     1      -2.165  14.042  23.065  0.00  0.00    +0.000 C 
ATOM     15  O   UNL     1      -1.182  14.778  23.036  0.00  0.00    +0.000 OA
ATOM     16  N   UNL     1      -2.884  13.876  24.267  0.00  0.00    +0.000 N 
ATOM     17  C   UNL     1      -3.843  12.803  24.517  0.00  0.00    +0.000 C 
BRANCH  16  18
ATOM     18  C   UNL     1      -2.872  14.978  25.228  0.00  0.00    +0.000 C 
BRANCH  18  19
ATOM     19  C   UNL     1      -3.838  16.112  24.903  0.00  0.00    +0.000 C 
BRANCH  19  20
ATOM     20  C   UNL     1      -3.150  17.464  24.804  0.00  0.00    +0.000 C 
BRANCH  20  21
ATOM     21  O   UNL     1      -4.095  18.442  24.378  0.00  0.00    +0.000 OA
ATOM     22  H   UNL     1      -4.187  19.093  25.096  0.00  0.00    +0.000 HD
ENDBRANCH  20  21
ENDBRANCH  19  20
ENDBRANCH  18  19
ENDBRANCH  16  18
ENDBRANCH  10  14
BRANCH   1  23
ATOM     23  C   UNL     1      -3.525  11.686  17.132  0.00  0.00    +0.000 C 
BRANCH  23  25
ATOM     24  C   UNL     1      -3.089   9.782  15.566  0.00  0.00    +0.000 C 
ATOM     25  C   UNL     1      -3.387  10.157  17.022  0.00  0.00    +0.000 C 
ATOM     26  C   UNL     1      -2.296   9.587  17.926  0.00  0.00    +0.000 C 
ENDBRANCH  23  25
ENDBRANCH   1  23
BRANCH  11  27
ATOM     27  C   UNL     1      -0.395  12.437  20.976  0.00  0.00    +0.000 C 
BRANCH  27  28
ATOM     28  C   UNL     1      -0.081  10.954  21.127  0.00  0.00    +0.000 A 
ATOM     29  C   UNL     1      -0.481  10.329  22.322  0.00  0.00    +0.000 A 
ATOM     30  C   UNL     1      -0.075   9.040  22.639  0.00  0.00    +0.000 A 
ATOM     31  C   UNL     1       0.719   8.332  21.747  0.00  0.00    +0.000 A 
ATOM     32  C   UNL     1       1.056   8.881  20.505  0.00  0.00    +0.000 A 
ATOM     33  C   UNL     1       1.814   8.113  19.605  0.00  0.00    +0.000 A 
ATOM     34  C   UNL     1       2.129   8.598  18.340  0.00  0.00    +0.000 A 
ATOM     35  C   UNL     1       1.691   9.859  17.961  0.00  0.00    +0.000 A 
ATOM     36  C   UNL     1       0.969  10.649  18.862  0.00  0.00    +0.000 A 
ATOM     37  C   UNL     1       0.644  10.195  20.161  0.00  0.00    +0.000 A 
ENDBRANCH  27  28
ENDBRANCH  11  27
TORSDOF 9
ENDMDL
