MODEL 1
REMARK VINA RESULT:      -7.5      0.000      0.000
REMARK  Name = 
REMARK  5 active torsions:
REMARK  status: ('A' for Active; 'I' for Inactive)
REMARK    1  A    between atoms: C_1  and  C_2
REMARK    2  A    between atoms: C_2  and  C_3
REMARK    3  A    between atoms: C_10  and  O_11
REMARK    4  A    between atoms: C_13  and  S_14
REMARK    5  A    between atoms: S_14  and  C_15
REMARK                            x       y       z     vdW  Elec       q    Type
REMARK                         _______ _______ _______ _____ _____    ______ ____
ROOT
ATOM      1  C   UNL     1       2.738   6.631  18.569  0.00  0.00    +0.000 A 
ATOM      2  N   UNL     1       1.935   6.272  19.629  0.00  0.00    +0.000 N 
ATOM      3  C   UNL     1       2.264   5.018  20.062  0.00  0.00    +0.000 A 
ATOM      4  N   UNL     1       1.634   4.364  21.050  0.00  0.00    +0.000 NA
ATOM      5  C   UNL     1       2.141   3.144  21.268  0.00  0.00    +0.000 A 
ATOM      6  N   UNL     1       1.517   2.372  22.228  0.00  0.00    +0.000 N 
ATOM      7  N   UNL     1       3.211   2.604  20.666  0.00  0.00    +0.000 NA
ATOM      8  C   UNL     1       3.798   3.311  19.688  0.00  0.00    +0.000 A 
ATOM      9  C   UNL     1       3.331   4.562  19.311  0.00  0.00    +0.000 A 
ATOM     10  C   UNL     1       3.600   5.567  18.340  0.00  0.00    +0.000 A 
ATOM     11  H   UNL     1       1.185   6.821  20.023  0.00  0.00    +0.000 HD
ATOM     12  H   UNL     1       1.016   2.959  22.880  0.00  0.00    +0.000 HD
ATOM     13  H   UNL     1       2.157   1.688  22.605  0.00  0.00    +0.000 HD
ENDROOT
BRANCH   1  15
ATOM     14  C   UNL     1       1.567   8.836  18.615  0.00  0.00    +0.000 C 
ATOM     15  C   UNL     1       2.563   7.947  17.887  0.00  0.00    +0.000 C 
ENDBRANCH   1  15
BRANCH   8  16
ATOM     16  O   UNL     1       4.893   2.710  19.139  0.00  0.00    +0.000 OA
ATOM     17  H   UNL     1       4.872   3.092  18.243  0.00  0.00    +0.000 HD
ENDBRANCH   8  16
BRANCH  10  18
ATOM     18  S   UNL     1       4.729   5.425  17.006  0.00  0.00    +0.000 S 
BRANCH  18  19
ATOM     19  C   UNL     1       6.221   6.141  17.665  0.00  0.00    +0.000 A 
ATOM     20  C   UNL     1       7.004   5.406  18.564  0.00  0.00    +0.000 A 
ATOM     21  C   UNL     1       8.153   5.968  19.127  0.00  0.00    +0.000 A 
ATOM     22  C   UNL     1       8.520   7.272  18.797  0.00  0.00    +0.000 A 
ATOM     23  C   UNL     1       7.732   8.009  17.915  0.00  0.00    +0.000 A 
ATOM     24 CL   UNL     1       8.175   9.625  17.523  0.00  0.00    +0.000 Cl
ATOM     25  C   UNL     1       6.584   7.452  17.353  0.00  0.00    +0.000 A 
ENDBRANCH  18  19
ENDBRANCH  10  18
TORSDOF 4
ENDMDL
MODEL 2
REMARK VINA RESULT:      -7.3      4.116      6.261
REMARK  Name = 
REMARK  5 active torsions:
REMARK  status: ('A' for Active; 'I' for Inactive)
REMARK    1  A    between atoms: C_1  and  C_2
REMARK    2  A    between atoms: C_2  and  C_3
REMARK    3  A    between atoms: C_10  and  O_11
REMARK    4  A    between atoms: C_13  and  S_14
REMARK    5  A    between atoms: S_14  and  C_15
REMARK                            x       y       z     vdW  Elec       q    Type
REMARK                         _______ _______ _______ _____ _____    ______ ____
ROOT
ATOM      1  C   UNL     1       5.714   4.471  15.006  0.00  0.00    +0.000 A 
ATOM      2  N   UNL     1       6.598   5.522  15.111  0.00  0.00    +0.000 N 
ATOM      3  C   UNL     1       6.876   5.772  16.425  0.00  0.00    +0.000 A 
ATOM      4  N   UNL     1       7.666   6.765  16.861  0.00  0.00    +0.000 NA
ATOM      5  C   UNL     1       7.761   6.802  18.196  0.00  0.00    +0.000 A 
ATOM      6  N   UNL     1       8.508   7.828  18.739  0.00  0.00    +0.000 N 
ATOM      7  N   UNL     1       7.224   5.928  19.061  0.00  0.00    +0.000 NA
ATOM      8  C   UNL     1       6.445   4.956  18.560  0.00  0.00    +0.000 A 
ATOM      9  C   UNL     1       6.204   4.843  17.198  0.00  0.00    +0.000 A 
ATOM     10  C   UNL     1       5.437   4.049  16.300  0.00  0.00    +0.000 A 
ATOM     11  H   UNL     1       6.972   6.065  14.347  0.00  0.00    +0.000 HD
ATOM     12  H   UNL     1       9.173   8.175  18.063  0.00  0.00    +0.000 HD
ATOM     13  H   UNL     1       8.855   7.570  19.652  0.00  0.00    +0.000 HD
ENDROOT
BRANCH   1  15
ATOM     14  C   UNL     1       6.362   3.610  12.753  0.00  0.00    +0.000 C 
ATOM     15  C   UNL     1       5.221   4.014  13.674  0.00  0.00    +0.000 C 
ENDBRANCH   1  15
BRANCH   8  16
ATOM     16  O   UNL     1       5.954   4.091  19.495  0.00  0.00    +0.000 OA
ATOM     17  H   UNL     1       5.242   3.666  18.982  0.00  0.00    +0.000 HD
ENDBRANCH   8  16
BRANCH  10  18
ATOM     18  S   UNL     1       4.250   2.843  16.759  0.00  0.00    +0.000 S 
BRANCH  18  19
ATOM     19  C   UNL     1       3.239   3.707  17.943  0.00  0.00    +0.000 A 
ATOM     20  C   UNL     1       2.960   5.068  17.756  0.00  0.00    +0.000 A 
ATOM     21  C   UNL     1       2.207   5.773  18.698  0.00  0.00    +0.000 A 
ATOM     22  C   UNL     1       1.735   5.122  19.837  0.00  0.00    +0.000 A 
ATOM     23  C   UNL     1       2.025   3.773  20.032  0.00  0.00    +0.000 A 
ATOM     24 CL   UNL     1       1.458   2.975  21.447  0.00  0.00    +0.000 Cl
ATOM     25  C   UNL     1       2.778   3.065  19.095  0.00  0.00    +0.000 A 
ENDBRANCH  18  19
ENDBRANCH  10  18
TORSDOF 4
ENDMDL
MODEL 3
REMARK VINA RESULT:      -7.3      3.584      5.605
REMARK  Name = 
REMARK  5 active torsions:
REMARK  status: ('A' for Active; 'I' for Inactive)
REMARK    1  A    between atoms: C_1  and  C_2
REMARK    2  A    between atoms: C_2  and  C_3
REMARK    3  A    between atoms: C_10  and  O_11
REMARK    4  A    between atoms: C_13  and  S_14
REMARK    5  A    between atoms: S_14  and  C_15
REMARK                            x       y       z     vdW  Elec       q    Type
REMARK                         _______ _______ _______ _____ _____    ______ ____
ROOT
ATOM      1  C   UNL     1       2.571   3.976  17.935  0.00  0.00    +0.000 A 
ATOM      2  N   UNL     1       3.319   3.645  16.826  0.00  0.00    +0.000 N 
ATOM      3  C   UNL     1       4.600   4.099  16.974  0.00  0.00    +0.000 A 
ATOM      4  N   UNL     1       5.562   3.977  16.047  0.00  0.00    +0.000 NA
ATOM      5  C   UNL     1       6.724   4.520  16.433  0.00  0.00    +0.000 A 
ATOM      6  N   UNL     1       7.758   4.495  15.518  0.00  0.00    +0.000 N 
ATOM      7  N   UNL     1       6.994   5.065  17.629  0.00  0.00    +0.000 NA
ATOM      8  C   UNL     1       5.988   5.155  18.513  0.00  0.00    +0.000 A 
ATOM      9  C   UNL     1       4.712   4.694  18.217  0.00  0.00    +0.000 A 
ATOM     10  C   UNL     1       3.416   4.653  18.803  0.00  0.00    +0.000 A 
ATOM     11  H   UNL     1       2.986   3.170  16.001  0.00  0.00    +0.000 HD
ATOM     12  H   UNL     1       7.615   3.754  14.847  0.00  0.00    +0.000 HD
ATOM     13  H   UNL     1       8.650   4.538  15.990  0.00  0.00    +0.000 HD
ENDROOT
BRANCH   1  15
ATOM     14  C   UNL     1       0.893   2.341  18.800  0.00  0.00    +0.000 C 
ATOM     15  C   UNL     1       1.123   3.622  18.014  0.00  0.00    +0.000 C 
ENDBRANCH   1  15
BRANCH   8  16
ATOM     16  O   UNL     1       6.341   5.697  19.714  0.00  0.00    +0.000 OA
ATOM     17  H   UNL     1       6.686   4.907  20.168  0.00  0.00    +0.000 HD
ENDBRANCH   8  16
BRANCH  10  18
ATOM     18  S   UNL     1       2.944   5.439  20.298  0.00  0.00    +0.000 S 
BRANCH  18  19
ATOM     19  C   UNL     1       2.259   6.984  19.739  0.00  0.00    +0.000 A 
ATOM     20  C   UNL     1       2.459   7.393  18.414  0.00  0.00    +0.000 A 
ATOM     21  C   UNL     1       1.968   8.623  17.970  0.00  0.00    +0.000 A 
ATOM     22  C   UNL     1       1.280   9.455  18.852  0.00  0.00    +0.000 A 
ATOM     23  C   UNL     1       1.095   9.056  20.175  0.00  0.00    +0.000 A 
ATOM     24 CL   UNL     1       0.262  10.091  21.268  0.00  0.00    +0.000 Cl
ATOM     25  C   UNL     1       1.585   7.830  20.622  0.00  0.00    +0.000 A 
ENDBRANCH  18  19
ENDBRANCH  10  18
TORSDOF 4
ENDMDL
MODEL 4
REMARK VINA RESULT:      -7.3      3.893      5.892
REMARK  Name = 
REMARK  5 active torsions:
REMARK  status: ('A' for Active; 'I' for Inactive)
REMARK    1  A    between atoms: C_1  and  C_2
REMARK    2  A    between atoms: C_2  and  C_3
REMARK    3  A    between atoms: C_10  and  O_11
REMARK    4  A    between atoms: C_13  and  S_14
REMARK    5  A    between atoms: S_14  and  C_15
REMARK                            x       y       z     vdW  Elec       q    Type
REMARK                         _______ _______ _______ _____ _____    ______ ____
ROOT
ATOM      1  C   UNL     1       3.653   3.541  17.424  0.00  0.00    +0.000 A 
ATOM      2  N   UNL     1       4.207   3.367  16.175  0.00  0.00    +0.000 N 
ATOM      3  C   UNL     1       5.293   4.183  16.026  0.00  0.00    +0.000 A 
ATOM      4  N   UNL     1       6.022   4.283  14.904  0.00  0.00    +0.000 NA
ATOM      5  C   UNL     1       7.022   5.167  15.015  0.00  0.00    +0.000 A 
ATOM      6  N   UNL     1       7.792   5.381  13.888  0.00  0.00    +0.000 N 
ATOM      7  N   UNL     1       7.369   5.848  16.117  0.00  0.00    +0.000 NA
ATOM      8  C   UNL     1       6.600   5.702  17.207  0.00  0.00    +0.000 A 
ATOM      9  C   UNL     1       5.488   4.870  17.210  0.00  0.00    +0.000 A 
ATOM     10  C   UNL     1       4.424   4.493  18.076  0.00  0.00    +0.000 A 
ATOM     11  H   UNL     1       3.860   2.759  15.448  0.00  0.00    +0.000 HD
ATOM     12  H   UNL     1       7.735   4.585  13.268  0.00  0.00    +0.000 HD
ATOM     13  H   UNL     1       8.710   5.715  14.144  0.00  0.00    +0.000 HD
ENDROOT
BRANCH   1  15
ATOM     14  C   UNL     1       1.226   3.701  17.990  0.00  0.00    +0.000 C 
ATOM     15  C   UNL     1       2.431   2.787  17.832  0.00  0.00    +0.000 C 
ENDBRANCH   1  15
BRANCH   8  16
ATOM     16  O   UNL     1       7.026   6.406  18.295  0.00  0.00    +0.000 OA
ATOM     17  H   UNL     1       7.729   5.815  18.621  0.00  0.00    +0.000 HD
ENDBRANCH   8  16
BRANCH  10  18
ATOM     18  S   UNL     1       4.075   5.210  19.638  0.00  0.00    +0.000 S 
BRANCH  18  19
ATOM     19  C   UNL     1       3.072   6.620  19.218  0.00  0.00    +0.000 A 
ATOM     20  C   UNL     1       3.198   7.207  17.952  0.00  0.00    +0.000 A 
ATOM     21  C   UNL     1       2.453   8.342  17.620  0.00  0.00    +0.000 A 
ATOM     22  C   UNL     1       1.583   8.899  18.556  0.00  0.00    +0.000 A 
ATOM     23  C   UNL     1       1.469   8.324  19.821  0.00  0.00    +0.000 A 
ATOM     24 CL   UNL     1       0.410   9.023  20.982  0.00  0.00    +0.000 Cl
ATOM     25  C   UNL     1       2.213   7.193  20.157  0.00  0.00    +0.000 A 
ENDBRANCH  18  19
ENDBRANCH  10  18
TORSDOF 4
ENDMDL
MODEL 5
REMARK VINA RESULT:      -7.2      4.255      6.328
REMARK  Name = 
REMARK  5 active torsions:
REMARK  status: ('A' for Active; 'I' for Inactive)
REMARK    1  A    between atoms: C_1  and  C_2
REMARK    2  A    between atoms: C_2  and  C_3
REMARK    3  A    between atoms: C_10  and  O_11
REMARK    4  A    between atoms: C_13  and  S_14
REMARK    5  A    between atoms: S_14  and  C_15
REMARK                            x       y       z     vdW  Elec       q    Type
REMARK                         _______ _______ _______ _____ _____    ______ ____
ROOT
ATOM      1  C   UNL     1       7.487   6.558  17.610  0.00  0.00    +0.000 A 
ATOM      2  N   UNL     1       7.759   6.587  16.260  0.00  0.00    +0.000 N 
ATOM      3  C   UNL     1       7.137   5.543  15.635  0.00  0.00    +0.000 A 
ATOM      4  N   UNL     1       7.245   5.266  14.326  0.00  0.00    +0.000 NA
ATOM      5  C   UNL     1       6.549   4.179  13.969  0.00  0.00    +0.000 A 
ATOM      6  N   UNL     1       6.647   3.782  12.650  0.00  0.00    +0.000 N 
ATOM      7  N   UNL     1       5.744   3.450  14.757  0.00  0.00    +0.000 NA
ATOM      8  C   UNL     1       5.680   3.781  16.056  0.00  0.00    +0.000 A 
ATOM      9  C   UNL     1       6.405   4.843  16.576  0.00  0.00    +0.000 A 
ATOM     10  C   UNL     1       6.663   5.463  17.831  0.00  0.00    +0.000 A 
ATOM     11  H   UNL     1       8.354   7.249  15.785  0.00  0.00    +0.000 HD
ATOM     12  H   UNL     1       6.917   4.563  12.067  0.00  0.00    +0.000 HD
ATOM     13  H   UNL     1       5.833   3.251  12.378  0.00  0.00    +0.000 HD
ENDROOT
BRANCH   1  15
ATOM     14  C   UNL     1       8.158   8.949  17.883  0.00  0.00    +0.000 C 
ATOM     15  C   UNL     1       8.074   7.576  18.532  0.00  0.00    +0.000 C 
ENDBRANCH   1  15
BRANCH   8  16
ATOM     16  O   UNL     1       4.825   3.011  16.790  0.00  0.00    +0.000 OA
ATOM     17  H   UNL     1       4.084   3.634  16.907  0.00  0.00    +0.000 HD
ENDBRANCH   8  16
BRANCH  10  18
ATOM     18  S   UNL     1       6.141   4.864  19.394  0.00  0.00    +0.000 S 
BRANCH  18  19
ATOM     19  C   UNL     1       4.368   4.994  19.301  0.00  0.00    +0.000 A 
ATOM     20  C   UNL     1       3.786   6.060  18.602  0.00  0.00    +0.000 A 
ATOM     21  C   UNL     1       2.397   6.204  18.557  0.00  0.00    +0.000 A 
ATOM     22  C   UNL     1       1.582   5.286  19.218  0.00  0.00    +0.000 A 
ATOM     23  C   UNL     1       2.161   4.234  19.927  0.00  0.00    +0.000 A 
ATOM     24 CL   UNL     1       1.156   3.112  20.758  0.00  0.00    +0.000 Cl
ATOM     25  C   UNL     1       3.547   4.088  19.976  0.00  0.00    +0.000 A 
ENDBRANCH  18  19
ENDBRANCH  10  18
TORSDOF 4
ENDMDL
MODEL 6
REMARK VINA RESULT:      -7.2      1.659      1.692
REMARK  Name = 
REMARK  5 active torsions:
REMARK  status: ('A' for Active; 'I' for Inactive)
REMARK    1  A    between atoms: C_1  and  C_2
REMARK    2  A    between atoms: C_2  and  C_3
REMARK    3  A    between atoms: C_10  and  O_11
REMARK    4  A    between atoms: C_13  and  S_14
REMARK    5  A    between atoms: S_14  and  C_15
REMARK                            x       y       z     vdW  Elec       q    Type
REMARK                         _______ _______ _______ _____ _____    ______ ____
ROOT
ATOM      1  C   UNL     1       2.986   6.848  17.864  0.00  0.00    +0.000 A 
ATOM      2  N   UNL     1       2.056   6.074  18.523  0.00  0.00    +0.000 N 
ATOM      3  C   UNL     1       2.335   4.749  18.342  0.00  0.00    +0.000 A 
ATOM      4  N   UNL     1       1.587   3.741  18.817  0.00  0.00    +0.000 NA
ATOM      5  C   UNL     1       2.070   2.538  18.485  0.00  0.00    +0.000 A 
ATOM      6  N   UNL     1       1.333   1.439  18.881  0.00  0.00    +0.000 N 
ATOM      7  N   UNL     1       3.213   2.288  17.828  0.00  0.00    +0.000 NA
ATOM      8  C   UNL     1       3.916   3.340  17.381  0.00  0.00    +0.000 A 
ATOM      9  C   UNL     1       3.493   4.645  17.594  0.00  0.00    +0.000 A 
ATOM     10  C   UNL     1       3.878   5.973  17.258  0.00  0.00    +0.000 A 
ATOM     11  H   UNL     1       1.258   6.412  19.041  0.00  0.00    +0.000 HD
ATOM     12  H   UNL     1       0.749   1.675  19.672  0.00  0.00    +0.000 HD
ATOM     13  H   UNL     1       1.924   0.624  18.958  0.00  0.00    +0.000 HD
ENDROOT
BRANCH   1  15
ATOM     14  C   UNL     1       1.448   8.815  17.832  0.00  0.00    +0.000 C 
ATOM     15  C   UNL     1       2.891   8.337  17.877  0.00  0.00    +0.000 C 
ENDBRANCH   1  15
BRANCH   8  16
ATOM     16  O   UNL     1       5.077   3.011  16.743  0.00  0.00    +0.000 OA
ATOM     17  H   UNL     1       4.941   3.462  15.890  0.00  0.00    +0.000 HD
ENDBRANCH   8  16
BRANCH  10  18
ATOM     18  S   UNL     1       5.170   6.416  16.159  0.00  0.00    +0.000 S 
BRANCH  18  19
ATOM     19  C   UNL     1       6.523   6.781  17.257  0.00  0.00    +0.000 A 
ATOM     20  C   UNL     1       6.961   5.809  18.166  0.00  0.00    +0.000 A 
ATOM     21  C   UNL     1       7.990   6.092  19.066  0.00  0.00    +0.000 A 
ATOM     22  C   UNL     1       8.584   7.354  19.067  0.00  0.00    +0.000 A 
ATOM     23  C   UNL     1       8.138   8.327  18.174  0.00  0.00    +0.000 A 
ATOM     24 CL   UNL     1       8.858   9.890  18.188  0.00  0.00    +0.000 Cl
ATOM     25  C   UNL     1       7.109   8.049  17.275  0.00  0.00    +0.000 A 
ENDBRANCH  18  19
ENDBRANCH  10  18
TORSDOF 4
ENDMDL
MODEL 7
REMARK VINA RESULT:      -7.1      2.427      4.279
REMARK  Name = 
REMARK  5 active torsions:
REMARK  status: ('A' for Active; 'I' for Inactive)
REMARK    1  A    between atoms: C_1  and  C_2
REMARK    2  A    between atoms: C_2  and  C_3
REMARK    3  A    between atoms: C_10  and  O_11
REMARK    4  A    between atoms: C_13  and  S_14
REMARK    5  A    between atoms: S_14  and  C_15
REMARK                            x       y       z     vdW  Elec       q    Type
REMARK                         _______ _______ _______ _____ _____    ______ ____
ROOT
ATOM      1  C   UNL     1       2.522   4.978  20.174  0.00  0.00    +0.000 A 
ATOM      2  N   UNL     1       1.891   5.839  21.044  0.00  0.00    +0.000 N 
ATOM      3  C   UNL     1       1.765   7.074  20.473  0.00  0.00    +0.000 A 
ATOM      4  N   UNL     1       1.235   8.145  21.084  0.00  0.00    +0.000 NA
ATOM      5  C   UNL     1       1.244   9.238  20.311  0.00  0.00    +0.000 A 
ATOM      6  N   UNL     1       0.771  10.406  20.877  0.00  0.00    +0.000 N 
ATOM      7  N   UNL     1       1.641   9.310  19.032  0.00  0.00    +0.000 NA
ATOM      8  C   UNL     1       2.160   8.202  18.478  0.00  0.00    +0.000 A 
ATOM      9  C   UNL     1       2.276   7.016  19.190  0.00  0.00    +0.000 A 
ATOM     10  C   UNL     1       2.792   5.701  19.020  0.00  0.00    +0.000 A 
ATOM     11  H   UNL     1       1.588   5.623  21.983  0.00  0.00    +0.000 HD
ATOM     12  H   UNL     1       0.149  10.197  21.646  0.00  0.00    +0.000 HD
ATOM     13  H   UNL     1       0.441  11.038  20.163  0.00  0.00    +0.000 HD
ENDROOT
BRANCH   1  15
ATOM     14  C   UNL     1       1.633   2.920  21.274  0.00  0.00    +0.000 C 
ATOM     15  C   UNL     1       2.813   3.568  20.567  0.00  0.00    +0.000 C 
ENDBRANCH   1  15
BRANCH   8  16
ATOM     16  O   UNL     1       2.520   8.343  17.169  0.00  0.00    +0.000 OA
ATOM     17  H   UNL     1       1.655   8.231  16.737  0.00  0.00    +0.000 HD
ENDBRANCH   8  16
BRANCH  10  18
ATOM     18  S   UNL     1       3.726   5.139  17.646  0.00  0.00    +0.000 S 
BRANCH  18  19
ATOM     19  C   UNL     1       5.332   5.852  17.934  0.00  0.00    +0.000 A 
ATOM     20  C   UNL     1       5.787   6.891  17.111  0.00  0.00    +0.000 A 
ATOM     21  C   UNL     1       7.063   7.431  17.293  0.00  0.00    +0.000 A 
ATOM     22  C   UNL     1       7.893   6.931  18.295  0.00  0.00    +0.000 A 
ATOM     23  C   UNL     1       7.446   5.887  19.104  0.00  0.00    +0.000 A 
ATOM     24 CL   UNL     1       8.478   5.256  20.328  0.00  0.00    +0.000 Cl
ATOM     25  C   UNL     1       6.175   5.343  18.924  0.00  0.00    +0.000 A 
ENDBRANCH  18  19
ENDBRANCH  10  18
TORSDOF 4
ENDMDL
MODEL 8
REMARK VINA RESULT:      -7.1      2.103      3.927
REMARK  Name = 
REMARK  5 active torsions:
REMARK  status: ('A' for Active; 'I' for Inactive)
REMARK    1  A    between atoms: C_1  and  C_2
REMARK    2  A    between atoms: C_2  and  C_3
REMARK    3  A    between atoms: C_10  and  O_11
REMARK    4  A    between atoms: C_13  and  S_14
REMARK    5  A    between atoms: S_14  and  C_15
REMARK                            x       y       z     vdW  Elec       q    Type
REMARK                         _______ _______ _______ _____ _____    ______ ____
ROOT
ATOM      1  C   UNL     1       2.770   4.925  19.939  0.00  0.00    +0.000 A 
ATOM      2  N   UNL     1       2.082   5.669  20.872  0.00  0.00    +0.000 N 
ATOM      3  C   UNL     1       1.855   6.928  20.393  0.00  0.00    +0.000 A 
ATOM      4  N   UNL     1       1.250   7.908  21.082  0.00  0.00    +0.000 NA
ATOM      5  C   UNL     1       1.167   9.051  20.391  0.00  0.00    +0.000 A 
ATOM      6  N   UNL     1       0.610  10.134  21.042  0.00  0.00    +0.000 N 
ATOM      7  N   UNL     1       1.546   9.246  19.119  0.00  0.00    +0.000 NA
ATOM      8  C   UNL     1       2.144   8.225  18.484  0.00  0.00    +0.000 A 
ATOM      9  C   UNL     1       2.358   7.003  19.107  0.00  0.00    +0.000 A 
ATOM     10  C   UNL     1       2.973   5.749  18.840  0.00  0.00    +0.000 A 
ATOM     11  H   UNL     1       1.806   5.363  21.793  0.00  0.00    +0.000 HD
ATOM     12  H   UNL     1       0.014   9.823  21.796  0.00  0.00    +0.000 HD
ATOM     13  H   UNL     1       0.226  10.789  20.377  0.00  0.00    +0.000 HD
ENDROOT
BRANCH   1  15
ATOM     14  C   UNL     1       2.321   2.895  21.323  0.00  0.00    +0.000 C 
ATOM     15  C   UNL     1       3.173   3.517  20.227  0.00  0.00    +0.000 C 
ENDBRANCH   1  15
BRANCH   8  16
ATOM     16  O   UNL     1       2.480   8.488  17.188  0.00  0.00    +0.000 OA
ATOM     17  H   UNL     1       1.730   8.073  16.725  0.00  0.00    +0.000 HD
ENDBRANCH   8  16
BRANCH  10  18
ATOM     18  S   UNL     1       3.935   5.362  17.426  0.00  0.00    +0.000 S 
BRANCH  18  19
ATOM     19  C   UNL     1       5.577   5.848  17.912  0.00  0.00    +0.000 A 
ATOM     20  C   UNL     1       6.315   5.031  18.779  0.00  0.00    +0.000 A 
ATOM     21  C   UNL     1       7.586   5.418  19.208  0.00  0.00    +0.000 A 
ATOM     22  C   UNL     1       8.125   6.630  18.778  0.00  0.00    +0.000 A 
ATOM     23  C   UNL     1       7.385   7.451  17.928  0.00  0.00    +0.000 A 
ATOM     24 CL   UNL     1       8.042   8.956  17.413  0.00  0.00    +0.000 Cl
ATOM     25  C   UNL     1       6.114   7.070  17.499  0.00  0.00    +0.000 A 
ENDBRANCH  18  19
ENDBRANCH  10  18
TORSDOF 4
ENDMDL
MODEL 9
REMARK VINA RESULT:      -7.1      3.858      5.900
REMARK  Name = 
REMARK  5 active torsions:
REMARK  status: ('A' for Active; 'I' for Inactive)
REMARK    1  A    between atoms: C_1  and  C_2
REMARK    2  A    between atoms: C_2  and  C_3
REMARK    3  A    between atoms: C_10  and  O_11
REMARK    4  A    between atoms: C_13  and  S_14
REMARK    5  A    between atoms: S_14  and  C_15
REMARK                            x       y       z     vdW  Elec       q    Type
REMARK                         _______ _______ _______ _____ _____    ______ ____
ROOT
ATOM      1  C   UNL     1       7.447   6.479  17.548  0.00  0.00    +0.000 A 
ATOM      2  N   UNL     1       7.707   6.434  16.196  0.00  0.00    +0.000 N 
ATOM      3  C   UNL     1       7.026   5.397  15.623  0.00  0.00    +0.000 A 
ATOM      4  N   UNL     1       7.106   5.058  14.327  0.00  0.00    +0.000 NA
ATOM      5  C   UNL     1       6.351   3.994  14.024  0.00  0.00    +0.000 A 
ATOM      6  N   UNL     1       6.416   3.534  12.723  0.00  0.00    +0.000 N 
ATOM      7  N   UNL     1       5.518   3.343  14.850  0.00  0.00    +0.000 NA
ATOM      8  C   UNL     1       5.484   3.733  16.133  0.00  0.00    +0.000 A 
ATOM      9  C   UNL     1       6.268   4.779  16.600  0.00  0.00    +0.000 A 
ATOM     10  C   UNL     1       6.570   5.439  17.824  0.00  0.00    +0.000 A 
ATOM     11  H   UNL     1       8.330   7.043  15.687  0.00  0.00    +0.000 HD
ATOM     12  H   UNL     1       6.720   4.273  12.104  0.00  0.00    +0.000 HD
ATOM     13  H   UNL     1       5.572   3.035  12.481  0.00  0.00    +0.000 HD
ENDROOT
BRANCH   1  15
ATOM     14  C   UNL     1       8.026   8.895  17.807  0.00  0.00    +0.000 C 
ATOM     15  C   UNL     1       8.095   7.505  18.418  0.00  0.00    +0.000 C 
ENDBRANCH   1  15
BRANCH   8  16
ATOM     16  O   UNL     1       4.597   3.042  16.908  0.00  0.00    +0.000 OA
ATOM     17  H   UNL     1       4.153   2.504  16.228  0.00  0.00    +0.000 HD
ENDBRANCH   8  16
BRANCH  10  18
ATOM     18  S   UNL     1       6.034   4.938  19.416  0.00  0.00    +0.000 S 
BRANCH  18  19
ATOM     19  C   UNL     1       4.324   5.435  19.438  0.00  0.00    +0.000 A 
ATOM     20  C   UNL     1       3.389   4.672  20.150  0.00  0.00    +0.000 A 
ATOM     21  C   UNL     1       2.036   5.020  20.141  0.00  0.00    +0.000 A 
ATOM     22  C   UNL     1       1.610   6.131  19.414  0.00  0.00    +0.000 A 
ATOM     23  C   UNL     1       2.538   6.881  18.694  0.00  0.00    +0.000 A 
ATOM     24 CL   UNL     1       2.009   8.241  17.781  0.00  0.00    +0.000 Cl
ATOM     25  C   UNL     1       3.889   6.536  18.697  0.00  0.00    +0.000 A 
ENDBRANCH  18  19
ENDBRANCH  10  18
TORSDOF 4
ENDMDL
