MODEL 1
REMARK VINA RESULT:      -8.2      0.000      0.000
REMARK  Name = 
REMARK  12 active torsions:
REMARK  status: ('A' for Active; 'I' for Inactive)
REMARK    1  A    between atoms: C_1  and  C_2
REMARK    2  A    between atoms: C_2  and  C_3
REMARK    3  A    between atoms: C_2  and  O_4
REMARK    4  A    between atoms: O_4  and  C_5
REMARK    5  A    between atoms: C_8  and  N_9
REMARK    6  A    between atoms: N_14  and  C_15
REMARK    7  A    between atoms: C_15  and  C_16
REMARK    8  A    between atoms: C_15  and  C_17
REMARK    9  A    between atoms: N_20  and  C_21
REMARK   10  A    between atoms: C_21  and  C_22
REMARK   11  A    between atoms: N_24  and  C_25
REMARK   12  A    between atoms: N_24  and  C_26
REMARK                            x       y       z     vdW  Elec       q    Type
REMARK                         _______ _______ _______ _____ _____    ______ ____
ROOT
ATOM      1  N   UNL     1       2.424   6.776  20.071  0.00  0.00    +0.000 N 
ATOM      2  C   UNL     1       3.357   6.235  19.198  0.00  0.00    +0.000 A 
ATOM      3  N   UNL     1       3.726   6.885  18.151  0.00  0.00    +0.000 NA
ATOM      4  C   UNL     1       4.619   6.392  17.274  0.00  0.00    +0.000 A 
ATOM      5  O   UNL     1       4.716   6.887  16.151  0.00  0.00    +0.000 OA
ATOM      6  N   UNL     1       5.406   5.347  17.687  0.00  0.00    +0.000 N 
ATOM      7  C   UNL     1       5.009   4.557  18.743  0.00  0.00    +0.000 A 
ATOM      8  O   UNL     1       5.576   3.502  19.032  0.00  0.00    +0.000 OA
ATOM      9  N   UNL     1       3.903   4.995  19.457  0.00  0.00    +0.000 N 
ATOM     10  H   UNL     1       2.631   6.591  21.050  0.00  0.00    +0.000 HD
ENDROOT
BRANCH   1  14
ATOM     11  C   UNL     1       0.448  10.534  19.610  0.00  0.00    +0.000 A 
ATOM     12  C   UNL     1       1.052   9.933  18.513  0.00  0.00    +0.000 A 
ATOM     13  C   UNL     1       1.677   8.686  18.649  0.00  0.00    +0.000 A 
ATOM     14  C   UNL     1       1.768   8.029  19.887  0.00  0.00    +0.000 A 
ATOM     15  C   UNL     1       1.092   8.610  20.965  0.00  0.00    +0.000 A 
ATOM     16  C   UNL     1       0.428   9.835  20.817  0.00  0.00    +0.000 A 
ATOM     17  F   UNL     1      -0.249  10.304  21.874  0.00  0.00    +0.000 F 
BRANCH  11  18
ATOM     18  O   UNL     1      -0.123  11.752  19.371  0.00  0.00    +0.000 OA
BRANCH  18  20
ATOM     19  C   UNL     1      -2.028  13.030  20.051  0.00  0.00    +0.000 C 
ATOM     20  C   UNL     1      -1.555  11.789  19.301  0.00  0.00    +0.000 C 
ATOM     21  C   UNL     1      -1.964  11.855  17.835  0.00  0.00    +0.000 C 
ENDBRANCH  18  20
ENDBRANCH  11  18
ENDBRANCH   1  14
BRANCH   6  22
ATOM     22  C   UNL     1       6.571   5.011  16.854  0.00  0.00    +0.000 C 
ATOM     23  C   UNL     1       7.781   4.649  17.712  0.00  0.00    +0.000 C 
ATOM     24  C   UNL     1       6.275   3.961  15.785  0.00  0.00    +0.000 C 
ENDBRANCH   6  22
BRANCH   9  25
ATOM     25  C   UNL     1       3.343   4.069  20.455  0.00  0.00    +0.000 C 
BRANCH  25  26
ATOM     26  C   UNL     1       1.929   3.583  20.107  0.00  0.00    +0.000 C 
ATOM     27  O   UNL     1       0.946   4.243  20.457  0.00  0.00    +0.000 OA
ATOM     28  N   UNL     1       1.810   2.464  19.280  0.00  0.00    +0.000 N 
ATOM     29  C   UNL     1       2.924   1.746  18.673  0.00  0.00    +0.000 C 
ATOM     30  C   UNL     1       0.494   2.113  18.765  0.00  0.00    +0.000 C 
ENDBRANCH  25  26
ENDBRANCH   9  25
TORSDOF 6
ENDMDL
MODEL 2
REMARK VINA RESULT:      -8.0      0.865      1.060
REMARK  Name = 
REMARK  12 active torsions:
REMARK  status: ('A' for Active; 'I' for Inactive)
REMARK    1  A    between atoms: C_1  and  C_2
REMARK    2  A    between atoms: C_2  and  C_3
REMARK    3  A    between atoms: C_2  and  O_4
REMARK    4  A    between atoms: O_4  and  C_5
REMARK    5  A    between atoms: C_8  and  N_9
REMARK    6  A    between atoms: N_14  and  C_15
REMARK    7  A    between atoms: C_15  and  C_16
REMARK    8  A    between atoms: C_15  and  C_17
REMARK    9  A    between atoms: N_20  and  C_21
REMARK   10  A    between atoms: C_21  and  C_22
REMARK   11  A    between atoms: N_24  and  C_25
REMARK   12  A    between atoms: N_24  and  C_26
REMARK                            x       y       z     vdW  Elec       q    Type
REMARK                         _______ _______ _______ _____ _____    ______ ____
ROOT
ATOM      1  N   UNL     1       2.401   6.911  19.960  0.00  0.00    +0.000 N 
ATOM      2  C   UNL     1       3.342   6.333  19.120  0.00  0.00    +0.000 A 
ATOM      3  N   UNL     1       3.731   6.944  18.056  0.00  0.00    +0.000 NA
ATOM      4  C   UNL     1       4.633   6.415  17.210  0.00  0.00    +0.000 A 
ATOM      5  O   UNL     1       4.751   6.870  16.072  0.00  0.00    +0.000 OA
ATOM      6  N   UNL     1       5.406   5.379  17.671  0.00  0.00    +0.000 N 
ATOM      7  C   UNL     1       4.988   4.629  18.747  0.00  0.00    +0.000 A 
ATOM      8  O   UNL     1       5.543   3.580  19.080  0.00  0.00    +0.000 OA
ATOM      9  N   UNL     1       3.875   5.099  19.429  0.00  0.00    +0.000 N 
ATOM     10  H   UNL     1       2.592   6.758  20.947  0.00  0.00    +0.000 HD
ENDROOT
BRANCH   1  14
ATOM     11  C   UNL     1       0.460  10.663  19.340  0.00  0.00    +0.000 A 
ATOM     12  C   UNL     1       1.077  10.022  18.274  0.00  0.00    +0.000 A 
ATOM     13  C   UNL     1       1.691   8.777  18.462  0.00  0.00    +0.000 A 
ATOM     14  C   UNL     1       1.757   8.161  19.723  0.00  0.00    +0.000 A 
ATOM     15  C   UNL     1       1.067   8.782  20.769  0.00  0.00    +0.000 A 
ATOM     16  C   UNL     1       0.415  10.005  20.569  0.00  0.00    +0.000 A 
ATOM     17  F   UNL     1      -0.277  10.514  21.598  0.00  0.00    +0.000 F 
BRANCH  11  18
ATOM     18  O   UNL     1      -0.098  11.877  19.051  0.00  0.00    +0.000 OA
BRANCH  18  20
ATOM     19  C   UNL     1       1.367  13.710  18.585  0.00  0.00    +0.000 C 
ATOM     20  C   UNL     1       0.516  13.027  19.650  0.00  0.00    +0.000 C 
ATOM     21  C   UNL     1      -0.584  13.958  20.143  0.00  0.00    +0.000 C 
ENDBRANCH  18  20
ENDBRANCH  11  18
ENDBRANCH   1  14
BRANCH   6  22
ATOM     22  C   UNL     1       6.581   5.006  16.867  0.00  0.00    +0.000 C 
ATOM     23  C   UNL     1       7.772   4.653  17.755  0.00  0.00    +0.000 C 
ATOM     24  C   UNL     1       6.290   3.932  15.821  0.00  0.00    +0.000 C 
ENDBRANCH   6  22
BRANCH   9  25
ATOM     25  C   UNL     1       3.293   4.212  20.450  0.00  0.00    +0.000 C 
BRANCH  25  26
ATOM     26  C   UNL     1       1.893   3.701  20.084  0.00  0.00    +0.000 C 
ATOM     27  O   UNL     1       0.897   4.371  20.372  0.00  0.00    +0.000 OA
ATOM     28  N   UNL     1       1.804   2.542  19.310  0.00  0.00    +0.000 N 
ATOM     29  C   UNL     1       2.939   1.802  18.773  0.00  0.00    +0.000 C 
ATOM     30  C   UNL     1       0.505   2.158  18.774  0.00  0.00    +0.000 C 
ENDBRANCH  25  26
ENDBRANCH   9  25
TORSDOF 6
ENDMDL
MODEL 3
REMARK VINA RESULT:      -7.8      1.842      2.162
REMARK  Name = 
REMARK  12 active torsions:
REMARK  status: ('A' for Active; 'I' for Inactive)
REMARK    1  A    between atoms: C_1  and  C_2
REMARK    2  A    between atoms: C_2  and  C_3
REMARK    3  A    between atoms: C_2  and  O_4
REMARK    4  A    between atoms: O_4  and  C_5
REMARK    5  A    between atoms: C_8  and  N_9
REMARK    6  A    between atoms: N_14  and  C_15
REMARK    7  A    between atoms: C_15  and  C_16
REMARK    8  A    between atoms: C_15  and  C_17
REMARK    9  A    between atoms: N_20  and  C_21
REMARK   10  A    between atoms: C_21  and  C_22
REMARK   11  A    between atoms: N_24  and  C_25
REMARK   12  A    between atoms: N_24  and  C_26
REMARK                            x       y       z     vdW  Elec       q    Type
REMARK                         _______ _______ _______ _____ _____    ______ ____
ROOT
ATOM      1  N   UNL     1       1.924   7.303  18.722  0.00  0.00    +0.000 N 
ATOM      2  C   UNL     1       2.943   6.669  18.025  0.00  0.00    +0.000 A 
ATOM      3  N   UNL     1       3.862   7.357  17.444  0.00  0.00    +0.000 NA
ATOM      4  C   UNL     1       4.861   6.783  16.750  0.00  0.00    +0.000 A 
ATOM      5  O   UNL     1       5.532   7.455  15.965  0.00  0.00    +0.000 OA
ATOM      6  N   UNL     1       5.100   5.449  16.965  0.00  0.00    +0.000 N 
ATOM      7  C   UNL     1       4.115   4.646  17.495  0.00  0.00    +0.000 A 
ATOM      8  O   UNL     1       4.209   3.417  17.531  0.00  0.00    +0.000 OA
ATOM      9  N   UNL     1       2.980   5.292  17.962  0.00  0.00    +0.000 N 
ATOM     10  H   UNL     1       1.662   6.824  19.581  0.00  0.00    +0.000 HD
ENDROOT
BRANCH   1  14
ATOM     11  C   UNL     1       1.418  11.525  19.114  0.00  0.00    +0.000 A 
ATOM     12  C   UNL     1       2.004  11.004  17.968  0.00  0.00    +0.000 A 
ATOM     13  C   UNL     1       2.147   9.619  17.818  0.00  0.00    +0.000 A 
ATOM     14  C   UNL     1       1.764   8.717  18.824  0.00  0.00    +0.000 A 
ATOM     15  C   UNL     1       1.108   9.250  19.939  0.00  0.00    +0.000 A 
ATOM     16  C   UNL     1       0.925  10.633  20.066  0.00  0.00    +0.000 A 
ATOM     17  F   UNL     1       0.236  11.071  21.129  0.00  0.00    +0.000 F 
BRANCH  11  18
ATOM     18  O   UNL     1       1.337  12.889  19.163  0.00  0.00    +0.000 OA
BRANCH  18  20
ATOM     19  C   UNL     1       2.393  14.952  18.572  0.00  0.00    +0.000 C 
ATOM     20  C   UNL     1       2.577  13.603  19.259  0.00  0.00    +0.000 C 
ATOM     21  C   UNL     1       2.912  13.789  20.734  0.00  0.00    +0.000 C 
ENDBRANCH  18  20
ENDBRANCH  11  18
ENDBRANCH   1  14
BRANCH   6  22
ATOM     22  C   UNL     1       6.362   4.899  16.446  0.00  0.00    +0.000 C 
ATOM     23  C   UNL     1       7.312   4.523  17.581  0.00  0.00    +0.000 C 
ATOM     24  C   UNL     1       6.168   3.762  15.443  0.00  0.00    +0.000 C 
ENDBRANCH   6  22
BRANCH   9  25
ATOM     25  C   UNL     1       1.838   4.444  18.343  0.00  0.00    +0.000 C 
BRANCH  25  26
ATOM     26  C   UNL     1       1.755   4.181  19.853  0.00  0.00    +0.000 C 
ATOM     27  O   UNL     1       1.498   5.107  20.628  0.00  0.00    +0.000 OA
ATOM     28  N   UNL     1       1.844   2.857  20.289  0.00  0.00    +0.000 N 
ATOM     29  C   UNL     1       1.958   1.693  19.419  0.00  0.00    +0.000 C 
ATOM     30  C   UNL     1       1.557   2.560  21.685  0.00  0.00    +0.000 C 
ENDBRANCH  25  26
ENDBRANCH   9  25
TORSDOF 6
ENDMDL
MODEL 4
REMARK VINA RESULT:      -7.8      1.296      1.494
REMARK  Name = 
REMARK  12 active torsions:
REMARK  status: ('A' for Active; 'I' for Inactive)
REMARK    1  A    between atoms: C_1  and  C_2
REMARK    2  A    between atoms: C_2  and  C_3
REMARK    3  A    between atoms: C_2  and  O_4
REMARK    4  A    between atoms: O_4  and  C_5
REMARK    5  A    between atoms: C_8  and  N_9
REMARK    6  A    between atoms: N_14  and  C_15
REMARK    7  A    between atoms: C_15  and  C_16
REMARK    8  A    between atoms: C_15  and  C_17
REMARK    9  A    between atoms: N_20  and  C_21
REMARK   10  A    between atoms: C_21  and  C_22
REMARK   11  A    between atoms: N_24  and  C_25
REMARK   12  A    between atoms: N_24  and  C_26
REMARK                            x       y       z     vdW  Elec       q    Type
REMARK                         _______ _______ _______ _____ _____    ______ ____
ROOT
ATOM      1  N   UNL     1       2.078   6.505  18.778  0.00  0.00    +0.000 N 
ATOM      2  C   UNL     1       3.122   6.087  17.965  0.00  0.00    +0.000 A 
ATOM      3  N   UNL     1       3.908   6.946  17.417  0.00  0.00    +0.000 NA
ATOM      4  C   UNL     1       4.925   6.583  16.614  0.00  0.00    +0.000 A 
ATOM      5  O   UNL     1       5.453   7.415  15.875  0.00  0.00    +0.000 OA
ATOM      6  N   UNL     1       5.344   5.278  16.668  0.00  0.00    +0.000 N 
ATOM      7  C   UNL     1       4.504   4.302  17.156  0.00  0.00    +0.000 A 
ATOM      8  O   UNL     1       4.755   3.099  17.053  0.00  0.00    +0.000 OA
ATOM      9  N   UNL     1       3.329   4.740  17.748  0.00  0.00    +0.000 N 
ATOM     10  H   UNL     1       1.936   5.910  19.590  0.00  0.00    +0.000 HD
ENDROOT
BRANCH   1  14
ATOM     11  C   UNL     1       1.097  10.566  19.659  0.00  0.00    +0.000 A 
ATOM     12  C   UNL     1       1.296  10.175  18.342  0.00  0.00    +0.000 A 
ATOM     13  C   UNL     1       1.590   8.839  18.041  0.00  0.00    +0.000 A 
ATOM     14  C   UNL     1       1.748   7.867  19.042  0.00  0.00    +0.000 A 
ATOM     15  C   UNL     1       1.471   8.258  20.356  0.00  0.00    +0.000 A 
ATOM     16  C   UNL     1       1.133   9.586  20.650  0.00  0.00    +0.000 A 
ATOM     17  F   UNL     1       0.821   9.878  21.921  0.00  0.00    +0.000 F 
BRANCH  11  18
ATOM     18  O   UNL     1       0.827  11.893  19.843  0.00  0.00    +0.000 OA
BRANCH  18  20
ATOM     19  C   UNL     1      -1.541  12.220  19.759  0.00  0.00    +0.000 C 
ATOM     20  C   UNL     1      -0.219  12.455  19.037  0.00  0.00    +0.000 C 
ATOM     21  C   UNL     1       0.050  13.945  18.871  0.00  0.00    +0.000 C 
ENDBRANCH  18  20
ENDBRANCH  11  18
ENDBRANCH   1  14
BRANCH   6  22
ATOM     22  C   UNL     1       6.629   4.957  16.029  0.00  0.00    +0.000 C 
ATOM     23  C   UNL     1       7.641   4.436  17.048  0.00  0.00    +0.000 C 
ATOM     24  C   UNL     1       6.496   4.040  14.814  0.00  0.00    +0.000 C 
ENDBRANCH   6  22
BRANCH   9  25
ATOM     25  C   UNL     1       2.331   3.714  18.092  0.00  0.00    +0.000 C 
BRANCH  25  26
ATOM     26  C   UNL     1       1.945   3.715  19.577  0.00  0.00    +0.000 C 
ATOM     27  O   UNL     1       0.862   4.189  19.933  0.00  0.00    +0.000 OA
ATOM     28  N   UNL     1       2.790   3.050  20.470  0.00  0.00    +0.000 N 
ATOM     29  C   UNL     1       3.986   2.306  20.097  0.00  0.00    +0.000 C 
ATOM     30  C   UNL     1       2.341   2.854  21.842  0.00  0.00    +0.000 C 
ENDBRANCH  25  26
ENDBRANCH   9  25
TORSDOF 6
ENDMDL
MODEL 5
REMARK VINA RESULT:      -7.8      0.962      1.328
REMARK  Name = 
REMARK  12 active torsions:
REMARK  status: ('A' for Active; 'I' for Inactive)
REMARK    1  A    between atoms: C_1  and  C_2
REMARK    2  A    between atoms: C_2  and  C_3
REMARK    3  A    between atoms: C_2  and  O_4
REMARK    4  A    between atoms: O_4  and  C_5
REMARK    5  A    between atoms: C_8  and  N_9
REMARK    6  A    between atoms: N_14  and  C_15
REMARK    7  A    between atoms: C_15  and  C_16
REMARK    8  A    between atoms: C_15  and  C_17
REMARK    9  A    between atoms: N_20  and  C_21
REMARK   10  A    between atoms: C_21  and  C_22
REMARK   11  A    between atoms: N_24  and  C_25
REMARK   12  A    between atoms: N_24  and  C_26
REMARK                            x       y       z     vdW  Elec       q    Type
REMARK                         _______ _______ _______ _____ _____    ______ ____
ROOT
ATOM      1  N   UNL     1       2.404   6.603  20.313  0.00  0.00    +0.000 N 
ATOM      2  C   UNL     1       3.320   6.114  19.393  0.00  0.00    +0.000 A 
ATOM      3  N   UNL     1       3.677   6.829  18.384  0.00  0.00    +0.000 NA
ATOM      4  C   UNL     1       4.554   6.389  17.464  0.00  0.00    +0.000 A 
ATOM      5  O   UNL     1       4.638   6.954  16.373  0.00  0.00    +0.000 OA
ATOM      6  N   UNL     1       5.340   5.315  17.797  0.00  0.00    +0.000 N 
ATOM      7  C   UNL     1       4.954   4.461  18.806  0.00  0.00    +0.000 A 
ATOM      8  O   UNL     1       5.519   3.386  19.017  0.00  0.00    +0.000 OA
ATOM      9  N   UNL     1       3.862   4.858  19.563  0.00  0.00    +0.000 N 
ATOM     10  H   UNL     1       2.624   6.355  21.275  0.00  0.00    +0.000 HD
ENDROOT
BRANCH   1  14
ATOM     11  C   UNL     1       0.472  10.394  19.946  0.00  0.00    +0.000 A 
ATOM     12  C   UNL     1       0.427   9.712  21.154  0.00  0.00    +0.000 A 
ATOM     13  C   UNL     1       1.082   8.481  21.292  0.00  0.00    +0.000 A 
ATOM     14  C   UNL     1       1.753   7.869  20.220  0.00  0.00    +0.000 A 
ATOM     15  C   UNL     1       1.854   8.603  19.034  0.00  0.00    +0.000 A 
ATOM     16  C   UNL     1       1.236   9.854  18.911  0.00  0.00    +0.000 A 
ATOM     17  F   UNL     1       1.424  10.528  17.768  0.00  0.00    +0.000 F 
BRANCH  11  18
ATOM     18  O   UNL     1      -0.209  11.579  19.915  0.00  0.00    +0.000 OA
BRANCH  18  20
ATOM     19  C   UNL     1      -2.461  11.854  19.155  0.00  0.00    +0.000 C 
ATOM     20  C   UNL     1      -0.993  11.840  18.742  0.00  0.00    +0.000 C 
ATOM     21  C   UNL     1      -0.577  13.191  18.176  0.00  0.00    +0.000 C 
ENDBRANCH  18  20
ENDBRANCH  11  18
ENDBRANCH   1  14
BRANCH   6  22
ATOM     22  C   UNL     1       6.491   5.027  16.926  0.00  0.00    +0.000 C 
ATOM     23  C   UNL     1       7.734   4.685  17.744  0.00  0.00    +0.000 C 
ATOM     24  C   UNL     1       6.195   3.988  15.846  0.00  0.00    +0.000 C 
ENDBRANCH   6  22
BRANCH   9  25
ATOM     25  C   UNL     1       3.311   3.872  20.508  0.00  0.00    +0.000 C 
BRANCH  25  26
ATOM     26  C   UNL     1       1.892   3.411  20.147  0.00  0.00    +0.000 C 
ATOM     27  O   UNL     1       0.915   4.044  20.558  0.00  0.00    +0.000 OA
ATOM     28  N   UNL     1       1.761   2.354  19.244  0.00  0.00    +0.000 N 
ATOM     29  C   UNL     1       2.866   1.683  18.571  0.00  0.00    +0.000 C 
ATOM     30  C   UNL     1       0.437   2.040  18.724  0.00  0.00    +0.000 C 
ENDBRANCH  25  26
ENDBRANCH   9  25
TORSDOF 6
ENDMDL
MODEL 6
REMARK VINA RESULT:      -7.7      1.572      2.014
REMARK  Name = 
REMARK  12 active torsions:
REMARK  status: ('A' for Active; 'I' for Inactive)
REMARK    1  A    between atoms: C_1  and  C_2
REMARK    2  A    between atoms: C_2  and  C_3
REMARK    3  A    between atoms: C_2  and  O_4
REMARK    4  A    between atoms: O_4  and  C_5
REMARK    5  A    between atoms: C_8  and  N_9
REMARK    6  A    between atoms: N_14  and  C_15
REMARK    7  A    between atoms: C_15  and  C_16
REMARK    8  A    between atoms: C_15  and  C_17
REMARK    9  A    between atoms: N_20  and  C_21
REMARK   10  A    between atoms: C_21  and  C_22
REMARK   11  A    between atoms: N_24  and  C_25
REMARK   12  A    between atoms: N_24  and  C_26
REMARK                            x       y       z     vdW  Elec       q    Type
REMARK                         _______ _______ _______ _____ _____    ______ ____
ROOT
ATOM      1  N   UNL     1       2.319   6.266  18.786  0.00  0.00    +0.000 N 
ATOM      2  C   UNL     1       3.288   5.891  17.866  0.00  0.00    +0.000 A 
ATOM      3  N   UNL     1       3.945   6.782  17.209  0.00  0.00    +0.000 NA
ATOM      4  C   UNL     1       4.883   6.462  16.301  0.00  0.00    +0.000 A 
ATOM      5  O   UNL     1       5.264   7.303  15.486  0.00  0.00    +0.000 OA
ATOM      6  N   UNL     1       5.394   5.189  16.336  0.00  0.00    +0.000 N 
ATOM      7  C   UNL     1       4.686   4.175  16.942  0.00  0.00    +0.000 A 
ATOM      8  O   UNL     1       5.005   2.989  16.838  0.00  0.00    +0.000 OA
ATOM      9  N   UNL     1       3.560   4.555  17.658  0.00  0.00    +0.000 N 
ATOM     10  H   UNL     1       2.313   5.688  19.624  0.00  0.00    +0.000 HD
ENDROOT
BRANCH   1  14
ATOM     11  C   UNL     1       1.158  10.276  19.683  0.00  0.00    +0.000 A 
ATOM     12  C   UNL     1       1.417   9.911  18.368  0.00  0.00    +0.000 A 
ATOM     13  C   UNL     1       1.770   8.590  18.062  0.00  0.00    +0.000 A 
ATOM     14  C   UNL     1       1.930   7.611  19.056  0.00  0.00    +0.000 A 
ATOM     15  C   UNL     1       1.593   7.974  20.364  0.00  0.00    +0.000 A 
ATOM     16  C   UNL     1       1.196   9.284  20.662  0.00  0.00    +0.000 A 
ATOM     17  F   UNL     1       0.830   9.547  21.925  0.00  0.00    +0.000 F 
BRANCH  11  18
ATOM     18  O   UNL     1       0.833  11.590  19.873  0.00  0.00    +0.000 OA
BRANCH  18  20
ATOM     19  C   UNL     1      -0.039  13.310  18.458  0.00  0.00    +0.000 C 
ATOM     20  C   UNL     1       1.199  12.501  18.828  0.00  0.00    +0.000 C 
ATOM     21  C   UNL     1       2.304  13.411  19.349  0.00  0.00    +0.000 C 
ENDBRANCH  18  20
ENDBRANCH  11  18
ENDBRANCH   1  14
BRANCH   6  22
ATOM     22  C   UNL     1       6.616   4.932  15.558  0.00  0.00    +0.000 C 
ATOM     23  C   UNL     1       7.752   4.441  16.453  0.00  0.00    +0.000 C 
ATOM     24  C   UNL     1       6.391   4.028  14.347  0.00  0.00    +0.000 C 
ENDBRANCH   6  22
BRANCH   9  25
ATOM     25  C   UNL     1       2.681   3.477  18.141  0.00  0.00    +0.000 C 
BRANCH  25  26
ATOM     26  C   UNL     1       2.968   3.062  19.590  0.00  0.00    +0.000 C 
ATOM     27  O   UNL     1       4.127   2.830  19.948  0.00  0.00    +0.000 OA
ATOM     28  N   UNL     1       1.907   3.091  20.498  0.00  0.00    +0.000 N 
ATOM     29  C   UNL     1       0.553   3.536  20.193  0.00  0.00    +0.000 C 
ATOM     30  C   UNL     1       2.194   2.909  21.914  0.00  0.00    +0.000 C 
ENDBRANCH  25  26
ENDBRANCH   9  25
TORSDOF 6
ENDMDL
MODEL 7
REMARK VINA RESULT:      -7.7      1.477      1.853
REMARK  Name = 
REMARK  12 active torsions:
REMARK  status: ('A' for Active; 'I' for Inactive)
REMARK    1  A    between atoms: C_1  and  C_2
REMARK    2  A    between atoms: C_2  and  C_3
REMARK    3  A    between atoms: C_2  and  O_4
REMARK    4  A    between atoms: O_4  and  C_5
REMARK    5  A    between atoms: C_8  and  N_9
REMARK    6  A    between atoms: N_14  and  C_15
REMARK    7  A    between atoms: C_15  and  C_16
REMARK    8  A    between atoms: C_15  and  C_17
REMARK    9  A    between atoms: N_20  and  C_21
REMARK   10  A    between atoms: C_21  and  C_22
REMARK   11  A    between atoms: N_24  and  C_25
REMARK   12  A    between atoms: N_24  and  C_26
REMARK                            x       y       z     vdW  Elec       q    Type
REMARK                         _______ _______ _______ _____ _____    ______ ____
ROOT
ATOM      1  N   UNL     1       2.313   6.062  18.982  0.00  0.00    +0.000 N 
ATOM      2  C   UNL     1       3.254   5.784  18.002  0.00  0.00    +0.000 A 
ATOM      3  N   UNL     1       3.869   6.739  17.397  0.00  0.00    +0.000 NA
ATOM      4  C   UNL     1       4.780   6.514  16.434  0.00  0.00    +0.000 A 
ATOM      5  O   UNL     1       5.115   7.426  15.677  0.00  0.00    +0.000 OA
ATOM      6  N   UNL     1       5.316   5.254  16.347  0.00  0.00    +0.000 N 
ATOM      7  C   UNL     1       4.649   4.180  16.893  0.00  0.00    +0.000 A 
ATOM      8  O   UNL     1       4.987   3.013  16.682  0.00  0.00    +0.000 OA
ATOM      9  N   UNL     1       3.544   4.476  17.677  0.00  0.00    +0.000 N 
ATOM     10  H   UNL     1       2.347   5.419  19.770  0.00  0.00    +0.000 HD
ENDROOT
BRANCH   1  14
ATOM     11  C   UNL     1       1.109   9.961  20.242  0.00  0.00    +0.000 A 
ATOM     12  C   UNL     1       1.322   9.707  18.893  0.00  0.00    +0.000 A 
ATOM     13  C   UNL     1       1.688   8.423  18.468  0.00  0.00    +0.000 A 
ATOM     14  C   UNL     1       1.907   7.372  19.374  0.00  0.00    +0.000 A 
ATOM     15  C   UNL     1       1.617   7.623  20.719  0.00  0.00    +0.000 A 
ATOM     16  C   UNL     1       1.206   8.895  21.137  0.00  0.00    +0.000 A 
ATOM     17  F   UNL     1       0.887   9.049  22.429  0.00  0.00    +0.000 F 
BRANCH  11  18
ATOM     18  O   UNL     1       0.766  11.247  20.550  0.00  0.00    +0.000 OA
BRANCH  18  20
ATOM     19  C   UNL     1      -0.692  12.055  22.267  0.00  0.00    +0.000 C 
ATOM     20  C   UNL     1      -0.615  11.490  20.853  0.00  0.00    +0.000 C 
ATOM     21  C   UNL     1      -1.161  12.490  19.841  0.00  0.00    +0.000 C 
ENDBRANCH  18  20
ENDBRANCH  11  18
ENDBRANCH   1  14
BRANCH   6  22
ATOM     22  C   UNL     1       6.513   5.087  15.508  0.00  0.00    +0.000 C 
ATOM     23  C   UNL     1       7.695   4.568  16.325  0.00  0.00    +0.000 C 
ATOM     24  C   UNL     1       6.265   4.263  14.246  0.00  0.00    +0.000 C 
ENDBRANCH   6  22
BRANCH   9  25
ATOM     25  C   UNL     1       2.703   3.343  18.100  0.00  0.00    +0.000 C 
BRANCH  25  26
ATOM     26  C   UNL     1       2.996   2.871  19.531  0.00  0.00    +0.000 C 
ATOM     27  O   UNL     1       4.158   2.640  19.878  0.00  0.00    +0.000 OA
ATOM     28  N   UNL     1       1.935   2.845  20.439  0.00  0.00    +0.000 N 
ATOM     29  C   UNL     1       0.575   3.284  20.152  0.00  0.00    +0.000 C 
ATOM     30  C   UNL     1       2.226   2.607  21.846  0.00  0.00    +0.000 C 
ENDBRANCH  25  26
ENDBRANCH   9  25
TORSDOF 6
ENDMDL
MODEL 8
REMARK VINA RESULT:      -7.6      1.408      1.543
REMARK  Name = 
REMARK  12 active torsions:
REMARK  status: ('A' for Active; 'I' for Inactive)
REMARK    1  A    between atoms: C_1  and  C_2
REMARK    2  A    between atoms: C_2  and  C_3
REMARK    3  A    between atoms: C_2  and  O_4
REMARK    4  A    between atoms: O_4  and  C_5
REMARK    5  A    between atoms: C_8  and  N_9
REMARK    6  A    between atoms: N_14  and  C_15
REMARK    7  A    between atoms: C_15  and  C_16
REMARK    8  A    between atoms: C_15  and  C_17
REMARK    9  A    between atoms: N_20  and  C_21
REMARK   10  A    between atoms: C_21  and  C_22
REMARK   11  A    between atoms: N_24  and  C_25
REMARK   12  A    between atoms: N_24  and  C_26
REMARK                            x       y       z     vdW  Elec       q    Type
REMARK                         _______ _______ _______ _____ _____    ______ ____
ROOT
ATOM      1  N   UNL     1       1.938   7.253  18.727  0.00  0.00    +0.000 N 
ATOM      2  C   UNL     1       2.958   6.630  18.022  0.00  0.00    +0.000 A 
ATOM      3  N   UNL     1       3.878   7.326  17.451  0.00  0.00    +0.000 NA
ATOM      4  C   UNL     1       4.877   6.762  16.749  0.00  0.00    +0.000 A 
ATOM      5  O   UNL     1       5.547   7.446  15.974  0.00  0.00    +0.000 OA
ATOM      6  N   UNL     1       5.117   5.426  16.945  0.00  0.00    +0.000 N 
ATOM      7  C   UNL     1       4.132   4.615  17.464  0.00  0.00    +0.000 A 
ATOM      8  O   UNL     1       4.228   3.386  17.484  0.00  0.00    +0.000 OA
ATOM      9  N   UNL     1       2.997   5.254  17.939  0.00  0.00    +0.000 N 
ATOM     10  H   UNL     1       1.677   6.762  19.578  0.00  0.00    +0.000 HD
ENDROOT
BRANCH   1  14
ATOM     11  C   UNL     1       1.432  11.469  19.177  0.00  0.00    +0.000 A 
ATOM     12  C   UNL     1       1.969  10.961  18.002  0.00  0.00    +0.000 A 
ATOM     13  C   UNL     1       2.112   9.577  17.834  0.00  0.00    +0.000 A 
ATOM     14  C   UNL     1       1.777   8.665  18.848  0.00  0.00    +0.000 A 
ATOM     15  C   UNL     1       1.169   9.186  19.995  0.00  0.00    +0.000 A 
ATOM     16  C   UNL     1       0.986  10.567  20.142  0.00  0.00    +0.000 A 
ATOM     17  F   UNL     1       0.342  10.993  21.238  0.00  0.00    +0.000 F 
BRANCH  11  18
ATOM     18  O   UNL     1       1.348  12.832  19.242  0.00  0.00    +0.000 OA
BRANCH  18  20
ATOM     19  C   UNL     1       0.175  14.902  19.487  0.00  0.00    +0.000 C 
ATOM     20  C   UNL     1       0.032  13.389  19.373  0.00  0.00    +0.000 C 
ATOM     21  C   UNL     1      -0.774  13.014  18.136  0.00  0.00    +0.000 C 
ENDBRANCH  18  20
ENDBRANCH  11  18
ENDBRANCH   1  14
BRANCH   6  22
ATOM     22  C   UNL     1       6.380   4.884  16.420  0.00  0.00    +0.000 C 
ATOM     23  C   UNL     1       7.334   4.503  17.550  0.00  0.00    +0.000 C 
ATOM     24  C   UNL     1       6.188   3.756  15.408  0.00  0.00    +0.000 C 
ENDBRANCH   6  22
BRANCH   9  25
ATOM     25  C   UNL     1       1.856   4.400  18.309  0.00  0.00    +0.000 C 
BRANCH  25  26
ATOM     26  C   UNL     1       1.741   4.159  19.820  0.00  0.00    +0.000 C 
ATOM     27  O   UNL     1       1.431   5.089  20.571  0.00  0.00    +0.000 OA
ATOM     28  N   UNL     1       1.865   2.847  20.282  0.00  0.00    +0.000 N 
ATOM     29  C   UNL     1       2.042   1.673  19.437  0.00  0.00    +0.000 C 
ATOM     30  C   UNL     1       1.550   2.565  21.676  0.00  0.00    +0.000 C 
ENDBRANCH  25  26
ENDBRANCH   9  25
TORSDOF 6
ENDMDL
MODEL 9
REMARK VINA RESULT:      -7.6      1.725      2.362
REMARK  Name = 
REMARK  12 active torsions:
REMARK  status: ('A' for Active; 'I' for Inactive)
REMARK    1  A    between atoms: C_1  and  C_2
REMARK    2  A    between atoms: C_2  and  C_3
REMARK    3  A    between atoms: C_2  and  O_4
REMARK    4  A    between atoms: O_4  and  C_5
REMARK    5  A    between atoms: C_8  and  N_9
REMARK    6  A    between atoms: N_14  and  C_15
REMARK    7  A    between atoms: C_15  and  C_16
REMARK    8  A    between atoms: C_15  and  C_17
REMARK    9  A    between atoms: N_20  and  C_21
REMARK   10  A    between atoms: C_21  and  C_22
REMARK   11  A    between atoms: N_24  and  C_25
REMARK   12  A    between atoms: N_24  and  C_26
REMARK                            x       y       z     vdW  Elec       q    Type
REMARK                         _______ _______ _______ _____ _____    ______ ____
ROOT
ATOM      1  N   UNL     1       1.650   7.234  20.993  0.00  0.00    +0.000 N 
ATOM      2  C   UNL     1       2.421   7.020  19.860  0.00  0.00    +0.000 A 
ATOM      3  N   UNL     1       2.501   7.920  18.944  0.00  0.00    +0.000 NA
ATOM      4  C   UNL     1       3.228   7.748  17.825  0.00  0.00    +0.000 A 
ATOM      5  O   UNL     1       3.041   8.478  16.851  0.00  0.00    +0.000 OA
ATOM      6  N   UNL     1       4.174   6.755  17.828  0.00  0.00    +0.000 N 
ATOM      7  C   UNL     1       4.082   5.714  18.725  0.00  0.00    +0.000 A 
ATOM      8  O   UNL     1       4.790   4.708  18.648  0.00  0.00    +0.000 OA
ATOM      9  N   UNL     1       3.118   5.839  19.715  0.00  0.00    +0.000 N 
ATOM     10  H   UNL     1       2.075   6.877  21.845  0.00  0.00    +0.000 HD
ENDROOT
BRANCH   1  14
ATOM     11  C   UNL     1      -0.734  10.721  21.622  0.00  0.00    +0.000 A 
ATOM     12  C   UNL     1      -0.193  10.050  22.711  0.00  0.00    +0.000 A 
ATOM     13  C   UNL     1       0.614   8.922  22.512  0.00  0.00    +0.000 A 
ATOM     14  C   UNL     1       0.861   8.398  21.233  0.00  0.00    +0.000 A 
ATOM     15  C   UNL     1       0.373   9.127  20.143  0.00  0.00    +0.000 A 
ATOM     16  C   UNL     1      -0.397  10.281  20.342  0.00  0.00    +0.000 A 
ATOM     17  F   UNL     1      -0.782  10.964  19.255  0.00  0.00    +0.000 F 
BRANCH  11  18
ATOM     18  O   UNL     1      -1.514  11.801  21.927  0.00  0.00    +0.000 OA
BRANCH  18  20
ATOM     19  C   UNL     1      -0.081  13.716  21.938  0.00  0.00    +0.000 C 
ATOM     20  C   UNL     1      -0.937  12.788  22.793  0.00  0.00    +0.000 C 
ATOM     21  C   UNL     1      -2.067  13.560  23.463  0.00  0.00    +0.000 C 
ENDBRANCH  18  20
ENDBRANCH  11  18
ENDBRANCH   1  14
BRANCH   6  22
ATOM     22  C   UNL     1       5.162   6.762  16.738  0.00  0.00    +0.000 C 
ATOM     23  C   UNL     1       6.574   7.001  17.269  0.00  0.00    +0.000 C 
ATOM     24  C   UNL     1       5.076   5.539  15.827  0.00  0.00    +0.000 C 
ENDBRANCH   6  22
BRANCH   9  25
ATOM     25  C   UNL     1       2.867   4.656  20.555  0.00  0.00    +0.000 C 
BRANCH  25  26
ATOM     26  C   UNL     1       1.611   3.875  20.145  0.00  0.00    +0.000 C 
ATOM     27  O   UNL     1       0.493   4.375  20.306  0.00  0.00    +0.000 OA
ATOM     28  N   UNL     1       1.788   2.664  19.472  0.00  0.00    +0.000 N 
ATOM     29  C   UNL     1       3.074   2.102  19.079  0.00  0.00    +0.000 C 
ATOM     30  C   UNL     1       0.623   2.013  18.888  0.00  0.00    +0.000 C 
ENDBRANCH  25  26
ENDBRANCH   9  25
TORSDOF 6
ENDMDL
