MODEL 1
REMARK VINA RESULT:      -7.6      0.000      0.000
REMARK  Name = 
REMARK  7 active torsions:
REMARK  status: ('A' for Active; 'I' for Inactive)
REMARK    1  A    between atoms: C_2  and  C_11
REMARK    2  A    between atoms: N_3  and  C_4
REMARK    3  A    between atoms: C_4  and  C_5
REMARK    4  A    between atoms: C_11  and  C_12
REMARK    5  A    between atoms: C_11  and  N_17
REMARK    6  A    between atoms: N_17  and  C_25
REMARK    7  A    between atoms: C_18  and  C_20
REMARK                            x       y       z     vdW  Elec       q    Type
REMARK                         _______ _______ _______ _____ _____    ______ ____
ROOT
ATOM      1  C   UNL     1       0.740  11.518  18.653  0.00  0.00    +0.000 C 
ENDROOT
BRANCH   1   2
ATOM      2  C   UNL     1      -0.697  11.162  18.389  0.00  0.00    +0.000 A 
ATOM      3  C   UNL     1      -1.923  11.760  18.632  0.00  0.00    +0.000 A 
ATOM      4  C   UNL     1      -2.918  10.864  18.181  0.00  0.00    +0.000 A 
ATOM      5  C   UNL     1      -2.248   9.851  17.543  0.00  0.00    +0.000 A 
ATOM      6  O   UNL     1      -0.906  10.017  17.663  0.00  0.00    +0.000 OA
ENDBRANCH   1   2
BRANCH   1   8
ATOM      7  O   UNL     1       2.660  10.570  17.461  0.00  0.00    +0.000 OA
ATOM      8  C   UNL     1       1.717  10.366  18.211  0.00  0.00    +0.000 C 
ATOM      9  N   UNL     1       1.524   9.064  18.667  0.00  0.00    +0.000 N 
ATOM     10  H   UNL     1       0.643   8.820  19.096  0.00  0.00    +0.000 HD
BRANCH   9  11
ATOM     11  C   UNL     1       2.279   7.975  18.026  0.00  0.00    +0.000 C 
BRANCH  11  12
ATOM     12  C   UNL     1       2.238   6.595  18.661  0.00  0.00    +0.000 A 
ATOM     13  C   UNL     1       2.096   6.517  20.063  0.00  0.00    +0.000 A 
ATOM     14  C   UNL     1       1.960   5.285  20.722  0.00  0.00    +0.000 A 
ATOM     15  C   UNL     1       1.957   4.111  19.988  0.00  0.00    +0.000 A 
ATOM     16  C   UNL     1       2.047   4.166  18.597  0.00  0.00    +0.000 A 
ATOM     17  C   UNL     1       2.177   5.399  17.938  0.00  0.00    +0.000 A 
ENDBRANCH  11  12
ENDBRANCH   9  11
ENDBRANCH   1   8
BRANCH   1  18
ATOM     18  N   UNL     1       0.903  12.106  20.037  0.00  0.00    +0.000 N 
ATOM     19  C   UNL     1       1.639  13.293  20.397  0.00  0.00    +0.000 C 
ATOM     20  O   UNL     1       1.798  13.580  21.589  0.00  0.00    +0.000 OA
BRANCH  18  21
ATOM     21  C   UNL     1       0.416  11.251  21.151  0.00  0.00    +0.000 A 
ATOM     22  C   UNL     1      -0.698  11.594  21.941  0.00  0.00    +0.000 A 
ATOM     23  C   UNL     1      -1.132  10.815  23.032  0.00  0.00    +0.000 A 
ATOM     24  C   UNL     1      -0.470   9.637  23.353  0.00  0.00    +0.000 A 
ATOM     25  C   UNL     1       0.618   9.255  22.586  0.00  0.00    +0.000 A 
ATOM     26  C   UNL     1       1.052  10.045  21.505  0.00  0.00    +0.000 A 
ENDBRANCH  18  21
BRANCH  19  27
ATOM     27  C   UNL     1       2.268  14.253  19.463  0.00  0.00    +0.000 A 
ATOM     28  C   UNL     1       3.501  14.248  18.831  0.00  0.00    +0.000 A 
ATOM     29  S   UNL     1       3.710  15.735  17.994  0.00  0.00    +0.000 S 
ATOM     30  N   UNL     1       2.253  16.337  18.521  0.00  0.00    +0.000 NA
ATOM     31  N   UNL     1       1.595  15.485  19.286  0.00  0.00    +0.000 NA
ENDBRANCH  19  27
ENDBRANCH   1  18
TORSDOF 7
ENDMDL
MODEL 2
REMARK VINA RESULT:      -7.5      1.867      3.894
REMARK  Name = 
REMARK  7 active torsions:
REMARK  status: ('A' for Active; 'I' for Inactive)
REMARK    1  A    between atoms: C_2  and  C_11
REMARK    2  A    between atoms: N_3  and  C_4
REMARK    3  A    between atoms: C_4  and  C_5
REMARK    4  A    between atoms: C_11  and  C_12
REMARK    5  A    between atoms: C_11  and  N_17
REMARK    6  A    between atoms: N_17  and  C_25
REMARK    7  A    between atoms: C_18  and  C_20
REMARK                            x       y       z     vdW  Elec       q    Type
REMARK                         _______ _______ _______ _____ _____    ______ ____
ROOT
ATOM      1  C   UNL     1       0.006  10.152  18.996  0.00  0.00    +0.000 C 
ENDROOT
BRANCH   1   2
ATOM      2  C   UNL     1       0.002  10.111  20.499  0.00  0.00    +0.000 A 
ATOM      3  C   UNL     1      -0.836  10.582  21.497  0.00  0.00    +0.000 A 
ATOM      4  C   UNL     1      -0.232  10.258  22.733  0.00  0.00    +0.000 A 
ATOM      5  C   UNL     1       0.848   9.469  22.426  0.00  0.00    +0.000 A 
ATOM      6  O   UNL     1       1.002   9.374  21.080  0.00  0.00    +0.000 OA
ENDBRANCH   1   2
BRANCH   1   8
ATOM      7  O   UNL     1       2.055  10.392  17.675  0.00  0.00    +0.000 OA
ATOM      8  C   UNL     1       1.384   9.676  18.404  0.00  0.00    +0.000 C 
ATOM      9  N   UNL     1       1.878   8.407  18.696  0.00  0.00    +0.000 N 
ATOM     10  H   UNL     1       1.256   7.720  19.100  0.00  0.00    +0.000 HD
BRANCH   9  11
ATOM     11  C   UNL     1       3.018   7.898  17.916  0.00  0.00    +0.000 C 
BRANCH  11  12
ATOM     12  C   UNL     1       3.118   6.403  17.671  0.00  0.00    +0.000 A 
ATOM     13  C   UNL     1       4.326   5.899  17.143  0.00  0.00    +0.000 A 
ATOM     14  C   UNL     1       4.538   4.522  16.968  0.00  0.00    +0.000 A 
ATOM     15  C   UNL     1       3.545   3.626  17.325  0.00  0.00    +0.000 A 
ATOM     16  C   UNL     1       2.361   4.096  17.893  0.00  0.00    +0.000 A 
ATOM     17  C   UNL     1       2.153   5.473  18.074  0.00  0.00    +0.000 A 
ENDBRANCH  11  12
ENDBRANCH   9  11
ENDBRANCH   1   8
BRANCH   1  18
ATOM     18  N   UNL     1      -0.582  11.451  18.491  0.00  0.00    +0.000 N 
ATOM     19  C   UNL     1      -0.070  12.781  18.710  0.00  0.00    +0.000 C 
ATOM     20  O   UNL     1      -0.730  13.761  18.349  0.00  0.00    +0.000 OA
BRANCH  18  21
ATOM     21  C   UNL     1      -1.933  11.341  17.879  0.00  0.00    +0.000 A 
ATOM     22  C   UNL     1      -2.130  10.986  16.531  0.00  0.00    +0.000 A 
ATOM     23  C   UNL     1      -3.404  10.933  15.932  0.00  0.00    +0.000 A 
ATOM     24  C   UNL     1      -4.539  11.212  16.683  0.00  0.00    +0.000 A 
ATOM     25  C   UNL     1      -4.387  11.545  18.018  0.00  0.00    +0.000 A 
ATOM     26  C   UNL     1      -3.110  11.608  18.606  0.00  0.00    +0.000 A 
ENDBRANCH  18  21
BRANCH  19  27
ATOM     27  C   UNL     1       1.215  13.131  19.356  0.00  0.00    +0.000 A 
ATOM     28  C   UNL     1       1.573  13.243  20.690  0.00  0.00    +0.000 A 
ATOM     29  S   UNL     1       3.180  13.845  20.792  0.00  0.00    +0.000 S 
ATOM     30  N   UNL     1       3.324  13.990  19.142  0.00  0.00    +0.000 NA
ATOM     31  N   UNL     1       2.238  13.600  18.499  0.00  0.00    +0.000 NA
ENDBRANCH  19  27
ENDBRANCH   1  18
TORSDOF 7
ENDMDL
MODEL 3
REMARK VINA RESULT:      -7.4      1.827      3.765
REMARK  Name = 
REMARK  7 active torsions:
REMARK  status: ('A' for Active; 'I' for Inactive)
REMARK    1  A    between atoms: C_2  and  C_11
REMARK    2  A    between atoms: N_3  and  C_4
REMARK    3  A    between atoms: C_4  and  C_5
REMARK    4  A    between atoms: C_11  and  C_12
REMARK    5  A    between atoms: C_11  and  N_17
REMARK    6  A    between atoms: N_17  and  C_25
REMARK    7  A    between atoms: C_18  and  C_20
REMARK                            x       y       z     vdW  Elec       q    Type
REMARK                         _______ _______ _______ _____ _____    ______ ____
ROOT
ATOM      1  C   UNL     1      -0.521  10.292  19.566  0.00  0.00    +0.000 C 
ENDROOT
BRANCH   1   2
ATOM      2  C   UNL     1      -0.744  10.602  21.021  0.00  0.00    +0.000 A 
ATOM      3  C   UNL     1      -1.387  11.603  21.730  0.00  0.00    +0.000 A 
ATOM      4  C   UNL     1      -1.178  11.341  23.102  0.00  0.00    +0.000 A 
ATOM      5  C   UNL     1      -0.566  10.114  23.159  0.00  0.00    +0.000 A 
ATOM      6  O   UNL     1      -0.296   9.657  21.909  0.00  0.00    +0.000 OA
ENDBRANCH   1   2
BRANCH   1   8
ATOM      7  O   UNL     1       1.631   9.910  18.458  0.00  0.00    +0.000 OA
ATOM      8  C   UNL     1       0.850   9.558  19.330  0.00  0.00    +0.000 C 
ATOM      9  N   UNL     1       1.212   8.468  20.118  0.00  0.00    +0.000 N 
ATOM     10  H   UNL     1       0.507   8.017  20.685  0.00  0.00    +0.000 HD
BRANCH   9  11
ATOM     11  C   UNL     1       2.358   7.644  19.699  0.00  0.00    +0.000 C 
BRANCH  11  12
ATOM     12  C   UNL     1       2.123   6.172  19.407  0.00  0.00    +0.000 A 
ATOM     13  C   UNL     1       1.626   5.363  20.452  0.00  0.00    +0.000 A 
ATOM     14  C   UNL     1       1.296   4.014  20.247  0.00  0.00    +0.000 A 
ATOM     15  C   UNL     1       1.453   3.453  18.990  0.00  0.00    +0.000 A 
ATOM     16  C   UNL     1       1.897   4.245  17.931  0.00  0.00    +0.000 A 
ATOM     17  C   UNL     1       2.220   5.597  18.136  0.00  0.00    +0.000 A 
ENDBRANCH  11  12
ENDBRANCH   9  11
ENDBRANCH   1   8
BRANCH   1  18
ATOM     18  N   UNL     1      -0.850  11.492  18.705  0.00  0.00    +0.000 N 
ATOM     19  C   UNL     1      -0.148  12.750  18.661  0.00  0.00    +0.000 C 
ATOM     20  O   UNL     1      -0.611  13.690  18.005  0.00  0.00    +0.000 OA
BRANCH  18  21
ATOM     21  C   UNL     1      -2.149  11.420  17.985  0.00  0.00    +0.000 A 
ATOM     22  C   UNL     1      -3.370  11.790  18.581  0.00  0.00    +0.000 A 
ATOM     23  C   UNL     1      -4.609  11.674  17.922  0.00  0.00    +0.000 A 
ATOM     24  C   UNL     1      -4.663  11.201  16.617  0.00  0.00    +0.000 A 
ATOM     25  C   UNL     1      -3.481  10.846  15.990  0.00  0.00    +0.000 A 
ATOM     26  C   UNL     1      -2.248  10.954  16.659  0.00  0.00    +0.000 A 
ENDBRANCH  18  21
BRANCH  19  27
ATOM     27  C   UNL     1       1.122  13.071  19.350  0.00  0.00    +0.000 A 
ATOM     28  C   UNL     1       1.397  13.395  20.668  0.00  0.00    +0.000 A 
ATOM     29  S   UNL     1       3.057  13.821  20.809  0.00  0.00    +0.000 S 
ATOM     30  N   UNL     1       3.333  13.631  19.181  0.00  0.00    +0.000 NA
ATOM     31  N   UNL     1       2.255  13.250  18.521  0.00  0.00    +0.000 NA
ENDBRANCH  19  27
ENDBRANCH   1  18
TORSDOF 7
ENDMDL
MODEL 4
REMARK VINA RESULT:      -7.3      4.814      8.951
REMARK  Name = 
REMARK  7 active torsions:
REMARK  status: ('A' for Active; 'I' for Inactive)
REMARK    1  A    between atoms: C_2  and  C_11
REMARK    2  A    between atoms: N_3  and  C_4
REMARK    3  A    between atoms: C_4  and  C_5
REMARK    4  A    between atoms: C_11  and  C_12
REMARK    5  A    between atoms: C_11  and  N_17
REMARK    6  A    between atoms: N_17  and  C_25
REMARK    7  A    between atoms: C_18  and  C_20
REMARK                            x       y       z     vdW  Elec       q    Type
REMARK                         _______ _______ _______ _____ _____    ______ ____
ROOT
ATOM      1  C   UNL     1       4.934   6.154  17.074  0.00  0.00    +0.000 C 
ENDROOT
BRANCH   1   2
ATOM      2  C   UNL     1       6.259   6.643  17.591  0.00  0.00    +0.000 A 
ATOM      3  C   UNL     1       7.223   6.153  18.456  0.00  0.00    +0.000 A 
ATOM      4  C   UNL     1       8.225   7.143  18.566  0.00  0.00    +0.000 A 
ATOM      5  C   UNL     1       7.903   8.105  17.642  0.00  0.00    +0.000 A 
ATOM      6  O   UNL     1       6.717   7.817  17.047  0.00  0.00    +0.000 OA
ENDBRANCH   1   2
BRANCH   1   8
ATOM      7  O   UNL     1       3.417   6.469  18.972  0.00  0.00    +0.000 OA
ATOM      8  C   UNL     1       3.730   6.814  17.842  0.00  0.00    +0.000 C 
ATOM      9  N   UNL     1       2.975   7.820  17.243  0.00  0.00    +0.000 N 
ATOM     10  H   UNL     1       3.059   7.968  16.247  0.00  0.00    +0.000 HD
BRANCH   9  11
ATOM     11  C   UNL     1       1.705   8.217  17.871  0.00  0.00    +0.000 C 
BRANCH  11  12
ATOM     12  C   UNL     1       1.466   9.690  18.153  0.00  0.00    +0.000 A 
ATOM     13  C   UNL     1       0.289  10.049  18.846  0.00  0.00    +0.000 A 
ATOM     14  C   UNL     1       0.033  11.375  19.226  0.00  0.00    +0.000 A 
ATOM     15  C   UNL     1       0.953  12.366  18.925  0.00  0.00    +0.000 A 
ATOM     16  C   UNL     1       2.145  12.029  18.284  0.00  0.00    +0.000 A 
ATOM     17  C   UNL     1       2.404  10.700  17.909  0.00  0.00    +0.000 A 
ENDBRANCH  11  12
ENDBRANCH   9  11
ENDBRANCH   1   8
BRANCH   1  18
ATOM     18  N   UNL     1       4.943   4.651  16.909  0.00  0.00    +0.000 N 
ATOM     19  C   UNL     1       5.500   3.899  15.812  0.00  0.00    +0.000 C 
ATOM     20  O   UNL     1       5.315   2.678  15.747  0.00  0.00    +0.000 OA
BRANCH  18  21
ATOM     21  C   UNL     1       4.113   3.900  17.888  0.00  0.00    +0.000 A 
ATOM     22  C   UNL     1       2.763   3.576  17.650  0.00  0.00    +0.000 A 
ATOM     23  C   UNL     1       1.958   2.912  18.595  0.00  0.00    +0.000 A 
ATOM     24  C   UNL     1       2.494   2.522  19.817  0.00  0.00    +0.000 A 
ATOM     25  C   UNL     1       3.823   2.805  20.079  0.00  0.00    +0.000 A 
ATOM     26  C   UNL     1       4.619   3.479  19.134  0.00  0.00    +0.000 A 
ENDBRANCH  18  21
BRANCH  19  27
ATOM     27  C   UNL     1       6.300   4.442  14.692  0.00  0.00    +0.000 A 
ATOM     28  C   UNL     1       6.244   4.215  13.326  0.00  0.00    +0.000 A 
ATOM     29  S   UNL     1       7.555   5.027  12.567  0.00  0.00    +0.000 S 
ATOM     30  N   UNL     1       8.165   5.578  14.012  0.00  0.00    +0.000 NA
ATOM     31  N   UNL     1       7.437   5.205  15.049  0.00  0.00    +0.000 NA
ENDBRANCH  19  27
ENDBRANCH   1  18
TORSDOF 7
ENDMDL
MODEL 5
REMARK VINA RESULT:      -7.3      2.601      4.533
REMARK  Name = 
REMARK  7 active torsions:
REMARK  status: ('A' for Active; 'I' for Inactive)
REMARK    1  A    between atoms: C_2  and  C_11
REMARK    2  A    between atoms: N_3  and  C_4
REMARK    3  A    between atoms: C_4  and  C_5
REMARK    4  A    between atoms: C_11  and  C_12
REMARK    5  A    between atoms: C_11  and  N_17
REMARK    6  A    between atoms: N_17  and  C_25
REMARK    7  A    between atoms: C_18  and  C_20
REMARK                            x       y       z     vdW  Elec       q    Type
REMARK                         _______ _______ _______ _____ _____    ______ ____
ROOT
ATOM      1  C   UNL     1       0.076  10.191  19.558  0.00  0.00    +0.000 C 
ENDROOT
BRANCH   1   2
ATOM      2  C   UNL     1       0.006  10.058  21.055  0.00  0.00    +0.000 A 
ATOM      3  C   UNL     1       0.761   9.421  22.026  0.00  0.00    +0.000 A 
ATOM      4  C   UNL     1       0.116   9.642  23.264  0.00  0.00    +0.000 A 
ATOM      5  C   UNL     1      -0.897  10.531  23.005  0.00  0.00    +0.000 A 
ATOM      6  O   UNL     1      -0.976  10.789  21.674  0.00  0.00    +0.000 OA
ENDBRANCH   1   2
BRANCH   1   8
ATOM      7  O   UNL     1       1.602   9.428  17.800  0.00  0.00    +0.000 OA
ATOM      8  C   UNL     1       1.203   9.279  18.945  0.00  0.00    +0.000 C 
ATOM      9  N   UNL     1       1.778   8.262  19.703  0.00  0.00    +0.000 N 
ATOM     10  H   UNL     1       1.324   7.969  20.556  0.00  0.00    +0.000 HD
BRANCH   9  11
ATOM     11  C   UNL     1       2.621   7.266  19.020  0.00  0.00    +0.000 C 
BRANCH  11  12
ATOM     12  C   UNL     1       2.208   5.805  19.081  0.00  0.00    +0.000 A 
ATOM     13  C   UNL     1       1.754   5.298  20.318  0.00  0.00    +0.000 A 
ATOM     14  C   UNL     1       1.269   3.986  20.443  0.00  0.00    +0.000 A 
ATOM     15  C   UNL     1       1.225   3.162  19.331  0.00  0.00    +0.000 A 
ATOM     16  C   UNL     1       1.624   3.656  18.089  0.00  0.00    +0.000 A 
ATOM     17  C   UNL     1       2.102   4.971  17.963  0.00  0.00    +0.000 A 
ENDBRANCH  11  12
ENDBRANCH   9  11
ENDBRANCH   1   8
BRANCH   1  18
ATOM     18  N   UNL     1       0.025  11.645  19.144  0.00  0.00    +0.000 N 
ATOM     19  C   UNL     1      -1.009  12.296  18.380  0.00  0.00    +0.000 C 
ATOM     20  O   UNL     1      -0.852  13.462  18.001  0.00  0.00    +0.000 OA
BRANCH  18  21
ATOM     21  C   UNL     1       1.272  12.418  19.388  0.00  0.00    +0.000 A 
ATOM     22  C   UNL     1       1.618  12.921  20.656  0.00  0.00    +0.000 A 
ATOM     23  C   UNL     1       2.770  13.700  20.882  0.00  0.00    +0.000 A 
ATOM     24  C   UNL     1       3.638  13.981  19.834  0.00  0.00    +0.000 A 
ATOM     25  C   UNL     1       3.341  13.486  18.575  0.00  0.00    +0.000 A 
ATOM     26  C   UNL     1       2.183  12.718  18.356  0.00  0.00    +0.000 A 
ENDBRANCH  18  21
BRANCH  19  27
ATOM     27  C   UNL     1      -2.300  11.702  17.965  0.00  0.00    +0.000 A 
ATOM     28  C   UNL     1      -3.554  11.723  18.555  0.00  0.00    +0.000 A 
ATOM     29  S   UNL     1      -4.612  10.705  17.661  0.00  0.00    +0.000 S 
ATOM     30  N   UNL     1      -3.415  10.241  16.605  0.00  0.00    +0.000 NA
ATOM     31  N   UNL     1      -2.254  10.814  16.865  0.00  0.00    +0.000 NA
ENDBRANCH  19  27
ENDBRANCH   1  18
TORSDOF 7
ENDMDL
MODEL 6
REMARK VINA RESULT:      -7.2      1.833      3.941
REMARK  Name = 
REMARK  7 active torsions:
REMARK  status: ('A' for Active; 'I' for Inactive)
REMARK    1  A    between atoms: C_2  and  C_11
REMARK    2  A    between atoms: N_3  and  C_4
REMARK    3  A    between atoms: C_4  and  C_5
REMARK    4  A    between atoms: C_11  and  C_12
REMARK    5  A    between atoms: C_11  and  N_17
REMARK    6  A    between atoms: N_17  and  C_25
REMARK    7  A    between atoms: C_18  and  C_20
REMARK                            x       y       z     vdW  Elec       q    Type
REMARK                         _______ _______ _______ _____ _____    ______ ____
ROOT
ATOM      1  C   UNL     1      -0.550  10.287  19.562  0.00  0.00    +0.000 C 
ENDROOT
BRANCH   1   2
ATOM      2  C   UNL     1      -0.776  10.636  21.008  0.00  0.00    +0.000 A 
ATOM      3  C   UNL     1      -1.423  11.655  21.688  0.00  0.00    +0.000 A 
ATOM      4  C   UNL     1      -1.214  11.431  23.068  0.00  0.00    +0.000 A 
ATOM      5  C   UNL     1      -0.597  10.209  23.159  0.00  0.00    +0.000 A 
ATOM      6  O   UNL     1      -0.325   9.718  21.922  0.00  0.00    +0.000 OA
ENDBRANCH   1   2
BRANCH   1   8
ATOM      7  O   UNL     1       1.590   9.846  18.453  0.00  0.00    +0.000 OA
ATOM      8  C   UNL     1       0.818   9.539  19.350  0.00  0.00    +0.000 C 
ATOM      9  N   UNL     1       1.186   8.490  20.188  0.00  0.00    +0.000 N 
ATOM     10  H   UNL     1       0.487   8.069  20.784  0.00  0.00    +0.000 HD
BRANCH   9  11
ATOM     11  C   UNL     1       2.327   7.644  19.799  0.00  0.00    +0.000 C 
BRANCH  11  12
ATOM     12  C   UNL     1       2.068   6.183  19.475  0.00  0.00    +0.000 A 
ATOM     13  C   UNL     1       2.333   5.742  18.160  0.00  0.00    +0.000 A 
ATOM     14  C   UNL     1       2.207   4.391  17.797  0.00  0.00    +0.000 A 
ATOM     15  C   UNL     1       1.821   3.459  18.745  0.00  0.00    +0.000 A 
ATOM     16  C   UNL     1       1.600   3.864  20.062  0.00  0.00    +0.000 A 
ATOM     17  C   UNL     1       1.733   5.214  20.426  0.00  0.00    +0.000 A 
ENDBRANCH  11  12
ENDBRANCH   9  11
ENDBRANCH   1   8
BRANCH   1  18
ATOM     18  N   UNL     1      -0.871  11.464  18.669  0.00  0.00    +0.000 N 
ATOM     19  C   UNL     1      -0.167  12.721  18.599  0.00  0.00    +0.000 C 
ATOM     20  O   UNL     1      -0.624  13.644  17.916  0.00  0.00    +0.000 OA
BRANCH  18  21
ATOM     21  C   UNL     1      -2.164  11.375  17.940  0.00  0.00    +0.000 A 
ATOM     22  C   UNL     1      -2.257  10.927  16.608  0.00  0.00    +0.000 A 
ATOM     23  C   UNL     1      -3.471  10.890  15.896  0.00  0.00    +0.000 A 
ATOM     24  C   UNL     1      -4.653  11.283  16.513  0.00  0.00    +0.000 A 
ATOM     25  C   UNL     1      -4.605  11.710  17.829  0.00  0.00    +0.000 A 
ATOM     26  C   UNL     1      -3.386  11.754  18.530  0.00  0.00    +0.000 A 
ENDBRANCH  18  21
BRANCH  19  27
ATOM     27  C   UNL     1       1.098  13.058  19.290  0.00  0.00    +0.000 A 
ATOM     28  C   UNL     1       1.372  13.348  20.617  0.00  0.00    +0.000 A 
ATOM     29  S   UNL     1       3.019  13.818  20.761  0.00  0.00    +0.000 S 
ATOM     30  N   UNL     1       3.290  13.690  19.126  0.00  0.00    +0.000 NA
ATOM     31  N   UNL     1       2.218  13.297  18.460  0.00  0.00    +0.000 NA
ENDBRANCH  19  27
ENDBRANCH   1  18
TORSDOF 7
ENDMDL
MODEL 7
REMARK VINA RESULT:      -7.2      2.963      4.794
REMARK  Name = 
REMARK  7 active torsions:
REMARK  status: ('A' for Active; 'I' for Inactive)
REMARK    1  A    between atoms: C_2  and  C_11
REMARK    2  A    between atoms: N_3  and  C_4
REMARK    3  A    between atoms: C_4  and  C_5
REMARK    4  A    between atoms: C_11  and  C_12
REMARK    5  A    between atoms: C_11  and  N_17
REMARK    6  A    between atoms: N_17  and  C_25
REMARK    7  A    between atoms: C_18  and  C_20
REMARK                            x       y       z     vdW  Elec       q    Type
REMARK                         _______ _______ _______ _____ _____    ______ ____
ROOT
ATOM      1  C   UNL     1      -0.882  10.931  20.007  0.00  0.00    +0.000 C 
ENDROOT
BRANCH   1   2
ATOM      2  C   UNL     1      -0.543  10.238  21.298  0.00  0.00    +0.000 A 
ATOM      3  C   UNL     1      -0.533  10.593  22.636  0.00  0.00    +0.000 A 
ATOM      4  C   UNL     1      -0.048   9.479  23.359  0.00  0.00    +0.000 A 
ATOM      5  C   UNL     1       0.054   8.459  22.447  0.00  0.00    +0.000 A 
ATOM      6  O   UNL     1      -0.240   8.903  21.198  0.00  0.00    +0.000 OA
ENDBRANCH   1   2
BRANCH   1   8
ATOM      7  O   UNL     1      -0.660  10.130  17.702  0.00  0.00    +0.000 OA
ATOM      8  C   UNL     1      -0.120  10.296  18.786  0.00  0.00    +0.000 C 
ATOM      9  N   UNL     1       1.208   9.895  18.913  0.00  0.00    +0.000 N 
ATOM     10  H   UNL     1       1.607   9.809  19.837  0.00  0.00    +0.000 HD
BRANCH   9  11
ATOM     11  C   UNL     1       1.799   9.065  17.851  0.00  0.00    +0.000 C 
BRANCH  11  12
ATOM     12  C   UNL     1       2.635   7.862  18.253  0.00  0.00    +0.000 A 
ATOM     13  C   UNL     1       2.248   7.143  19.404  0.00  0.00    +0.000 A 
ATOM     14  C   UNL     1       2.909   5.969  19.797  0.00  0.00    +0.000 A 
ATOM     15  C   UNL     1       3.965   5.491  19.040  0.00  0.00    +0.000 A 
ATOM     16  C   UNL     1       4.335   6.157  17.872  0.00  0.00    +0.000 A 
ATOM     17  C   UNL     1       3.669   7.328  17.476  0.00  0.00    +0.000 A 
ENDBRANCH  11  12
ENDBRANCH   9  11
ENDBRANCH   1   8
BRANCH   1  18
ATOM     18  N   UNL     1      -0.839  12.434  20.177  0.00  0.00    +0.000 N 
ATOM     19  C   UNL     1      -1.954  13.314  20.423  0.00  0.00    +0.000 C 
ATOM     20  O   UNL     1      -1.786  14.539  20.407  0.00  0.00    +0.000 OA
BRANCH  18  21
ATOM     21  C   UNL     1       0.465  13.072  19.854  0.00  0.00    +0.000 A 
ATOM     22  C   UNL     1       1.484  13.242  20.810  0.00  0.00    +0.000 A 
ATOM     23  C   UNL     1       2.700  13.894  20.525  0.00  0.00    +0.000 A 
ATOM     24  C   UNL     1       2.947  14.378  19.246  0.00  0.00    +0.000 A 
ATOM     25  C   UNL     1       1.976  14.211  18.274  0.00  0.00    +0.000 A 
ATOM     26  C   UNL     1       0.760  13.569  18.570  0.00  0.00    +0.000 A 
ENDBRANCH  18  21
BRANCH  19  27
ATOM     27  C   UNL     1      -3.350  12.906  20.700  0.00  0.00    +0.000 A 
ATOM     28  C   UNL     1      -4.460  12.809  19.876  0.00  0.00    +0.000 A 
ATOM     29  S   UNL     1      -5.838  12.433  20.832  0.00  0.00    +0.000 S 
ATOM     30  N   UNL     1      -4.972  12.469  22.251  0.00  0.00    +0.000 NA
ATOM     31  N   UNL     1      -3.693  12.735  22.062  0.00  0.00    +0.000 NA
ENDBRANCH  19  27
ENDBRANCH   1  18
TORSDOF 7
ENDMDL
MODEL 8
REMARK VINA RESULT:      -7.2      5.425      8.489
REMARK  Name = 
REMARK  7 active torsions:
REMARK  status: ('A' for Active; 'I' for Inactive)
REMARK    1  A    between atoms: C_2  and  C_11
REMARK    2  A    between atoms: N_3  and  C_4
REMARK    3  A    between atoms: C_4  and  C_5
REMARK    4  A    between atoms: C_11  and  C_12
REMARK    5  A    between atoms: C_11  and  N_17
REMARK    6  A    between atoms: N_17  and  C_25
REMARK    7  A    between atoms: C_18  and  C_20
REMARK                            x       y       z     vdW  Elec       q    Type
REMARK                         _______ _______ _______ _____ _____    ______ ____
ROOT
ATOM      1  C   UNL     1       4.651   5.714  19.009  0.00  0.00    +0.000 C 
ENDROOT
BRANCH   1   2
ATOM      2  C   UNL     1       3.717   6.829  18.627  0.00  0.00    +0.000 A 
ATOM      3  C   UNL     1       3.499   7.587  17.488  0.00  0.00    +0.000 A 
ATOM      4  C   UNL     1       2.496   8.531  17.804  0.00  0.00    +0.000 A 
ATOM      5  C   UNL     1       2.044   8.193  19.054  0.00  0.00    +0.000 A 
ATOM      6  O   UNL     1       2.775   7.168  19.564  0.00  0.00    +0.000 OA
ENDBRANCH   1   2
BRANCH   1   8
ATOM      7  O   UNL     1       7.083   5.423  19.089  0.00  0.00    +0.000 OA
ATOM      8  C   UNL     1       6.140   6.041  18.617  0.00  0.00    +0.000 C 
ATOM      9  N   UNL     1       6.425   7.062  17.714  0.00  0.00    +0.000 N 
ATOM     10  H   UNL     1       5.701   7.728  17.483  0.00  0.00    +0.000 HD
BRANCH   9  11
ATOM     11  C   UNL     1       7.818   7.517  17.581  0.00  0.00    +0.000 C 
BRANCH  11  12
ATOM     12  C   UNL     1       8.165   8.926  18.029  0.00  0.00    +0.000 A 
ATOM     13  C   UNL     1       9.025   9.074  19.139  0.00  0.00    +0.000 A 
ATOM     14  C   UNL     1       9.469  10.335  19.565  0.00  0.00    +0.000 A 
ATOM     15  C   UNL     1       9.064  11.471  18.884  0.00  0.00    +0.000 A 
ATOM     16  C   UNL     1       8.253  11.347  17.756  0.00  0.00    +0.000 A 
ATOM     17  C   UNL     1       7.815  10.084  17.326  0.00  0.00    +0.000 A 
ENDBRANCH  11  12
ENDBRANCH   9  11
ENDBRANCH   1   8
BRANCH   1  18
ATOM     18  N   UNL     1       4.081   4.373  18.604  0.00  0.00    +0.000 N 
ATOM     19  C   UNL     1       4.247   3.703  17.338  0.00  0.00    +0.000 C 
ATOM     20  O   UNL     1       3.611   2.670  17.101  0.00  0.00    +0.000 OA
BRANCH  18  21
ATOM     21  C   UNL     1       3.087   3.795  19.547  0.00  0.00    +0.000 A 
ATOM     22  C   UNL     1       3.461   3.055  20.685  0.00  0.00    +0.000 A 
ATOM     23  C   UNL     1       2.524   2.460  21.552  0.00  0.00    +0.000 A 
ATOM     24  C   UNL     1       1.163   2.612  21.318  0.00  0.00    +0.000 A 
ATOM     25  C   UNL     1       0.757   3.351  20.220  0.00  0.00    +0.000 A 
ATOM     26  C   UNL     1       1.699   3.932  19.352  0.00  0.00    +0.000 A 
ENDBRANCH  18  21
BRANCH  19  27
ATOM     27  C   UNL     1       5.127   4.130  16.227  0.00  0.00    +0.000 A 
ATOM     28  C   UNL     1       6.304   3.595  15.728  0.00  0.00    +0.000 A 
ATOM     29  S   UNL     1       6.935   4.650  14.526  0.00  0.00    +0.000 S 
ATOM     30  N   UNL     1       5.718   5.762  14.738  0.00  0.00    +0.000 NA
ATOM     31  N   UNL     1       4.841   5.392  15.654  0.00  0.00    +0.000 NA
ENDBRANCH  19  27
ENDBRANCH   1  18
TORSDOF 7
ENDMDL
MODEL 9
REMARK VINA RESULT:      -7.1      1.826      3.829
REMARK  Name = 
REMARK  7 active torsions:
REMARK  status: ('A' for Active; 'I' for Inactive)
REMARK    1  A    between atoms: C_2  and  C_11
REMARK    2  A    between atoms: N_3  and  C_4
REMARK    3  A    between atoms: C_4  and  C_5
REMARK    4  A    between atoms: C_11  and  C_12
REMARK    5  A    between atoms: C_11  and  N_17
REMARK    6  A    between atoms: N_17  and  C_25
REMARK    7  A    between atoms: C_18  and  C_20
REMARK                            x       y       z     vdW  Elec       q    Type
REMARK                         _______ _______ _______ _____ _____    ______ ____
ROOT
ATOM      1  C   UNL     1       0.036  10.164  19.048  0.00  0.00    +0.000 C 
ENDROOT
BRANCH   1   2
ATOM      2  C   UNL     1       0.056  10.114  20.551  0.00  0.00    +0.000 A 
ATOM      3  C   UNL     1       0.893   9.569  21.510  0.00  0.00    +0.000 A 
ATOM      4  C   UNL     1       0.309   9.831  22.769  0.00  0.00    +0.000 A 
ATOM      5  C   UNL     1      -0.758  10.657  22.522  0.00  0.00    +0.000 A 
ATOM      6  O   UNL     1      -0.924  10.835  21.185  0.00  0.00    +0.000 OA
ENDBRANCH   1   2
BRANCH   1   8
ATOM      7  O   UNL     1       2.076  10.420  17.715  0.00  0.00    +0.000 OA
ATOM      8  C   UNL     1       1.405   9.692  18.431  0.00  0.00    +0.000 C 
ATOM      9  N   UNL     1       1.891   8.412  18.687  0.00  0.00    +0.000 N 
ATOM     10  H   UNL     1       1.267   7.721  19.079  0.00  0.00    +0.000 HD
BRANCH   9  11
ATOM     11  C   UNL     1       3.020   7.914  17.885  0.00  0.00    +0.000 C 
BRANCH  11  12
ATOM     12  C   UNL     1       3.146   6.417  17.662  0.00  0.00    +0.000 A 
ATOM     13  C   UNL     1       4.362   5.926  17.139  0.00  0.00    +0.000 A 
ATOM     14  C   UNL     1       4.597   4.551  16.986  0.00  0.00    +0.000 A 
ATOM     15  C   UNL     1       3.620   3.642  17.359  0.00  0.00    +0.000 A 
ATOM     16  C   UNL     1       2.430   4.101  17.923  0.00  0.00    +0.000 A 
ATOM     17  C   UNL     1       2.198   5.477  18.083  0.00  0.00    +0.000 A 
ENDBRANCH  11  12
ENDBRANCH   9  11
ENDBRANCH   1   8
BRANCH   1  18
ATOM     18  N   UNL     1      -0.559  11.466  18.560  0.00  0.00    +0.000 N 
ATOM     19  C   UNL     1      -0.058  12.797  18.802  0.00  0.00    +0.000 C 
ATOM     20  O   UNL     1      -0.725  13.778  18.453  0.00  0.00    +0.000 OA
BRANCH  18  21
ATOM     21  C   UNL     1      -1.906  11.356  17.941  0.00  0.00    +0.000 A 
ATOM     22  C   UNL     1      -3.091  11.663  18.638  0.00  0.00    +0.000 A 
ATOM     23  C   UNL     1      -4.372  11.509  18.075  0.00  0.00    +0.000 A 
ATOM     24  C   UNL     1      -4.509  11.063  16.766  0.00  0.00    +0.000 A 
ATOM     25  C   UNL     1      -3.366  10.771  16.041  0.00  0.00    +0.000 A 
ATOM     26  C   UNL     1      -2.090  10.916  16.615  0.00  0.00    +0.000 A 
ENDBRANCH  18  21
BRANCH  19  27
ATOM     27  C   UNL     1       1.221  13.147  19.459  0.00  0.00    +0.000 A 
ATOM     28  C   UNL     1       1.566  13.264  20.795  0.00  0.00    +0.000 A 
ATOM     29  S   UNL     1       3.174  13.862  20.911  0.00  0.00    +0.000 S 
ATOM     30  N   UNL     1       3.334  14.000  19.262  0.00  0.00    +0.000 NA
ATOM     31  N   UNL     1       2.254  13.609  18.609  0.00  0.00    +0.000 NA
ENDBRANCH  19  27
ENDBRANCH   1  18
TORSDOF 7
ENDMDL
