MODEL 1
REMARK VINA RESULT:      -8.0      0.000      0.000
REMARK  Name = 
REMARK  8 active torsions:
REMARK  status: ('A' for Active; 'I' for Inactive)
REMARK    1  A    between atoms: N_1  and  C_2
REMARK    2  A    between atoms: C_7  and  C_8
REMARK    3  A    between atoms: C_8  and  O_10
REMARK    4  A    between atoms: O_10  and  C_11
REMARK    5  A    between atoms: C_11  and  C_12
REMARK    6  A    between atoms: N_14  and  C_15
REMARK    7  A    between atoms: C_19  and  S_20
REMARK    8  A    between atoms: S_20  and  N_23
REMARK                            x       y       z     vdW  Elec       q    Type
REMARK                         _______ _______ _______ _____ _____    ______ ____
ROOT
ATOM      1  C   UNL     1       1.936   4.821  20.434  0.00  0.00    +0.000 C 
ATOM      2  O   UNL     1       1.003   4.581  19.670  0.00  0.00    +0.000 OA
ATOM      3  N   UNL     1       2.585   6.044  20.534  0.00  0.00    +0.000 N 
ATOM      4  H   UNL     1       3.439   6.096  21.071  0.00  0.00    +0.000 HD
ENDROOT
BRANCH   3   5
ATOM      5  C   UNL     1       2.208   7.191  19.789  0.00  0.00    +0.000 A 
ATOM      6  C   UNL     1       2.518   7.359  18.445  0.00  0.00    +0.000 A 
ATOM      7  C   UNL     1       2.124   8.509  17.752  0.00  0.00    +0.000 A 
ATOM      8  C   UNL     1       1.432   9.527  18.408  0.00  0.00    +0.000 A 
ATOM      9  C   UNL     1       1.172   9.398  19.768  0.00  0.00    +0.000 A 
ATOM     10  C   UNL     1       1.519   8.216  20.443  0.00  0.00    +0.000 A 
BRANCH   9  11
ATOM     11  S   UNL     1       0.343  10.732  20.629  0.00  0.00    +0.000 S 
ATOM     12  O   UNL     1      -1.082  10.477  20.530  0.00  0.00    +0.000 OA
ATOM     13  O   UNL     1       0.991  10.871  21.913  0.00  0.00    +0.000 OA
BRANCH  11  14
ATOM     14  N   UNL     1       0.689  12.140  19.701  0.00  0.00    +0.000 NA
ATOM     15  C   UNL     1      -0.499  12.931  19.280  0.00  0.00    +0.000 C 
ATOM     16  C   UNL     1      -0.143  14.157  18.450  0.00  0.00    +0.000 C 
ATOM     17  C   UNL     1       0.983  14.966  19.071  0.00  0.00    +0.000 C 
ATOM     18  C   UNL     1       2.211  14.086  19.228  0.00  0.00    +0.000 C 
ATOM     19  C   UNL     1       1.923  12.869  20.099  0.00  0.00    +0.000 C 
ENDBRANCH  11  14
ENDBRANCH   9  11
ENDBRANCH   3   5
BRANCH   1  20
ATOM     20  C   UNL     1       2.481   3.709  21.320  0.00  0.00    +0.000 C 
BRANCH  20  21
ATOM     21  O   UNL     1       2.855   2.584  20.505  0.00  0.00    +0.000 OA
BRANCH  21  22
ATOM     22  C   UNL     1       4.196   2.483  20.248  0.00  0.00    +0.000 C 
ATOM     23  O   UNL     1       4.985   1.881  20.940  0.00  0.00    +0.000 OA
BRANCH  22  29
ATOM     24  C   UNL     1       3.727   3.245  17.844  0.00  0.00    +0.000 A 
ATOM     25  N   UNL     1       4.074   3.973  16.748  0.00  0.00    +0.000 NA
ATOM     26  C   UNL     1       5.238   4.658  16.804  0.00  0.00    +0.000 A 
ATOM     27  C   UNL     1       6.050   4.635  17.919  0.00  0.00    +0.000 A 
ATOM     28  N   UNL     1       5.728   3.942  19.031  0.00  0.00    +0.000 NA
ATOM     29  C   UNL     1       4.555   3.241  18.988  0.00  0.00    +0.000 A 
BRANCH  24  30
ATOM     30  N   UNL     1       2.611   2.448  17.642  0.00  0.00    +0.000 N 
ATOM     31  H   UNL     1       2.589   2.128  16.677  0.00  0.00    +0.000 HD
ATOM     32  H   UNL     1       1.734   2.846  17.973  0.00  0.00    +0.000 HD
ENDBRANCH  24  30
ENDBRANCH  22  29
ENDBRANCH  21  22
ENDBRANCH  20  21
ENDBRANCH   1  20
TORSDOF 8
ENDMDL
MODEL 2
REMARK VINA RESULT:      -7.5      1.927      2.620
REMARK  Name = 
REMARK  8 active torsions:
REMARK  status: ('A' for Active; 'I' for Inactive)
REMARK    1  A    between atoms: N_1  and  C_2
REMARK    2  A    between atoms: C_7  and  C_8
REMARK    3  A    between atoms: C_8  and  O_10
REMARK    4  A    between atoms: O_10  and  C_11
REMARK    5  A    between atoms: C_11  and  C_12
REMARK    6  A    between atoms: N_14  and  C_15
REMARK    7  A    between atoms: C_19  and  S_20
REMARK    8  A    between atoms: S_20  and  N_23
REMARK                            x       y       z     vdW  Elec       q    Type
REMARK                         _______ _______ _______ _____ _____    ______ ____
ROOT
ATOM      1  C   UNL     1       2.540   4.628  18.719  0.00  0.00    +0.000 C 
ATOM      2  O   UNL     1       1.597   4.599  17.929  0.00  0.00    +0.000 OA
ATOM      3  N   UNL     1       3.042   5.780  19.311  0.00  0.00    +0.000 N 
ATOM      4  H   UNL     1       3.914   5.722  19.818  0.00  0.00    +0.000 HD
ENDROOT
BRANCH   3   5
ATOM      5  C   UNL     1       2.486   7.068  19.108  0.00  0.00    +0.000 A 
ATOM      6  C   UNL     1       2.631   7.780  17.923  0.00  0.00    +0.000 A 
ATOM      7  C   UNL     1       2.063   9.050  17.770  0.00  0.00    +0.000 A 
ATOM      8  C   UNL     1       1.360   9.641  18.820  0.00  0.00    +0.000 A 
ATOM      9  C   UNL     1       1.261   8.965  20.031  0.00  0.00    +0.000 A 
ATOM     10  C   UNL     1       1.783   7.667  20.159  0.00  0.00    +0.000 A 
BRANCH   9  11
ATOM     11  S   UNL     1       0.415   9.748  21.402  0.00  0.00    +0.000 S 
ATOM     12  O   UNL     1      -0.726   8.914  21.725  0.00  0.00    +0.000 OA
ATOM     13  O   UNL     1       1.420  10.059  22.394  0.00  0.00    +0.000 OA
BRANCH  11  14
ATOM     14  N   UNL     1      -0.181  11.231  20.765  0.00  0.00    +0.000 NA
ATOM     15  C   UNL     1      -1.497  11.142  20.076  0.00  0.00    +0.000 C 
ATOM     16  C   UNL     1      -1.976  12.476  19.516  0.00  0.00    +0.000 C 
ATOM     17  C   UNL     1      -1.852  13.603  20.528  0.00  0.00    +0.000 C 
ATOM     18  C   UNL     1      -0.405  13.728  20.970  0.00  0.00    +0.000 C 
ATOM     19  C   UNL     1       0.109  12.435  21.590  0.00  0.00    +0.000 C 
ENDBRANCH  11  14
ENDBRANCH   9  11
ENDBRANCH   3   5
BRANCH   1  20
ATOM     20  C   UNL     1       3.265   3.337  19.064  0.00  0.00    +0.000 C 
BRANCH  20  21
ATOM     21  O   UNL     1       4.338   3.122  18.129  0.00  0.00    +0.000 OA
BRANCH  21  22
ATOM     22  C   UNL     1       5.390   3.990  18.255  0.00  0.00    +0.000 C 
ATOM     23  O   UNL     1       5.813   4.408  19.308  0.00  0.00    +0.000 OA
BRANCH  22  29
ATOM     24  C   UNL     1       7.069   5.192  16.733  0.00  0.00    +0.000 A 
ATOM     25  N   UNL     1       7.548   5.467  15.489  0.00  0.00    +0.000 NA
ATOM     26  C   UNL     1       6.884   4.932  14.440  0.00  0.00    +0.000 A 
ATOM     27  C   UNL     1       5.770   4.136  14.604  0.00  0.00    +0.000 A 
ATOM     28  N   UNL     1       5.279   3.825  15.822  0.00  0.00    +0.000 NA
ATOM     29  C   UNL     1       5.938   4.362  16.894  0.00  0.00    +0.000 A 
BRANCH  24  30
ATOM     30  N   UNL     1       7.705   5.908  17.736  0.00  0.00    +0.000 N 
ATOM     31  H   UNL     1       7.509   5.480  18.638  0.00  0.00    +0.000 HD
ATOM     32  H   UNL     1       7.554   6.915  17.706  0.00  0.00    +0.000 HD
ENDBRANCH  24  30
ENDBRANCH  22  29
ENDBRANCH  21  22
ENDBRANCH  20  21
ENDBRANCH   1  20
TORSDOF 8
ENDMDL
MODEL 3
REMARK VINA RESULT:      -7.5      1.563      2.280
REMARK  Name = 
REMARK  8 active torsions:
REMARK  status: ('A' for Active; 'I' for Inactive)
REMARK    1  A    between atoms: N_1  and  C_2
REMARK    2  A    between atoms: C_7  and  C_8
REMARK    3  A    between atoms: C_8  and  O_10
REMARK    4  A    between atoms: O_10  and  C_11
REMARK    5  A    between atoms: C_11  and  C_12
REMARK    6  A    between atoms: N_14  and  C_15
REMARK    7  A    between atoms: C_19  and  S_20
REMARK    8  A    between atoms: S_20  and  N_23
REMARK                            x       y       z     vdW  Elec       q    Type
REMARK                         _______ _______ _______ _____ _____    ______ ____
ROOT
ATOM      1  C   UNL     1       2.327   4.329  19.697  0.00  0.00    +0.000 C 
ATOM      2  O   UNL     1       1.346   4.222  18.963  0.00  0.00    +0.000 OA
ATOM      3  N   UNL     1       2.949   5.529  20.019  0.00  0.00    +0.000 N 
ATOM      4  H   UNL     1       3.838   5.499  20.497  0.00  0.00    +0.000 HD
ENDROOT
BRANCH   3   5
ATOM      5  C   UNL     1       2.487   6.792  19.572  0.00  0.00    +0.000 A 
ATOM      6  C   UNL     1       2.788   7.310  18.318  0.00  0.00    +0.000 A 
ATOM      7  C   UNL     1       2.308   8.563  17.920  0.00  0.00    +0.000 A 
ATOM      8  C   UNL     1       1.538   9.334  18.792  0.00  0.00    +0.000 A 
ATOM      9  C   UNL     1       1.282   8.853  20.071  0.00  0.00    +0.000 A 
ATOM     10  C   UNL     1       1.717   7.570  20.442  0.00  0.00    +0.000 A 
BRANCH   9  11
ATOM     11  S   UNL     1       0.348   9.867  21.215  0.00  0.00    +0.000 S 
ATOM     12  O   UNL     1      -0.527   8.975  21.951  0.00  0.00    +0.000 OA
ATOM     13  O   UNL     1       1.299  10.716  21.897  0.00  0.00    +0.000 OA
BRANCH  11  14
ATOM     14  N   UNL     1      -0.638  10.864  20.217  0.00  0.00    +0.000 NA
ATOM     15  C   UNL     1      -0.095  12.223  19.944  0.00  0.00    +0.000 C 
ATOM     16  C   UNL     1      -1.009  13.073  19.070  0.00  0.00    +0.000 C 
ATOM     17  C   UNL     1      -1.502  12.318  17.848  0.00  0.00    +0.000 C 
ATOM     18  C   UNL     1      -2.242  11.068  18.291  0.00  0.00    +0.000 C 
ATOM     19  C   UNL     1      -1.353  10.153  19.124  0.00  0.00    +0.000 C 
ENDBRANCH  11  14
ENDBRANCH   9  11
ENDBRANCH   3   5
BRANCH   1  20
ATOM     20  C   UNL     1       2.965   3.076  20.278  0.00  0.00    +0.000 C 
BRANCH  20  21
ATOM     21  O   UNL     1       4.349   3.016  19.890  0.00  0.00    +0.000 OA
BRANCH  21  22
ATOM     22  C   UNL     1       4.571   3.126  18.543  0.00  0.00    +0.000 C 
ATOM     23  O   UNL     1       3.980   2.497  17.695  0.00  0.00    +0.000 OA
BRANCH  22  29
ATOM     24  C   UNL     1       6.204   4.334  16.975  0.00  0.00    +0.000 A 
ATOM     25  N   UNL     1       7.160   5.279  16.768  0.00  0.00    +0.000 NA
ATOM     26  C   UNL     1       7.574   5.985  17.843  0.00  0.00    +0.000 A 
ATOM     27  C   UNL     1       7.056   5.773  19.105  0.00  0.00    +0.000 A 
ATOM     28  N   UNL     1       6.092   4.859  19.343  0.00  0.00    +0.000 NA
ATOM     29  C   UNL     1       5.666   4.135  18.265  0.00  0.00    +0.000 A 
BRANCH  24  30
ATOM     30  N   UNL     1       5.958   3.549  15.858  0.00  0.00    +0.000 N 
ATOM     31  H   UNL     1       5.812   4.145  15.047  0.00  0.00    +0.000 HD
ATOM     32  H   UNL     1       5.247   2.831  15.986  0.00  0.00    +0.000 HD
ENDBRANCH  24  30
ENDBRANCH  22  29
ENDBRANCH  21  22
ENDBRANCH  20  21
ENDBRANCH   1  20
TORSDOF 8
ENDMDL
MODEL 4
REMARK VINA RESULT:      -7.5      2.659      3.717
REMARK  Name = 
REMARK  8 active torsions:
REMARK  status: ('A' for Active; 'I' for Inactive)
REMARK    1  A    between atoms: N_1  and  C_2
REMARK    2  A    between atoms: C_7  and  C_8
REMARK    3  A    between atoms: C_8  and  O_10
REMARK    4  A    between atoms: O_10  and  C_11
REMARK    5  A    between atoms: C_11  and  C_12
REMARK    6  A    between atoms: N_14  and  C_15
REMARK    7  A    between atoms: C_19  and  S_20
REMARK    8  A    between atoms: S_20  and  N_23
REMARK                            x       y       z     vdW  Elec       q    Type
REMARK                         _______ _______ _______ _____ _____    ______ ____
ROOT
ATOM      1  C   UNL     1       2.122   5.903  20.278  0.00  0.00    +0.000 C 
ATOM      2  O   UNL     1       1.068   5.377  20.632  0.00  0.00    +0.000 OA
ATOM      3  N   UNL     1       2.370   7.270  20.291  0.00  0.00    +0.000 N 
ATOM      4  H   UNL     1       3.201   7.615  19.833  0.00  0.00    +0.000 HD
ENDROOT
BRANCH   3   5
ATOM      5  C   UNL     1       1.439   8.227  20.768  0.00  0.00    +0.000 A 
ATOM      6  C   UNL     1       0.842   8.147  22.021  0.00  0.00    +0.000 A 
ATOM      7  C   UNL     1      -0.071   9.118  22.448  0.00  0.00    +0.000 A 
ATOM      8  C   UNL     1      -0.424  10.175  21.609  0.00  0.00    +0.000 A 
ATOM      9  C   UNL     1       0.120  10.231  20.330  0.00  0.00    +0.000 A 
ATOM     10  C   UNL     1       1.079   9.287  19.930  0.00  0.00    +0.000 A 
BRANCH   9  11
ATOM     11  S   UNL     1      -0.381  11.550  19.226  0.00  0.00    +0.000 S 
ATOM     12  O   UNL     1      -0.649  12.711  20.052  0.00  0.00    +0.000 OA
ATOM     13  O   UNL     1       0.594  11.598  18.159  0.00  0.00    +0.000 OA
BRANCH  11  14
ATOM     14  N   UNL     1      -1.876  11.023  18.558  0.00  0.00    +0.000 NA
ATOM     15  C   UNL     1      -3.042  11.905  18.837  0.00  0.00    +0.000 C 
ATOM     16  C   UNL     1      -4.345  11.391  18.239  0.00  0.00    +0.000 C 
ATOM     17  C   UNL     1      -4.186  10.973  16.786  0.00  0.00    +0.000 C 
ATOM     18  C   UNL     1      -3.120   9.897  16.683  0.00  0.00    +0.000 C 
ATOM     19  C   UNL     1      -1.778  10.380  17.219  0.00  0.00    +0.000 C 
ENDBRANCH  11  14
ENDBRANCH   9  11
ENDBRANCH   3   5
BRANCH   1  20
ATOM     20  C   UNL     1       3.246   5.033  19.736  0.00  0.00    +0.000 C 
BRANCH  20  21
ATOM     21  O   UNL     1       4.110   5.826  18.902  0.00  0.00    +0.000 OA
BRANCH  21  22
ATOM     22  C   UNL     1       5.408   5.392  18.846  0.00  0.00    +0.000 C 
ATOM     23  O   UNL     1       6.096   5.157  19.813  0.00  0.00    +0.000 OA
BRANCH  22  29
ATOM     24  C   UNL     1       7.091   4.661  17.054  0.00  0.00    +0.000 A 
ATOM     25  N   UNL     1       7.440   4.532  15.745  0.00  0.00    +0.000 NA
ATOM     26  C   UNL     1       6.577   5.018  14.826  0.00  0.00    +0.000 A 
ATOM     27  C   UNL     1       5.387   5.619  15.180  0.00  0.00    +0.000 A 
ATOM     28  N   UNL     1       4.999   5.745  16.467  0.00  0.00    +0.000 NA
ATOM     29  C   UNL     1       5.864   5.261  17.409  0.00  0.00    +0.000 A 
BRANCH  24  30
ATOM     30  N   UNL     1       8.100   4.288  17.929  0.00  0.00    +0.000 N 
ATOM     31  H   UNL     1       8.988   4.258  17.435  0.00  0.00    +0.000 HD
ATOM     32  H   UNL     1       7.900   3.459  18.486  0.00  0.00    +0.000 HD
ENDBRANCH  24  30
ENDBRANCH  22  29
ENDBRANCH  21  22
ENDBRANCH  20  21
ENDBRANCH   1  20
TORSDOF 8
ENDMDL
MODEL 5
REMARK VINA RESULT:      -7.4      2.452      8.594
REMARK  Name = 
REMARK  8 active torsions:
REMARK  status: ('A' for Active; 'I' for Inactive)
REMARK    1  A    between atoms: N_1  and  C_2
REMARK    2  A    between atoms: C_7  and  C_8
REMARK    3  A    between atoms: C_8  and  O_10
REMARK    4  A    between atoms: O_10  and  C_11
REMARK    5  A    between atoms: C_11  and  C_12
REMARK    6  A    between atoms: N_14  and  C_15
REMARK    7  A    between atoms: C_19  and  S_20
REMARK    8  A    between atoms: S_20  and  N_23
REMARK                            x       y       z     vdW  Elec       q    Type
REMARK                         _______ _______ _______ _____ _____    ______ ____
ROOT
ATOM      1  C   UNL     1       0.644   9.441  22.172  0.00  0.00    +0.000 C 
ATOM      2  O   UNL     1       1.801   9.357  22.583  0.00  0.00    +0.000 OA
ATOM      3  N   UNL     1       0.252   9.229  20.857  0.00  0.00    +0.000 N 
ATOM      4  H   UNL     1      -0.689   9.477  20.587  0.00  0.00    +0.000 HD
ENDROOT
BRANCH   3   5
ATOM      5  C   UNL     1       1.147   8.836  19.829  0.00  0.00    +0.000 A 
ATOM      6  C   UNL     1       1.496   9.664  18.769  0.00  0.00    +0.000 A 
ATOM      7  C   UNL     1       2.384   9.232  17.778  0.00  0.00    +0.000 A 
ATOM      8  C   UNL     1       2.917   7.944  17.820  0.00  0.00    +0.000 A 
ATOM      9  C   UNL     1       2.527   7.086  18.842  0.00  0.00    +0.000 A 
ATOM     10  C   UNL     1       1.682   7.545  19.865  0.00  0.00    +0.000 A 
BRANCH   9  11
ATOM     11  S   UNL     1       3.159   5.409  18.863  0.00  0.00    +0.000 S 
ATOM     12  O   UNL     1       3.271   5.019  20.255  0.00  0.00    +0.000 OA
ATOM     13  O   UNL     1       2.358   4.645  17.933  0.00  0.00    +0.000 OA
BRANCH  11  14
ATOM     14  N   UNL     1       4.752   5.529  18.222  0.00  0.00    +0.000 NA
ATOM     15  C   UNL     1       5.849   5.354  19.211  0.00  0.00    +0.000 C 
ATOM     16  C   UNL     1       7.239   5.483  18.600  0.00  0.00    +0.000 C 
ATOM     17  C   UNL     1       7.384   4.670  17.325  0.00  0.00    +0.000 C 
ATOM     18  C   UNL     1       6.342   5.120  16.316  0.00  0.00    +0.000 C 
ATOM     19  C   UNL     1       4.927   4.959  16.859  0.00  0.00    +0.000 C 
ENDBRANCH  11  14
ENDBRANCH   9  11
ENDBRANCH   3   5
BRANCH   1  20
ATOM     20  C   UNL     1      -0.461   9.850  23.134  0.00  0.00    +0.000 C 
BRANCH  20  21
ATOM     21  O   UNL     1      -0.457  11.280  23.292  0.00  0.00    +0.000 OA
BRANCH  21  22
ATOM     22  C   UNL     1      -1.361  11.946  22.509  0.00  0.00    +0.000 C 
ATOM     23  O   UNL     1      -2.550  11.998  22.725  0.00  0.00    +0.000 OA
BRANCH  22  29
ATOM     24  C   UNL     1      -1.377  13.134  20.235  0.00  0.00    +0.000 A 
ATOM     25  N   UNL     1      -0.711  13.742  19.216  0.00  0.00    +0.000 NA
ATOM     26  C   UNL     1       0.638  13.779  19.297  0.00  0.00    +0.000 A 
ATOM     27  C   UNL     1       1.326  13.234  20.361  0.00  0.00    +0.000 A 
ATOM     28  N   UNL     1       0.697  12.643  21.399  0.00  0.00    +0.000 NA
ATOM     29  C   UNL     1      -0.668  12.594  21.329  0.00  0.00    +0.000 A 
BRANCH  24  30
ATOM     30  N   UNL     1      -2.736  12.995  19.995  0.00  0.00    +0.000 N 
ATOM     31  H   UNL     1      -3.206  12.701  20.848  0.00  0.00    +0.000 HD
ATOM     32  H   UNL     1      -2.973  12.443  19.173  0.00  0.00    +0.000 HD
ENDBRANCH  24  30
ENDBRANCH  22  29
ENDBRANCH  21  22
ENDBRANCH  20  21
ENDBRANCH   1  20
TORSDOF 8
ENDMDL
MODEL 6
REMARK VINA RESULT:      -7.4      2.004      2.732
REMARK  Name = 
REMARK  8 active torsions:
REMARK  status: ('A' for Active; 'I' for Inactive)
REMARK    1  A    between atoms: N_1  and  C_2
REMARK    2  A    between atoms: C_7  and  C_8
REMARK    3  A    between atoms: C_8  and  O_10
REMARK    4  A    between atoms: O_10  and  C_11
REMARK    5  A    between atoms: C_11  and  C_12
REMARK    6  A    between atoms: N_14  and  C_15
REMARK    7  A    between atoms: C_19  and  S_20
REMARK    8  A    between atoms: S_20  and  N_23
REMARK                            x       y       z     vdW  Elec       q    Type
REMARK                         _______ _______ _______ _____ _____    ______ ____
ROOT
ATOM      1  C   UNL     1       2.607   4.640  18.553  0.00  0.00    +0.000 C 
ATOM      2  O   UNL     1       1.646   4.620  17.785  0.00  0.00    +0.000 OA
ATOM      3  N   UNL     1       3.091   5.775  19.189  0.00  0.00    +0.000 N 
ATOM      4  H   UNL     1       3.977   5.718  19.671  0.00  0.00    +0.000 HD
ENDROOT
BRANCH   3   5
ATOM      5  C   UNL     1       2.494   7.055  19.063  0.00  0.00    +0.000 A 
ATOM      6  C   UNL     1       2.543   7.804  17.892  0.00  0.00    +0.000 A 
ATOM      7  C   UNL     1       1.938   9.063  17.816  0.00  0.00    +0.000 A 
ATOM      8  C   UNL     1       1.295   9.607  18.928  0.00  0.00    +0.000 A 
ATOM      9  C   UNL     1       1.294   8.895  20.122  0.00  0.00    +0.000 A 
ATOM     10  C   UNL     1       1.852   7.607  20.175  0.00  0.00    +0.000 A 
BRANCH   9  11
ATOM     11  S   UNL     1       0.527   9.618  21.570  0.00  0.00    +0.000 S 
ATOM     12  O   UNL     1      -0.662   8.838  21.851  0.00  0.00    +0.000 OA
ATOM     13  O   UNL     1       1.568   9.782  22.561  0.00  0.00    +0.000 OA
BRANCH  11  14
ATOM     14  N   UNL     1       0.020  11.184  21.066  0.00  0.00    +0.000 NA
ATOM     15  C   UNL     1       1.119  12.146  20.782  0.00  0.00    +0.000 C 
ATOM     16  C   UNL     1       0.622  13.521  20.355  0.00  0.00    +0.000 C 
ATOM     17  C   UNL     1      -0.454  13.437  19.285  0.00  0.00    +0.000 C 
ATOM     18  C   UNL     1      -1.619  12.614  19.804  0.00  0.00    +0.000 C 
ATOM     19  C   UNL     1      -1.186  11.206  20.195  0.00  0.00    +0.000 C 
ENDBRANCH  11  14
ENDBRANCH   9  11
ENDBRANCH   3   5
BRANCH   1  20
ATOM     20  C   UNL     1       3.377   3.354  18.817  0.00  0.00    +0.000 C 
BRANCH  20  21
ATOM     21  O   UNL     1       4.790   3.621  18.766  0.00  0.00    +0.000 OA
BRANCH  21  22
ATOM     22  C   UNL     1       5.250   4.044  17.547  0.00  0.00    +0.000 C 
ATOM     23  O   UNL     1       4.940   3.551  16.487  0.00  0.00    +0.000 OA
BRANCH  22  29
ATOM     24  C   UNL     1       6.206   6.319  16.848  0.00  0.00    +0.000 A 
ATOM     25  N   UNL     1       7.061   7.356  17.061  0.00  0.00    +0.000 NA
ATOM     26  C   UNL     1       7.907   7.253  18.109  0.00  0.00    +0.000 A 
ATOM     27  C   UNL     1       7.915   6.152  18.941  0.00  0.00    +0.000 A 
ATOM     28  N   UNL     1       7.067   5.116  18.773  0.00  0.00    +0.000 NA
ATOM     29  C   UNL     1       6.208   5.205  17.714  0.00  0.00    +0.000 A 
BRANCH  24  30
ATOM     30  N   UNL     1       5.492   6.432  15.664  0.00  0.00    +0.000 N 
ATOM     31  H   UNL     1       4.948   7.291  15.673  0.00  0.00    +0.000 HD
ATOM     32  H   UNL     1       4.964   5.602  15.400  0.00  0.00    +0.000 HD
ENDBRANCH  24  30
ENDBRANCH  22  29
ENDBRANCH  21  22
ENDBRANCH  20  21
ENDBRANCH   1  20
TORSDOF 8
ENDMDL
MODEL 7
REMARK VINA RESULT:      -7.3      2.467      8.595
REMARK  Name = 
REMARK  8 active torsions:
REMARK  status: ('A' for Active; 'I' for Inactive)
REMARK    1  A    between atoms: N_1  and  C_2
REMARK    2  A    between atoms: C_7  and  C_8
REMARK    3  A    between atoms: C_8  and  O_10
REMARK    4  A    between atoms: O_10  and  C_11
REMARK    5  A    between atoms: C_11  and  C_12
REMARK    6  A    between atoms: N_14  and  C_15
REMARK    7  A    between atoms: C_19  and  S_20
REMARK    8  A    between atoms: S_20  and  N_23
REMARK                            x       y       z     vdW  Elec       q    Type
REMARK                         _______ _______ _______ _____ _____    ______ ____
ROOT
ATOM      1  C   UNL     1       0.731   9.520  22.203  0.00  0.00    +0.000 C 
ATOM      2  O   UNL     1       1.913   9.586  22.537  0.00  0.00    +0.000 OA
ATOM      3  N   UNL     1       0.283   9.157  20.940  0.00  0.00    +0.000 N 
ATOM      4  H   UNL     1      -0.694   9.287  20.718  0.00  0.00    +0.000 HD
ENDROOT
BRANCH   3   5
ATOM      5  C   UNL     1       1.148   8.765  19.887  0.00  0.00    +0.000 A 
ATOM      6  C   UNL     1       1.452   9.587  18.808  0.00  0.00    +0.000 A 
ATOM      7  C   UNL     1       2.313   9.156  17.793  0.00  0.00    +0.000 A 
ATOM      8  C   UNL     1       2.863   7.875  17.830  0.00  0.00    +0.000 A 
ATOM      9  C   UNL     1       2.517   7.022  18.871  0.00  0.00    +0.000 A 
ATOM     10  C   UNL     1       1.700   7.481  19.917  0.00  0.00    +0.000 A 
BRANCH   9  11
ATOM     11  S   UNL     1       3.170   5.353  18.887  0.00  0.00    +0.000 S 
ATOM     12  O   UNL     1       3.292   4.962  20.279  0.00  0.00    +0.000 OA
ATOM     13  O   UNL     1       2.376   4.581  17.958  0.00  0.00    +0.000 OA
BRANCH  11  14
ATOM     14  N   UNL     1       4.759   5.494  18.241  0.00  0.00    +0.000 NA
ATOM     15  C   UNL     1       5.862   5.315  19.224  0.00  0.00    +0.000 C 
ATOM     16  C   UNL     1       7.248   5.463  18.609  0.00  0.00    +0.000 C 
ATOM     17  C   UNL     1       7.395   4.668  17.323  0.00  0.00    +0.000 C 
ATOM     18  C   UNL     1       6.345   5.122  16.324  0.00  0.00    +0.000 C 
ATOM     19  C   UNL     1       4.933   4.943  16.870  0.00  0.00    +0.000 C 
ENDBRANCH  11  14
ENDBRANCH   9  11
ENDBRANCH   3   5
BRANCH   1  20
ATOM     20  C   UNL     1      -0.350   9.902  23.204  0.00  0.00    +0.000 C 
BRANCH  20  21
ATOM     21  O   UNL     1      -1.275  10.816  22.588  0.00  0.00    +0.000 OA
BRANCH  21  22
ATOM     22  C   UNL     1      -0.811  12.097  22.453  0.00  0.00    +0.000 C 
ATOM     23  O   UNL     1      -0.537  12.830  23.376  0.00  0.00    +0.000 OA
BRANCH  22  29
ATOM     24  C   UNL     1       0.177  13.477  20.529  0.00  0.00    +0.000 A 
ATOM     25  N   UNL     1       0.270  13.751  19.199  0.00  0.00    +0.000 NA
ATOM     26  C   UNL     1      -0.521  13.039  18.366  0.00  0.00    +0.000 A 
ATOM     27  C   UNL     1      -1.387  12.069  18.825  0.00  0.00    +0.000 A 
ATOM     28  N   UNL     1      -1.490  11.756  20.134  0.00  0.00    +0.000 NA
ATOM     29  C   UNL     1      -0.699  12.471  20.990  0.00  0.00    +0.000 A 
BRANCH  24  30
ATOM     30  N   UNL     1       0.896  14.359  21.322  0.00  0.00    +0.000 N 
ATOM     31  H   UNL     1       0.588  14.278  22.288  0.00  0.00    +0.000 HD
ATOM     32  H   UNL     1       0.937  15.315  20.972  0.00  0.00    +0.000 HD
ENDBRANCH  24  30
ENDBRANCH  22  29
ENDBRANCH  21  22
ENDBRANCH  20  21
ENDBRANCH   1  20
TORSDOF 8
ENDMDL
MODEL 8
REMARK VINA RESULT:      -7.3      5.732      8.825
REMARK  Name = 
REMARK  8 active torsions:
REMARK  status: ('A' for Active; 'I' for Inactive)
REMARK    1  A    between atoms: N_1  and  C_2
REMARK    2  A    between atoms: C_7  and  C_8
REMARK    3  A    between atoms: C_8  and  O_10
REMARK    4  A    between atoms: O_10  and  C_11
REMARK    5  A    between atoms: C_11  and  C_12
REMARK    6  A    between atoms: N_14  and  C_15
REMARK    7  A    between atoms: C_19  and  S_20
REMARK    8  A    between atoms: S_20  and  N_23
REMARK                            x       y       z     vdW  Elec       q    Type
REMARK                         _______ _______ _______ _____ _____    ______ ____
ROOT
ATOM      1  C   UNL     1       7.620   7.876  17.745  0.00  0.00    +0.000 C 
ATOM      2  O   UNL     1       8.256   7.074  18.429  0.00  0.00    +0.000 OA
ATOM      3  N   UNL     1       6.724   7.527  16.743  0.00  0.00    +0.000 N 
ATOM      4  H   UNL     1       6.375   8.253  16.133  0.00  0.00    +0.000 HD
ENDROOT
BRANCH   3   5
ATOM      5  C   UNL     1       6.396   6.186  16.421  0.00  0.00    +0.000 A 
ATOM      6  C   UNL     1       7.074   5.448  15.457  0.00  0.00    +0.000 A 
ATOM      7  C   UNL     1       6.713   4.126  15.174  0.00  0.00    +0.000 A 
ATOM      8  C   UNL     1       5.641   3.529  15.838  0.00  0.00    +0.000 A 
ATOM      9  C   UNL     1       4.917   4.277  16.760  0.00  0.00    +0.000 A 
ATOM     10  C   UNL     1       5.321   5.584  17.081  0.00  0.00    +0.000 A 
BRANCH   9  11
ATOM     11  S   UNL     1       3.500   3.535  17.566  0.00  0.00    +0.000 S 
ATOM     12  O   UNL     1       2.402   3.585  16.620  0.00  0.00    +0.000 OA
ATOM     13  O   UNL     1       3.946   2.281  18.131  0.00  0.00    +0.000 OA
BRANCH  11  14
ATOM     14  N   UNL     1       3.122   4.599  18.864  0.00  0.00    +0.000 NA
ATOM     15  C   UNL     1       2.601   5.933  18.460  0.00  0.00    +0.000 C 
ATOM     16  C   UNL     1       2.296   6.845  19.642  0.00  0.00    +0.000 C 
ATOM     17  C   UNL     1       1.493   6.139  20.721  0.00  0.00    +0.000 C 
ATOM     18  C   UNL     1       2.258   4.920  21.205  0.00  0.00    +0.000 C 
ATOM     19  C   UNL     1       2.541   3.945  20.068  0.00  0.00    +0.000 C 
ENDBRANCH  11  14
ENDBRANCH   9  11
ENDBRANCH   3   5
BRANCH   1  20
ATOM     20  C   UNL     1       7.838   9.368  17.948  0.00  0.00    +0.000 C 
BRANCH  20  21
ATOM     21  O   UNL     1       9.200   9.606  18.346  0.00  0.00    +0.000 OA
BRANCH  21  22
ATOM     22  C   UNL     1       9.358  10.589  19.286  0.00  0.00    +0.000 C 
ATOM     23  O   UNL     1       9.232  10.427  20.478  0.00  0.00    +0.000 OA
BRANCH  22  29
ATOM     24  C   UNL     1      10.873  12.092  17.863  0.00  0.00    +0.000 A 
ATOM     25  N   UNL     1      11.117  13.285  17.255  0.00  0.00    +0.000 NA
ATOM     26  C   UNL     1      10.206  14.267  17.434  0.00  0.00    +0.000 A 
ATOM     27  C   UNL     1       9.069  14.085  18.194  0.00  0.00    +0.000 A 
ATOM     28  N   UNL     1       8.784  12.910  18.794  0.00  0.00    +0.000 NA
ATOM     29  C   UNL     1       9.699  11.908  18.624  0.00  0.00    +0.000 A 
BRANCH  24  30
ATOM     30  N   UNL     1      11.931  11.200  17.764  0.00  0.00    +0.000 N 
ATOM     31  H   UNL     1      12.784  11.644  18.094  0.00  0.00    +0.000 HD
ATOM     32  H   UNL     1      12.019  10.737  16.861  0.00  0.00    +0.000 HD
ENDBRANCH  24  30
ENDBRANCH  22  29
ENDBRANCH  21  22
ENDBRANCH  20  21
ENDBRANCH   1  20
TORSDOF 8
ENDMDL
MODEL 9
REMARK VINA RESULT:      -7.2      3.775      9.559
REMARK  Name = 
REMARK  8 active torsions:
REMARK  status: ('A' for Active; 'I' for Inactive)
REMARK    1  A    between atoms: N_1  and  C_2
REMARK    2  A    between atoms: C_7  and  C_8
REMARK    3  A    between atoms: C_8  and  O_10
REMARK    4  A    between atoms: O_10  and  C_11
REMARK    5  A    between atoms: C_11  and  C_12
REMARK    6  A    between atoms: N_14  and  C_15
REMARK    7  A    between atoms: C_19  and  S_20
REMARK    8  A    between atoms: S_20  and  N_23
REMARK                            x       y       z     vdW  Elec       q    Type
REMARK                         _______ _______ _______ _____ _____    ______ ____
ROOT
ATOM      1  C   UNL     1       2.006   8.712  18.609  0.00  0.00    +0.000 C 
ATOM      2  O   UNL     1       1.888   8.178  19.712  0.00  0.00    +0.000 OA
ATOM      3  N   UNL     1       2.732   8.187  17.548  0.00  0.00    +0.000 N 
ATOM      4  H   UNL     1       2.901   8.772  16.742  0.00  0.00    +0.000 HD
ENDROOT
BRANCH   3   5
ATOM      5  C   UNL     1       3.391   6.932  17.597  0.00  0.00    +0.000 A 
ATOM      6  C   UNL     1       2.866   5.824  18.252  0.00  0.00    +0.000 A 
ATOM      7  C   UNL     1       3.554   4.606  18.273  0.00  0.00    +0.000 A 
ATOM      8  C   UNL     1       4.800   4.488  17.657  0.00  0.00    +0.000 A 
ATOM      9  C   UNL     1       5.363   5.606  17.053  0.00  0.00    +0.000 A 
ATOM     10  C   UNL     1       4.641   6.809  16.985  0.00  0.00    +0.000 A 
BRANCH   9  11
ATOM     11  S   UNL     1       6.992   5.475  16.318  0.00  0.00    +0.000 S 
ATOM     12  O   UNL     1       7.592   6.793  16.388  0.00  0.00    +0.000 OA
ATOM     13  O   UNL     1       7.633   4.326  16.918  0.00  0.00    +0.000 OA
BRANCH  11  14
ATOM     14  N   UNL     1       6.701   5.117  14.660  0.00  0.00    +0.000 NA
ATOM     15  C   UNL     1       7.835   5.405  13.741  0.00  0.00    +0.000 C 
ATOM     16  C   UNL     1       7.526   5.087  12.283  0.00  0.00    +0.000 C 
ATOM     17  C   UNL     1       6.892   3.717  12.115  0.00  0.00    +0.000 C 
ATOM     18  C   UNL     1       5.614   3.647  12.933  0.00  0.00    +0.000 C 
ATOM     19  C   UNL     1       5.876   3.904  14.411  0.00  0.00    +0.000 C 
ENDBRANCH  11  14
ENDBRANCH   9  11
ENDBRANCH   3   5
BRANCH   1  20
ATOM     20  C   UNL     1       1.363  10.068  18.365  0.00  0.00    +0.000 C 
BRANCH  20  21
ATOM     21  O   UNL     1       0.724  10.524  19.571  0.00  0.00    +0.000 OA
BRANCH  21  22
ATOM     22  C   UNL     1      -0.603  10.835  19.434  0.00  0.00    +0.000 C 
ATOM     23  O   UNL     1      -1.225  10.750  18.401  0.00  0.00    +0.000 OA
BRANCH  22  29
ATOM     24  C   UNL     1      -2.141  12.339  20.832  0.00  0.00    +0.000 A 
ATOM     25  N   UNL     1      -2.655  12.708  22.037  0.00  0.00    +0.000 NA
ATOM     26  C   UNL     1      -2.184  12.067  23.129  0.00  0.00    +0.000 A 
ATOM     27  C   UNL     1      -1.228  11.076  23.046  0.00  0.00    +0.000 A 
ATOM     28  N   UNL     1      -0.712  10.670  21.867  0.00  0.00    +0.000 NA
ATOM     29  C   UNL     1      -1.175  11.313  20.752  0.00  0.00    +0.000 A 
BRANCH  24  30
ATOM     30  N   UNL     1      -2.554  13.154  19.788  0.00  0.00    +0.000 N 
ATOM     31  H   UNL     1      -3.159  12.628  19.162  0.00  0.00    +0.000 HD
ATOM     32  H   UNL     1      -1.807  13.664  19.320  0.00  0.00    +0.000 HD
ENDBRANCH  24  30
ENDBRANCH  22  29
ENDBRANCH  21  22
ENDBRANCH  20  21
ENDBRANCH   1  20
TORSDOF 8
ENDMDL
