MODEL 1
REMARK VINA RESULT:      -9.3      0.000      0.000
REMARK  Name = 
REMARK  9 active torsions:
REMARK  status: ('A' for Active; 'I' for Inactive)
REMARK    1  A    between atoms: C_1  and  N_2
REMARK    2  A    between atoms: N_2  and  C_3
REMARK    3  A    between atoms: N_2  and  C_4
REMARK    4  A    between atoms: C_4  and  C_5
REMARK    5  A    between atoms: C_5  and  N_6
REMARK    6  A    between atoms: C_7  and  C_9
REMARK    7  A    between atoms: C_13  and  N_14
REMARK    8  A    between atoms: N_14  and  C_15
REMARK    9  A    between atoms: C_19  and  C_20
REMARK                            x       y       z     vdW  Elec       q    Type
REMARK                         _______ _______ _______ _____ _____    ______ ____
ROOT
ATOM      1  C   UNL     1       2.724   6.123  19.542  0.00  0.00    +0.000 A 
ATOM      2  N   UNL     1       3.713   6.287  18.618  0.00  0.00    +0.000 NA
ATOM      3  C   UNL     1       4.104   5.300  17.807  0.00  0.00    +0.000 A 
ATOM      4  C   UNL     1       5.091   5.560  16.864  0.00  0.00    +0.000 A 
ATOM      5  C   UNL     1       5.539   4.586  15.957  0.00  0.00    +0.000 A 
ATOM      6  C   UNL     1       4.984   3.305  16.017  0.00  0.00    +0.000 A 
ATOM      7  C   UNL     1       4.006   3.010  16.967  0.00  0.00    +0.000 A 
ATOM      8  C   UNL     1       3.558   4.015  17.857  0.00  0.00    +0.000 A 
ATOM      9  C   UNL     1       2.557   3.806  18.849  0.00  0.00    +0.000 A 
ATOM     10  S   UNL     1       1.696   2.339  19.180  0.00  0.00    +0.000 S 
ATOM     11  C   UNL     1       0.882   3.014  20.504  0.00  0.00    +0.000 A 
ATOM     12  C   UNL     1       1.228   4.328  20.697  0.00  0.00    +0.000 A 
ATOM     13  C   UNL     1       2.150   4.838  19.712  0.00  0.00    +0.000 A 
ENDROOT
BRANCH   5  14
ATOM     14  C   UNL     1       6.534   4.898  14.939  0.00  0.00    +0.000 A 
ATOM     15  N   UNL     1       7.615   5.643  15.066  0.00  0.00    +0.000 NA
ATOM     16  N   UNL     1       8.254   5.618  13.850  0.00  0.00    +0.000 NA
ATOM     17  N   UNL     1       7.572   4.898  12.971  0.00  0.00    +0.000 NA
ATOM     18  N   UNL     1       6.499   4.462  13.641  0.00  0.00    +0.000 N 
ATOM     19  H   UNL     1       5.802   3.907  13.164  0.00  0.00    +0.000 HD
ENDBRANCH   5  14
BRANCH   1  20
ATOM     20  N   UNL     1       2.498   7.278  20.306  0.00  0.00    +0.000 N 
ATOM     21  H   UNL     1       3.430   7.624  20.527  0.00  0.00    +0.000 HD
BRANCH  20  26
ATOM     22  C   UNL     1       0.118  10.067  21.194  0.00  0.00    +0.000 A 
ATOM     23  C   UNL     1      -0.099  10.589  19.911  0.00  0.00    +0.000 A 
ATOM     24  C   UNL     1       0.494  10.000  18.804  0.00  0.00    +0.000 A 
ATOM     25  C   UNL     1       1.328   8.901  18.983  0.00  0.00    +0.000 A 
ATOM     26  C   UNL     1       1.572   8.343  20.258  0.00  0.00    +0.000 A 
ATOM     27  C   UNL     1       0.952   8.942  21.362  0.00  0.00    +0.000 A 
BRANCH  22  29
ATOM     28  N   UNL     1      -1.376  11.845  22.006  0.00  0.00    +0.000 N 
ATOM     29  C   UNL     1      -0.558  10.782  22.313  0.00  0.00    +0.000 C 
ATOM     30  O   UNL     1      -0.333  10.445  23.473  0.00  0.00    +0.000 OA
ATOM     31  H   UNL     1      -1.551  12.138  21.056  0.00  0.00    +0.000 HD
BRANCH  28  32
ATOM     32  C   UNL     1      -1.943  12.650  23.075  0.00  0.00    +0.000 C 
BRANCH  32  33
ATOM     33  C   UNL     1      -3.335  13.213  22.746  0.00  0.00    +0.000 C 
BRANCH  33  35
ATOM     34  C   UNL     1      -5.412  14.208  23.531  0.00  0.00    +0.000 C 
ATOM     35  N   UNL     1      -4.145  13.583  23.927  0.00  0.00    +0.000 NA
ATOM     36  C   UNL     1      -4.428  12.383  24.724  0.00  0.00    +0.000 C 
ENDBRANCH  33  35
ENDBRANCH  32  33
ENDBRANCH  28  32
ENDBRANCH  22  29
ENDBRANCH  20  26
ENDBRANCH   1  20
TORSDOF 7
ENDMDL
MODEL 2
REMARK VINA RESULT:      -9.2      0.769      1.056
REMARK  Name = 
REMARK  9 active torsions:
REMARK  status: ('A' for Active; 'I' for Inactive)
REMARK    1  A    between atoms: C_1  and  N_2
REMARK    2  A    between atoms: N_2  and  C_3
REMARK    3  A    between atoms: N_2  and  C_4
REMARK    4  A    between atoms: C_4  and  C_5
REMARK    5  A    between atoms: C_5  and  N_6
REMARK    6  A    between atoms: C_7  and  C_9
REMARK    7  A    between atoms: C_13  and  N_14
REMARK    8  A    between atoms: N_14  and  C_15
REMARK    9  A    between atoms: C_19  and  C_20
REMARK                            x       y       z     vdW  Elec       q    Type
REMARK                         _______ _______ _______ _____ _____    ______ ____
ROOT
ATOM      1  C   UNL     1       2.782   6.084  19.531  0.00  0.00    +0.000 A 
ATOM      2  N   UNL     1       3.739   6.226  18.571  0.00  0.00    +0.000 NA
ATOM      3  C   UNL     1       4.104   5.218  17.773  0.00  0.00    +0.000 A 
ATOM      4  C   UNL     1       5.058   5.455  16.791  0.00  0.00    +0.000 A 
ATOM      5  C   UNL     1       5.477   4.457  15.894  0.00  0.00    +0.000 A 
ATOM      6  C   UNL     1       4.928   3.178  16.007  0.00  0.00    +0.000 A 
ATOM      7  C   UNL     1       3.984   2.907  16.997  0.00  0.00    +0.000 A 
ATOM      8  C   UNL     1       3.563   3.934  17.875  0.00  0.00    +0.000 A 
ATOM      9  C   UNL     1       2.598   3.750  18.906  0.00  0.00    +0.000 A 
ATOM     10  S   UNL     1       1.752   2.291  19.305  0.00  0.00    +0.000 S 
ATOM     11  C   UNL     1       0.982   2.999  20.637  0.00  0.00    +0.000 A 
ATOM     12  C   UNL     1       1.331   4.318  20.784  0.00  0.00    +0.000 A 
ATOM     13  C   UNL     1       2.217   4.804  19.755  0.00  0.00    +0.000 A 
ENDROOT
BRANCH   5  14
ATOM     14  C   UNL     1       6.437   4.744  14.835  0.00  0.00    +0.000 A 
ATOM     15  N   UNL     1       6.416   4.317  13.588  0.00  0.00    +0.000 NA
ATOM     16  N   UNL     1       7.506   4.874  12.964  0.00  0.00    +0.000 NA
ATOM     17  N   UNL     1       8.211   5.610  13.811  0.00  0.00    +0.000 NA
ATOM     18  N   UNL     1       7.556   5.520  14.975  0.00  0.00    +0.000 N 
ATOM     19  H   UNL     1       7.925   5.982  15.794  0.00  0.00    +0.000 HD
ENDBRANCH   5  14
BRANCH   1  20
ATOM     20  N   UNL     1       2.579   7.260  20.272  0.00  0.00    +0.000 N 
ATOM     21  H   UNL     1       3.515   7.634  20.417  0.00  0.00    +0.000 HD
BRANCH  20  26
ATOM     22  C   UNL     1       0.117   9.949  21.237  0.00  0.00    +0.000 A 
ATOM     23  C   UNL     1      -0.102  10.513  19.972  0.00  0.00    +0.000 A 
ATOM     24  C   UNL     1       0.518   9.982  18.851  0.00  0.00    +0.000 A 
ATOM     25  C   UNL     1       1.380   8.899  18.997  0.00  0.00    +0.000 A 
ATOM     26  C   UNL     1       1.625   8.300  20.254  0.00  0.00    +0.000 A 
ATOM     27  C   UNL     1       0.978   8.841  21.373  0.00  0.00    +0.000 A 
BRANCH  22  29
ATOM     28  N   UNL     1      -1.541  11.555  22.089  0.00  0.00    +0.000 N 
ATOM     29  C   UNL     1      -0.590  10.603  22.375  0.00  0.00    +0.000 C 
ATOM     30  O   UNL     1      -0.275  10.319  23.529  0.00  0.00    +0.000 OA
ATOM     31  H   UNL     1      -1.791  11.806  21.143  0.00  0.00    +0.000 HD
BRANCH  28  32
ATOM     32  C   UNL     1      -2.152  12.310  23.170  0.00  0.00    +0.000 C 
BRANCH  32  33
ATOM     33  C   UNL     1      -1.456  13.652  23.451  0.00  0.00    +0.000 C 
BRANCH  33  35
ATOM     34  C   UNL     1      -3.553  14.610  22.674  0.00  0.00    +0.000 C 
ATOM     35  N   UNL     1      -2.365  14.817  23.511  0.00  0.00    +0.000 NA
ATOM     36  C   UNL     1      -2.785  15.042  24.898  0.00  0.00    +0.000 C 
ENDBRANCH  33  35
ENDBRANCH  32  33
ENDBRANCH  28  32
ENDBRANCH  22  29
ENDBRANCH  20  26
ENDBRANCH   1  20
TORSDOF 7
ENDMDL
MODEL 3
REMARK VINA RESULT:      -9.1      1.099      1.450
REMARK  Name = 
REMARK  9 active torsions:
REMARK  status: ('A' for Active; 'I' for Inactive)
REMARK    1  A    between atoms: C_1  and  N_2
REMARK    2  A    between atoms: N_2  and  C_3
REMARK    3  A    between atoms: N_2  and  C_4
REMARK    4  A    between atoms: C_4  and  C_5
REMARK    5  A    between atoms: C_5  and  N_6
REMARK    6  A    between atoms: C_7  and  C_9
REMARK    7  A    between atoms: C_13  and  N_14
REMARK    8  A    between atoms: N_14  and  C_15
REMARK    9  A    between atoms: C_19  and  C_20
REMARK                            x       y       z     vdW  Elec       q    Type
REMARK                         _______ _______ _______ _____ _____    ______ ____
ROOT
ATOM      1  C   UNL     1       2.860   7.395  18.400  0.00  0.00    +0.000 A 
ATOM      2  N   UNL     1       3.735   7.274  17.362  0.00  0.00    +0.000 NA
ATOM      3  C   UNL     1       4.268   6.100  17.011  0.00  0.00    +0.000 A 
ATOM      4  C   UNL     1       5.121   6.054  15.915  0.00  0.00    +0.000 A 
ATOM      5  C   UNL     1       5.702   4.856  15.464  0.00  0.00    +0.000 A 
ATOM      6  C   UNL     1       5.426   3.674  16.154  0.00  0.00    +0.000 A 
ATOM      7  C   UNL     1       4.590   3.694  17.271  0.00  0.00    +0.000 A 
ATOM      8  C   UNL     1       4.001   4.910  17.693  0.00  0.00    +0.000 A 
ATOM      9  C   UNL     1       3.128   5.022  18.812  0.00  0.00    +0.000 A 
ATOM     10  S   UNL     1       2.607   3.751  19.870  0.00  0.00    +0.000 S 
ATOM     11  C   UNL     1       1.756   4.817  20.873  0.00  0.00    +0.000 A 
ATOM     12  C   UNL     1       1.837   6.112  20.425  0.00  0.00    +0.000 A 
ATOM     13  C   UNL     1       2.572   6.256  19.192  0.00  0.00    +0.000 A 
ENDROOT
BRANCH   5  14
ATOM     14  C   UNL     1       6.547   4.823  14.278  0.00  0.00    +0.000 A 
ATOM     15  N   UNL     1       6.399   4.079  13.199  0.00  0.00    +0.000 NA
ATOM     16  N   UNL     1       7.419   4.419  12.344  0.00  0.00    +0.000 NA
ATOM     17  N   UNL     1       8.207   5.335  12.888  0.00  0.00    +0.000 NA
ATOM     18  N   UNL     1       7.676   5.577  14.092  0.00  0.00    +0.000 N 
ATOM     19  H   UNL     1       8.127   6.230  14.717  0.00  0.00    +0.000 HD
ENDBRANCH   5  14
BRANCH   1  20
ATOM     20  N   UNL     1       2.450   8.721  18.611  0.00  0.00    +0.000 N 
ATOM     21  H   UNL     1       2.905   9.250  17.870  0.00  0.00    +0.000 HD
BRANCH  20  26
ATOM     22  C   UNL     1      -0.269  10.507  20.521  0.00  0.00    +0.000 A 
ATOM     23  C   UNL     1      -1.166  10.736  19.467  0.00  0.00    +0.000 A 
ATOM     24  C   UNL     1      -0.882  10.270  18.191  0.00  0.00    +0.000 A 
ATOM     25  C   UNL     1       0.314   9.597  17.962  0.00  0.00    +0.000 A 
ATOM     26  C   UNL     1       1.243   9.345  18.997  0.00  0.00    +0.000 A 
ATOM     27  C   UNL     1       0.932   9.809  20.282  0.00  0.00    +0.000 A 
BRANCH  22  29
ATOM     28  N   UNL     1      -1.667  12.001  21.887  0.00  0.00    +0.000 N 
ATOM     29  C   UNL     1      -0.667  11.058  21.848  0.00  0.00    +0.000 C 
ATOM     30  O   UNL     1      -0.065  10.700  22.858  0.00  0.00    +0.000 OA
ATOM     31  H   UNL     1      -2.153  12.312  21.058  0.00  0.00    +0.000 HD
BRANCH  28  32
ATOM     32  C   UNL     1      -1.987  12.659  23.142  0.00  0.00    +0.000 C 
BRANCH  32  33
ATOM     33  C   UNL     1      -3.364  12.271  23.705  0.00  0.00    +0.000 C 
BRANCH  33  35
ATOM     34  C   UNL     1      -5.687  12.874  24.102  0.00  0.00    +0.000 C 
ATOM     35  N   UNL     1      -4.445  13.236  23.409  0.00  0.00    +0.000 NA
ATOM     36  C   UNL     1      -4.033  14.580  23.828  0.00  0.00    +0.000 C 
ENDBRANCH  33  35
ENDBRANCH  32  33
ENDBRANCH  28  32
ENDBRANCH  22  29
ENDBRANCH  20  26
ENDBRANCH   1  20
TORSDOF 7
ENDMDL
MODEL 4
REMARK VINA RESULT:      -9.1      2.452      3.037
REMARK  Name = 
REMARK  9 active torsions:
REMARK  status: ('A' for Active; 'I' for Inactive)
REMARK    1  A    between atoms: C_1  and  N_2
REMARK    2  A    between atoms: N_2  and  C_3
REMARK    3  A    between atoms: N_2  and  C_4
REMARK    4  A    between atoms: C_4  and  C_5
REMARK    5  A    between atoms: C_5  and  N_6
REMARK    6  A    between atoms: C_7  and  C_9
REMARK    7  A    between atoms: C_13  and  N_14
REMARK    8  A    between atoms: N_14  and  C_15
REMARK    9  A    between atoms: C_19  and  C_20
REMARK                            x       y       z     vdW  Elec       q    Type
REMARK                         _______ _______ _______ _____ _____    ______ ____
ROOT
ATOM      1  C   UNL     1       2.738   6.424  19.408  0.00  0.00    +0.000 A 
ATOM      2  N   UNL     1       3.727   6.532  18.476  0.00  0.00    +0.000 NA
ATOM      3  C   UNL     1       4.101   5.504  17.710  0.00  0.00    +0.000 A 
ATOM      4  C   UNL     1       5.090   5.706  16.755  0.00  0.00    +0.000 A 
ATOM      5  C   UNL     1       5.521   4.686  15.891  0.00  0.00    +0.000 A 
ATOM      6  C   UNL     1       4.949   3.417  16.010  0.00  0.00    +0.000 A 
ATOM      7  C   UNL     1       3.969   3.180  16.974  0.00  0.00    +0.000 A 
ATOM      8  C   UNL     1       3.537   4.230  17.819  0.00  0.00    +0.000 A 
ATOM      9  C   UNL     1       2.536   4.081  18.821  0.00  0.00    +0.000 A 
ATOM     10  S   UNL     1       1.654   2.643  19.220  0.00  0.00    +0.000 S 
ATOM     11  C   UNL     1       0.853   3.389  20.513  0.00  0.00    +0.000 A 
ATOM     12  C   UNL     1       1.219   4.705  20.646  0.00  0.00    +0.000 A 
ATOM     13  C   UNL     1       2.145   5.157  19.637  0.00  0.00    +0.000 A 
ENDROOT
BRANCH   5  14
ATOM     14  C   UNL     1       6.519   4.937  14.859  0.00  0.00    +0.000 A 
ATOM     15  N   UNL     1       7.634   5.634  14.964  0.00  0.00    +0.000 NA
ATOM     16  N   UNL     1       8.258   5.562  13.742  0.00  0.00    +0.000 NA
ATOM     17  N   UNL     1       7.535   4.861  12.881  0.00  0.00    +0.000 NA
ATOM     18  N   UNL     1       6.450   4.484  13.569  0.00  0.00    +0.000 N 
ATOM     19  H   UNL     1       5.724   3.954  13.107  0.00  0.00    +0.000 HD
ENDBRANCH   5  14
BRANCH   1  20
ATOM     20  N   UNL     1       2.531   7.616  20.119  0.00  0.00    +0.000 N 
ATOM     21  H   UNL     1       3.393   8.143  19.991  0.00  0.00    +0.000 HD
BRANCH  20  26
ATOM     22  C   UNL     1      -0.296  10.062  19.613  0.00  0.00    +0.000 A 
ATOM     23  C   UNL     1      -0.868  10.008  20.892  0.00  0.00    +0.000 A 
ATOM     24  C   UNL     1      -0.298   9.219  21.882  0.00  0.00    +0.000 A 
ATOM     25  C   UNL     1       0.831   8.462  21.584  0.00  0.00    +0.000 A 
ATOM     26  C   UNL     1       1.438   8.491  20.308  0.00  0.00    +0.000 A 
ATOM     27  C   UNL     1       0.858   9.305  19.326  0.00  0.00    +0.000 A 
BRANCH  22  29
ATOM     28  N   UNL     1      -1.974  10.370  17.840  0.00  0.00    +0.000 N 
ATOM     29  C   UNL     1      -0.993  10.933  18.623  0.00  0.00    +0.000 C 
ATOM     30  O   UNL     1      -0.644  12.104  18.494  0.00  0.00    +0.000 OA
ATOM     31  H   UNL     1      -2.252   9.403  17.929  0.00  0.00    +0.000 HD
BRANCH  28  32
ATOM     32  C   UNL     1      -2.579  11.149  16.773  0.00  0.00    +0.000 C 
BRANCH  32  33
ATOM     33  C   UNL     1      -4.104  10.980  16.678  0.00  0.00    +0.000 C 
BRANCH  33  35
ATOM     34  C   UNL     1      -5.892  12.610  16.933  0.00  0.00    +0.000 C 
ATOM     35  N   UNL     1      -4.876  11.811  17.628  0.00  0.00    +0.000 NA
ATOM     36  C   UNL     1      -5.533  10.948  18.616  0.00  0.00    +0.000 C 
ENDBRANCH  33  35
ENDBRANCH  32  33
ENDBRANCH  28  32
ENDBRANCH  22  29
ENDBRANCH  20  26
ENDBRANCH   1  20
TORSDOF 7
ENDMDL
MODEL 5
REMARK VINA RESULT:      -9.0      2.992      3.425
REMARK  Name = 
REMARK  9 active torsions:
REMARK  status: ('A' for Active; 'I' for Inactive)
REMARK    1  A    between atoms: C_1  and  N_2
REMARK    2  A    between atoms: N_2  and  C_3
REMARK    3  A    between atoms: N_2  and  C_4
REMARK    4  A    between atoms: C_4  and  C_5
REMARK    5  A    between atoms: C_5  and  N_6
REMARK    6  A    between atoms: C_7  and  C_9
REMARK    7  A    between atoms: C_13  and  N_14
REMARK    8  A    between atoms: N_14  and  C_15
REMARK    9  A    between atoms: C_19  and  C_20
REMARK                            x       y       z     vdW  Elec       q    Type
REMARK                         _______ _______ _______ _____ _____    ______ ____
ROOT
ATOM      1  C   UNL     1       2.852   7.495  18.330  0.00  0.00    +0.000 A 
ATOM      2  N   UNL     1       3.747   7.367  17.311  0.00  0.00    +0.000 NA
ATOM      3  C   UNL     1       4.273   6.188  16.966  0.00  0.00    +0.000 A 
ATOM      4  C   UNL     1       5.149   6.136  15.888  0.00  0.00    +0.000 A 
ATOM      5  C   UNL     1       5.724   4.933  15.445  0.00  0.00    +0.000 A 
ATOM      6  C   UNL     1       5.419   3.751  16.124  0.00  0.00    +0.000 A 
ATOM      7  C   UNL     1       4.559   3.777  17.223  0.00  0.00    +0.000 A 
ATOM      8  C   UNL     1       3.977   4.999  17.637  0.00  0.00    +0.000 A 
ATOM      9  C   UNL     1       3.082   5.117  18.739  0.00  0.00    +0.000 A 
ATOM     10  S   UNL     1       2.523   3.848  19.779  0.00  0.00    +0.000 S 
ATOM     11  C   UNL     1       1.664   4.921  20.769  0.00  0.00    +0.000 A 
ATOM     12  C   UNL     1       1.770   6.217  20.328  0.00  0.00    +0.000 A 
ATOM     13  C   UNL     1       2.533   6.356  19.112  0.00  0.00    +0.000 A 
ENDROOT
BRANCH   5  14
ATOM     14  C   UNL     1       6.594   4.894  14.277  0.00  0.00    +0.000 A 
ATOM     15  N   UNL     1       7.697   5.586  14.066  0.00  0.00    +0.000 NA
ATOM     16  N   UNL     1       8.183   5.188  12.844  0.00  0.00    +0.000 NA
ATOM     17  N   UNL     1       7.385   4.288  12.288  0.00  0.00    +0.000 NA
ATOM     18  N   UNL     1       6.393   4.114  13.169  0.00  0.00    +0.000 N 
ATOM     19  H   UNL     1       5.633   3.485  12.951  0.00  0.00    +0.000 HD
ENDBRANCH   5  14
BRANCH   1  20
ATOM     20  N   UNL     1       2.453   8.825  18.538  0.00  0.00    +0.000 N 
ATOM     21  H   UNL     1       2.997   9.362  17.866  0.00  0.00    +0.000 HD
BRANCH  20  26
ATOM     22  C   UNL     1      -1.041  10.231  18.334  0.00  0.00    +0.000 A 
ATOM     23  C   UNL     1      -1.201  10.621  19.671  0.00  0.00    +0.000 A 
ATOM     24  C   UNL     1      -0.164  10.457  20.578  0.00  0.00    +0.000 A 
ATOM     25  C   UNL     1       1.026   9.875  20.154  0.00  0.00    +0.000 A 
ATOM     26  C   UNL     1       1.228   9.470  18.815  0.00  0.00    +0.000 A 
ATOM     27  C   UNL     1       0.176   9.658  17.910  0.00  0.00    +0.000 A 
BRANCH  22  29
ATOM     28  N   UNL     1      -3.423  10.765  18.029  0.00  0.00    +0.000 N 
ATOM     29  C   UNL     1      -2.220  10.443  17.446  0.00  0.00    +0.000 C 
ATOM     30  O   UNL     1      -2.104  10.277  16.234  0.00  0.00    +0.000 OA
ATOM     31  H   UNL     1      -3.529  10.885  19.026  0.00  0.00    +0.000 HD
BRANCH  28  32
ATOM     32  C   UNL     1      -4.621  10.845  17.210  0.00  0.00    +0.000 C 
BRANCH  32  33
ATOM     33  C   UNL     1      -5.467  12.100  17.482  0.00  0.00    +0.000 C 
BRANCH  33  35
ATOM     34  C   UNL     1      -6.969  10.807  18.892  0.00  0.00    +0.000 C 
ATOM     35  N   UNL     1      -6.876  11.827  17.842  0.00  0.00    +0.000 NA
ATOM     36  C   UNL     1      -7.511  13.063  18.312  0.00  0.00    +0.000 C 
ENDBRANCH  33  35
ENDBRANCH  32  33
ENDBRANCH  28  32
ENDBRANCH  22  29
ENDBRANCH  20  26
ENDBRANCH   1  20
TORSDOF 7
ENDMDL
MODEL 6
REMARK VINA RESULT:      -9.0      0.857      1.167
REMARK  Name = 
REMARK  9 active torsions:
REMARK  status: ('A' for Active; 'I' for Inactive)
REMARK    1  A    between atoms: C_1  and  N_2
REMARK    2  A    between atoms: N_2  and  C_3
REMARK    3  A    between atoms: N_2  and  C_4
REMARK    4  A    between atoms: C_4  and  C_5
REMARK    5  A    between atoms: C_5  and  N_6
REMARK    6  A    between atoms: C_7  and  C_9
REMARK    7  A    between atoms: C_13  and  N_14
REMARK    8  A    between atoms: N_14  and  C_15
REMARK    9  A    between atoms: C_19  and  C_20
REMARK                            x       y       z     vdW  Elec       q    Type
REMARK                         _______ _______ _______ _____ _____    ______ ____
ROOT
ATOM      1  C   UNL     1       2.619   6.072  19.494  0.00  0.00    +0.000 A 
ATOM      2  N   UNL     1       3.580   6.258  18.545  0.00  0.00    +0.000 NA
ATOM      3  C   UNL     1       4.044   5.255  17.794  0.00  0.00    +0.000 A 
ATOM      4  C   UNL     1       4.996   5.534  16.820  0.00  0.00    +0.000 A 
ATOM      5  C   UNL     1       5.515   4.543  15.970  0.00  0.00    +0.000 A 
ATOM      6  C   UNL     1       5.072   3.227  16.123  0.00  0.00    +0.000 A 
ATOM      7  C   UNL     1       4.133   2.915  17.106  0.00  0.00    +0.000 A 
ATOM      8  C   UNL     1       3.610   3.935  17.936  0.00  0.00    +0.000 A 
ATOM      9  C   UNL     1       2.642   3.709  18.956  0.00  0.00    +0.000 A 
ATOM     10  S   UNL     1       1.912   2.200  19.396  0.00  0.00    +0.000 S 
ATOM     11  C   UNL     1       1.058   2.890  20.686  0.00  0.00    +0.000 A 
ATOM     12  C   UNL     1       1.293   4.238  20.788  0.00  0.00    +0.000 A 
ATOM     13  C   UNL     1       2.157   4.758  19.756  0.00  0.00    +0.000 A 
ENDROOT
BRANCH   5  14
ATOM     14  C   UNL     1       6.469   4.870  14.919  0.00  0.00    +0.000 A 
ATOM     15  N   UNL     1       6.430   4.511  13.650  0.00  0.00    +0.000 NA
ATOM     16  N   UNL     1       7.523   5.082  13.046  0.00  0.00    +0.000 NA
ATOM     17  N   UNL     1       8.249   5.759  13.923  0.00  0.00    +0.000 NA
ATOM     18  N   UNL     1       7.604   5.617  15.088  0.00  0.00    +0.000 N 
ATOM     19  H   UNL     1       7.989   6.028  15.927  0.00  0.00    +0.000 HD
ENDBRANCH   5  14
BRANCH   1  20
ATOM     20  N   UNL     1       2.304   7.253  20.184  0.00  0.00    +0.000 N 
ATOM     21  H   UNL     1       3.101   7.410  20.798  0.00  0.00    +0.000 HD
BRANCH  20  26
ATOM     22  C   UNL     1       0.605  10.620  20.284  0.00  0.00    +0.000 A 
ATOM     23  C   UNL     1       0.706  10.958  18.927  0.00  0.00    +0.000 A 
ATOM     24  C   UNL     1       1.277  10.074  18.024  0.00  0.00    +0.000 A 
ATOM     25  C   UNL     1       1.774   8.858  18.483  0.00  0.00    +0.000 A 
ATOM     26  C   UNL     1       1.691   8.479  19.841  0.00  0.00    +0.000 A 
ATOM     27  C   UNL     1       1.097   9.378  20.736  0.00  0.00    +0.000 A 
BRANCH  22  29
ATOM     28  N   UNL     1      -1.375  11.592  21.372  0.00  0.00    +0.000 N 
ATOM     29  C   UNL     1      -0.016  11.646  21.169  0.00  0.00    +0.000 C 
ATOM     30  O   UNL     1       0.682  12.536  21.649  0.00  0.00    +0.000 OA
ATOM     31  H   UNL     1      -1.957  10.873  20.965  0.00  0.00    +0.000 HD
BRANCH  28  32
ATOM     32  C   UNL     1      -2.036  12.652  22.115  0.00  0.00    +0.000 C 
BRANCH  32  33
ATOM     33  C   UNL     1      -2.910  12.138  23.270  0.00  0.00    +0.000 C 
BRANCH  33  35
ATOM     34  C   UNL     1      -4.671  13.675  23.946  0.00  0.00    +0.000 C 
ATOM     35  N   UNL     1      -4.345  12.482  23.157  0.00  0.00    +0.000 NA
ATOM     36  C   UNL     1      -4.682  12.726  21.750  0.00  0.00    +0.000 C 
ENDBRANCH  33  35
ENDBRANCH  32  33
ENDBRANCH  28  32
ENDBRANCH  22  29
ENDBRANCH  20  26
ENDBRANCH   1  20
TORSDOF 7
ENDMDL
MODEL 7
REMARK VINA RESULT:      -8.7      1.299      1.653
REMARK  Name = 
REMARK  9 active torsions:
REMARK  status: ('A' for Active; 'I' for Inactive)
REMARK    1  A    between atoms: C_1  and  N_2
REMARK    2  A    between atoms: N_2  and  C_3
REMARK    3  A    between atoms: N_2  and  C_4
REMARK    4  A    between atoms: C_4  and  C_5
REMARK    5  A    between atoms: C_5  and  N_6
REMARK    6  A    between atoms: C_7  and  C_9
REMARK    7  A    between atoms: C_13  and  N_14
REMARK    8  A    between atoms: N_14  and  C_15
REMARK    9  A    between atoms: C_19  and  C_20
REMARK                            x       y       z     vdW  Elec       q    Type
REMARK                         _______ _______ _______ _____ _____    ______ ____
ROOT
ATOM      1  C   UNL     1       2.841   7.342  18.459  0.00  0.00    +0.000 A 
ATOM      2  N   UNL     1       3.723   7.237  17.425  0.00  0.00    +0.000 NA
ATOM      3  C   UNL     1       4.239   6.065  17.044  0.00  0.00    +0.000 A 
ATOM      4  C   UNL     1       5.101   6.036  15.954  0.00  0.00    +0.000 A 
ATOM      5  C   UNL     1       5.664   4.843  15.473  0.00  0.00    +0.000 A 
ATOM      6  C   UNL     1       5.361   3.645  16.124  0.00  0.00    +0.000 A 
ATOM      7  C   UNL     1       4.515   3.647  17.234  0.00  0.00    +0.000 A 
ATOM      8  C   UNL     1       3.944   4.860  17.687  0.00  0.00    +0.000 A 
ATOM      9  C   UNL     1       3.063   4.954  18.802  0.00  0.00    +0.000 A 
ATOM     10  S   UNL     1       2.510   3.661  19.816  0.00  0.00    +0.000 S 
ATOM     11  C   UNL     1       1.669   4.712  20.844  0.00  0.00    +0.000 A 
ATOM     12  C   UNL     1       1.777   6.018  20.436  0.00  0.00    +0.000 A 
ATOM     13  C   UNL     1       2.526   6.185  19.214  0.00  0.00    +0.000 A 
ENDROOT
BRANCH   5  14
ATOM     14  C   UNL     1       6.520   4.830  14.293  0.00  0.00    +0.000 A 
ATOM     15  N   UNL     1       7.622   5.523  14.086  0.00  0.00    +0.000 NA
ATOM     16  N   UNL     1       8.091   5.154  12.848  0.00  0.00    +0.000 NA
ATOM     17  N   UNL     1       7.284   4.271  12.280  0.00  0.00    +0.000 NA
ATOM     18  N   UNL     1       6.302   4.079  13.169  0.00  0.00    +0.000 N 
ATOM     19  H   UNL     1       5.537   3.458  12.944  0.00  0.00    +0.000 HD
ENDBRANCH   5  14
BRANCH   1  20
ATOM     20  N   UNL     1       2.452   8.668  18.706  0.00  0.00    +0.000 N 
ATOM     21  H   UNL     1       2.929   9.212  17.989  0.00  0.00    +0.000 HD
BRANCH  20  26
ATOM     22  C   UNL     1      -0.270  10.425  20.639  0.00  0.00    +0.000 A 
ATOM     23  C   UNL     1      -1.134  10.729  19.577  0.00  0.00    +0.000 A 
ATOM     24  C   UNL     1      -0.829  10.322  18.286  0.00  0.00    +0.000 A 
ATOM     25  C   UNL     1       0.356   9.631  18.052  0.00  0.00    +0.000 A 
ATOM     26  C   UNL     1       1.251   9.303  19.094  0.00  0.00    +0.000 A 
ATOM     27  C   UNL     1       0.920   9.709  20.393  0.00  0.00    +0.000 A 
BRANCH  22  29
ATOM     28  N   UNL     1      -1.731  11.810  22.052  0.00  0.00    +0.000 N 
ATOM     29  C   UNL     1      -0.688  10.918  21.983  0.00  0.00    +0.000 C 
ATOM     30  O   UNL     1      -0.065  10.560  22.980  0.00  0.00    +0.000 OA
ATOM     31  H   UNL     1      -2.235  12.122  21.234  0.00  0.00    +0.000 HD
BRANCH  28  32
ATOM     32  C   UNL     1      -2.077  12.417  23.327  0.00  0.00    +0.000 C 
BRANCH  32  33
ATOM     33  C   UNL     1      -1.590  13.868  23.468  0.00  0.00    +0.000 C 
BRANCH  33  35
ATOM     34  C   UNL     1      -3.050  15.810  23.336  0.00  0.00    +0.000 C 
ATOM     35  N   UNL     1      -2.264  14.834  22.572  0.00  0.00    +0.000 NA
ATOM     36  C   UNL     1      -1.262  15.542  21.770  0.00  0.00    +0.000 C 
ENDBRANCH  33  35
ENDBRANCH  32  33
ENDBRANCH  28  32
ENDBRANCH  22  29
ENDBRANCH  20  26
ENDBRANCH   1  20
TORSDOF 7
ENDMDL
MODEL 8
REMARK VINA RESULT:      -8.7      2.548      3.162
REMARK  Name = 
REMARK  9 active torsions:
REMARK  status: ('A' for Active; 'I' for Inactive)
REMARK    1  A    between atoms: C_1  and  N_2
REMARK    2  A    between atoms: N_2  and  C_3
REMARK    3  A    between atoms: N_2  and  C_4
REMARK    4  A    between atoms: C_4  and  C_5
REMARK    5  A    between atoms: C_5  and  N_6
REMARK    6  A    between atoms: C_7  and  C_9
REMARK    7  A    between atoms: C_13  and  N_14
REMARK    8  A    between atoms: N_14  and  C_15
REMARK    9  A    between atoms: C_19  and  C_20
REMARK                            x       y       z     vdW  Elec       q    Type
REMARK                         _______ _______ _______ _____ _____    ______ ____
ROOT
ATOM      1  C   UNL     1       2.837   6.113  19.556  0.00  0.00    +0.000 A 
ATOM      2  N   UNL     1       3.812   6.275  18.617  0.00  0.00    +0.000 NA
ATOM      3  C   UNL     1       4.186   5.287  17.799  0.00  0.00    +0.000 A 
ATOM      4  C   UNL     1       5.159   5.544  16.840  0.00  0.00    +0.000 A 
ATOM      5  C   UNL     1       5.588   4.568  15.925  0.00  0.00    +0.000 A 
ATOM      6  C   UNL     1       5.030   3.289  15.994  0.00  0.00    +0.000 A 
ATOM      7  C   UNL     1       4.066   2.998  16.959  0.00  0.00    +0.000 A 
ATOM      8  C   UNL     1       3.636   4.003  17.857  0.00  0.00    +0.000 A 
ATOM      9  C   UNL     1       2.651   3.798  18.865  0.00  0.00    +0.000 A 
ATOM     10  S   UNL     1       1.790   2.334  19.209  0.00  0.00    +0.000 S 
ATOM     11  C   UNL     1       0.999   3.011  20.546  0.00  0.00    +0.000 A 
ATOM     12  C   UNL     1       1.353   4.324  20.734  0.00  0.00    +0.000 A 
ATOM     13  C   UNL     1       2.261   4.831  19.735  0.00  0.00    +0.000 A 
ENDROOT
BRANCH   5  14
ATOM     14  C   UNL     1       6.569   4.877  14.892  0.00  0.00    +0.000 A 
ATOM     15  N   UNL     1       7.651   5.623  15.001  0.00  0.00    +0.000 NA
ATOM     16  N   UNL     1       8.272   5.594  13.776  0.00  0.00    +0.000 NA
ATOM     17  N   UNL     1       7.578   4.871  12.909  0.00  0.00    +0.000 NA
ATOM     18  N   UNL     1       6.514   4.437  13.597  0.00  0.00    +0.000 N 
ATOM     19  H   UNL     1       5.811   3.879  13.132  0.00  0.00    +0.000 HD
ENDBRANCH   5  14
BRANCH   1  20
ATOM     20  N   UNL     1       2.627   7.270  20.323  0.00  0.00    +0.000 N 
ATOM     21  H   UNL     1       3.528   7.744  20.321  0.00  0.00    +0.000 HD
BRANCH  20  26
ATOM     22  C   UNL     1       0.132  10.042  19.760  0.00  0.00    +0.000 A 
ATOM     23  C   UNL     1      -0.704   9.814  20.862  0.00  0.00    +0.000 A 
ATOM     24  C   UNL     1      -0.411   8.805  21.768  0.00  0.00    +0.000 A 
ATOM     25  C   UNL     1       0.707   8.004  21.557  0.00  0.00    +0.000 A 
ATOM     26  C   UNL     1       1.575   8.202  20.460  0.00  0.00    +0.000 A 
ATOM     27  C   UNL     1       1.272   9.236  19.565  0.00  0.00    +0.000 A 
BRANCH  22  29
ATOM     28  N   UNL     1       0.274  12.388  19.035  0.00  0.00    +0.000 N 
ATOM     29  C   UNL     1      -0.280  11.144  18.845  0.00  0.00    +0.000 C 
ATOM     30  O   UNL     1      -1.133  10.932  17.985  0.00  0.00    +0.000 OA
ATOM     31  H   UNL     1       0.962  12.573  19.751  0.00  0.00    +0.000 HD
BRANCH  28  32
ATOM     32  C   UNL     1      -0.203  13.517  18.252  0.00  0.00    +0.000 C 
BRANCH  32  33
ATOM     33  C   UNL     1      -0.221  14.841  19.033  0.00  0.00    +0.000 C 
BRANCH  33  35
ATOM     34  C   UNL     1       2.090  15.443  18.567  0.00  0.00    +0.000 C 
ATOM     35  N   UNL     1       1.083  15.231  19.613  0.00  0.00    +0.000 NA
ATOM     36  C   UNL     1       0.926  16.466  20.389  0.00  0.00    +0.000 C 
ENDBRANCH  33  35
ENDBRANCH  32  33
ENDBRANCH  28  32
ENDBRANCH  22  29
ENDBRANCH  20  26
ENDBRANCH   1  20
TORSDOF 7
ENDMDL
MODEL 9
REMARK VINA RESULT:      -8.5      2.795      3.373
REMARK  Name = 
REMARK  9 active torsions:
REMARK  status: ('A' for Active; 'I' for Inactive)
REMARK    1  A    between atoms: C_1  and  N_2
REMARK    2  A    between atoms: N_2  and  C_3
REMARK    3  A    between atoms: N_2  and  C_4
REMARK    4  A    between atoms: C_4  and  C_5
REMARK    5  A    between atoms: C_5  and  N_6
REMARK    6  A    between atoms: C_7  and  C_9
REMARK    7  A    between atoms: C_13  and  N_14
REMARK    8  A    between atoms: N_14  and  C_15
REMARK    9  A    between atoms: C_19  and  C_20
REMARK                            x       y       z     vdW  Elec       q    Type
REMARK                         _______ _______ _______ _____ _____    ______ ____
ROOT
ATOM      1  C   UNL     1       2.617   6.918  18.990  0.00  0.00    +0.000 A 
ATOM      2  N   UNL     1       3.574   6.939  18.019  0.00  0.00    +0.000 NA
ATOM      3  C   UNL     1       4.050   5.822  17.462  0.00  0.00    +0.000 A 
ATOM      4  C   UNL     1       4.996   5.930  16.449  0.00  0.00    +0.000 A 
ATOM      5  C   UNL     1       5.527   4.807  15.794  0.00  0.00    +0.000 A 
ATOM      6  C   UNL     1       5.103   3.536  16.188  0.00  0.00    +0.000 A 
ATOM      7  C   UNL     1       4.170   3.396  17.216  0.00  0.00    +0.000 A 
ATOM      8  C   UNL     1       3.635   4.545  17.847  0.00  0.00    +0.000 A 
ATOM      9  C   UNL     1       2.672   4.497  18.896  0.00  0.00    +0.000 A 
ATOM     10  S   UNL     1       1.965   3.085  19.609  0.00  0.00    +0.000 S 
ATOM     11  C   UNL     1       1.104   3.989  20.754  0.00  0.00    +0.000 A 
ATOM     12  C   UNL     1       1.320   5.336  20.606  0.00  0.00    +0.000 A 
ATOM     13  C   UNL     1       2.175   5.669  19.492  0.00  0.00    +0.000 A 
ENDROOT
BRANCH   5  14
ATOM     14  C   UNL     1       6.474   4.947  14.696  0.00  0.00    +0.000 A 
ATOM     15  N   UNL     1       7.594   5.643  14.677  0.00  0.00    +0.000 NA
ATOM     16  N   UNL     1       8.159   5.446  13.440  0.00  0.00    +0.000 NA
ATOM     17  N   UNL     1       7.393   4.668  12.689  0.00  0.00    +0.000 NA
ATOM     18  N   UNL     1       6.342   4.369  13.462  0.00  0.00    +0.000 N 
ATOM     19  H   UNL     1       5.593   3.801  13.090  0.00  0.00    +0.000 HD
ENDBRANCH   5  14
BRANCH   1  20
ATOM     20  N   UNL     1       2.287   8.201  19.453  0.00  0.00    +0.000 N 
ATOM     21  H   UNL     1       3.157   8.726  19.393  0.00  0.00    +0.000 HD
BRANCH  20  26
ATOM     22  C   UNL     1      -0.767  10.009  18.173  0.00  0.00    +0.000 A 
ATOM     23  C   UNL     1      -1.109  10.715  19.335  0.00  0.00    +0.000 A 
ATOM     24  C   UNL     1      -0.322  10.617  20.473  0.00  0.00    +0.000 A 
ATOM     25  C   UNL     1       0.796   9.789  20.458  0.00  0.00    +0.000 A 
ATOM     26  C   UNL     1       1.176   9.062  19.307  0.00  0.00    +0.000 A 
ATOM     27  C   UNL     1       0.378   9.186  18.163  0.00  0.00    +0.000 A 
BRANCH  22  29
ATOM     28  N   UNL     1      -2.289  11.401  16.832  0.00  0.00    +0.000 N 
ATOM     29  C   UNL     1      -1.685  10.179  17.011  0.00  0.00    +0.000 C 
ATOM     30  O   UNL     1      -1.920   9.220  16.278  0.00  0.00    +0.000 OA
ATOM     31  H   UNL     1      -2.114  12.188  17.442  0.00  0.00    +0.000 HD
BRANCH  28  32
ATOM     32  C   UNL     1      -3.293  11.564  15.794  0.00  0.00    +0.000 C 
BRANCH  32  33
ATOM     33  C   UNL     1      -4.735  11.413  16.306  0.00  0.00    +0.000 C 
BRANCH  33  35
ATOM     34  C   UNL     1      -6.034  12.820  17.807  0.00  0.00    +0.000 C 
ATOM     35  N   UNL     1      -4.940  11.847  17.706  0.00  0.00    +0.000 NA
ATOM     36  C   UNL     1      -5.251  10.682  18.541  0.00  0.00    +0.000 C 
ENDBRANCH  33  35
ENDBRANCH  32  33
ENDBRANCH  28  32
ENDBRANCH  22  29
ENDBRANCH  20  26
ENDBRANCH   1  20
TORSDOF 7
ENDMDL
