MODEL 1
REMARK VINA RESULT:      -7.8      0.000      0.000
REMARK  Name = 
REMARK  3 active torsions:
REMARK  status: ('A' for Active; 'I' for Inactive)
REMARK    1  A    between atoms: C_1  and  C_2
REMARK    2  A    between atoms: C_6  and  N_7
REMARK    3  A    between atoms: C_13  and  C_14
REMARK                            x       y       z     vdW  Elec       q    Type
REMARK                         _______ _______ _______ _____ _____    ______ ____
ROOT
ATOM      1  N   UNL     1       1.586   8.430  19.549  0.00  0.00    +0.000 N 
ATOM      2  C   UNL     1       2.078   7.159  19.631  0.00  0.00    +0.000 C 
ATOM      3  N   UNL     1       1.832   6.226  20.486  0.00  0.00    +0.000 NA
ATOM      4  C   UNL     1       2.557   5.079  20.281  0.00  0.00    +0.000 C 
ATOM      5  O   UNL     1       2.486   4.069  20.967  0.00  0.00    +0.000 OA
ATOM      6  C   UNL     1       3.473   5.212  19.116  0.00  0.00    +0.000 C 
ATOM      7  C   UNL     1       4.326   4.246  18.759  0.00  0.00    +0.000 C 
ATOM      8  S   UNL     1       3.256   6.755  18.392  0.00  0.00    +0.000 S 
ATOM      9  H   UNL     1       1.982   8.998  18.811  0.00  0.00    +0.000 HD
ENDROOT
BRANCH   1  15
ATOM     10  C   UNL     1      -1.549  12.005  21.006  0.00  0.00    +0.000 C 
ATOM     11  C   UNL     1      -0.621  10.877  21.344  0.00  0.00    +0.000 A 
ATOM     12  C   UNL     1      -0.429  10.458  22.661  0.00  0.00    +0.000 A 
ATOM     13  C   UNL     1       0.454   9.417  22.940  0.00  0.00    +0.000 A 
ATOM     14  C   UNL     1       1.135   8.777  21.900  0.00  0.00    +0.000 A 
ATOM     15  C   UNL     1       0.935   9.153  20.564  0.00  0.00    +0.000 A 
ATOM     16  C   UNL     1       0.069  10.224  20.310  0.00  0.00    +0.000 A 
ENDBRANCH   1  15
BRANCH   7  17
ATOM     17  C   UNL     1       5.263   4.361  17.645  0.00  0.00    +0.000 A 
ATOM     18  C   UNL     1       4.857   4.077  16.342  0.00  0.00    +0.000 A 
ATOM     19  C   UNL     1       5.787   4.134  15.307  0.00  0.00    +0.000 A 
ATOM     20  C   UNL     1       7.094   4.476  15.616  0.00  0.00    +0.000 A 
ATOM     21  N   UNL     1       7.522   4.766  16.864  0.00  0.00    +0.000 NA
ATOM     22  C   UNL     1       6.597   4.700  17.851  0.00  0.00    +0.000 A 
ENDBRANCH   7  17
TORSDOF 2
ENDMDL
MODEL 2
REMARK VINA RESULT:      -7.7      1.051      1.688
REMARK  Name = 
REMARK  3 active torsions:
REMARK  status: ('A' for Active; 'I' for Inactive)
REMARK    1  A    between atoms: C_1  and  C_2
REMARK    2  A    between atoms: C_6  and  N_7
REMARK    3  A    between atoms: C_13  and  C_14
REMARK                            x       y       z     vdW  Elec       q    Type
REMARK                         _______ _______ _______ _____ _____    ______ ____
ROOT
ATOM      1  N   UNL     1       1.691   8.912  18.649  0.00  0.00    +0.000 N 
ATOM      2  C   UNL     1       2.286   7.696  18.828  0.00  0.00    +0.000 C 
ATOM      3  N   UNL     1       2.195   6.862  19.806  0.00  0.00    +0.000 NA
ATOM      4  C   UNL     1       2.984   5.749  19.663  0.00  0.00    +0.000 C 
ATOM      5  O   UNL     1       3.056   4.829  20.465  0.00  0.00    +0.000 OA
ATOM      6  C   UNL     1       3.772   5.796  18.402  0.00  0.00    +0.000 C 
ATOM      7  C   UNL     1       4.660   4.851  18.074  0.00  0.00    +0.000 C 
ATOM      8  S   UNL     1       3.369   7.219  17.529  0.00  0.00    +0.000 S 
ATOM      9  H   UNL     1       1.970   9.409  17.813  0.00  0.00    +0.000 HD
ENDROOT
BRANCH   1  15
ATOM     10  C   UNL     1      -0.123   9.512  23.241  0.00  0.00    +0.000 C 
ATOM     11  C   UNL     1       0.204  10.078  21.892  0.00  0.00    +0.000 A 
ATOM     12  C   UNL     1      -0.011  11.423  21.591  0.00  0.00    +0.000 A 
ATOM     13  C   UNL     1       0.290  11.911  20.321  0.00  0.00    +0.000 A 
ATOM     14  C   UNL     1       0.824  11.059  19.350  0.00  0.00    +0.000 A 
ATOM     15  C   UNL     1       1.084   9.711  19.635  0.00  0.00    +0.000 A 
ATOM     16  C   UNL     1       0.743   9.234  20.907  0.00  0.00    +0.000 A 
ENDBRANCH   1  15
BRANCH   7  17
ATOM     17  C   UNL     1       5.476   4.889  16.863  0.00  0.00    +0.000 A 
ATOM     18  C   UNL     1       5.094   4.177  15.727  0.00  0.00    +0.000 A 
ATOM     19  C   UNL     1       5.923   4.180  14.607  0.00  0.00    +0.000 A 
ATOM     20  C   UNL     1       7.107   4.899  14.668  0.00  0.00    +0.000 A 
ATOM     21  N   UNL     1       7.505   5.605  15.747  0.00  0.00    +0.000 NA
ATOM     22  C   UNL     1       6.681   5.583  16.822  0.00  0.00    +0.000 A 
ENDBRANCH   7  17
TORSDOF 2
ENDMDL
MODEL 3
REMARK VINA RESULT:      -7.6      0.688      1.120
REMARK  Name = 
REMARK  3 active torsions:
REMARK  status: ('A' for Active; 'I' for Inactive)
REMARK    1  A    between atoms: C_1  and  C_2
REMARK    2  A    between atoms: C_6  and  N_7
REMARK    3  A    between atoms: C_13  and  C_14
REMARK                            x       y       z     vdW  Elec       q    Type
REMARK                         _______ _______ _______ _____ _____    ______ ____
ROOT
ATOM      1  N   UNL     1       1.526   8.459  19.816  0.00  0.00    +0.000 N 
ATOM      2  C   UNL     1       1.949   7.165  19.922  0.00  0.00    +0.000 C 
ATOM      3  N   UNL     1       1.597   6.240  20.749  0.00  0.00    +0.000 NA
ATOM      4  C   UNL     1       2.280   5.060  20.586  0.00  0.00    +0.000 C 
ATOM      5  O   UNL     1       2.111   4.051  21.256  0.00  0.00    +0.000 OA
ATOM      6  C   UNL     1       3.282   5.156  19.491  0.00  0.00    +0.000 C 
ATOM      7  C   UNL     1       4.112   4.151  19.188  0.00  0.00    +0.000 C 
ATOM      8  S   UNL     1       3.193   6.711  18.767  0.00  0.00    +0.000 S 
ATOM      9  H   UNL     1       2.000   9.011  19.114  0.00  0.00    +0.000 HD
ENDROOT
BRANCH   1  15
ATOM     10  C   UNL     1      -1.609  12.110  21.070  0.00  0.00    +0.000 C 
ATOM     11  C   UNL     1      -0.722  10.969  21.468  0.00  0.00    +0.000 A 
ATOM     12  C   UNL     1      -0.605  10.564  22.797  0.00  0.00    +0.000 A 
ATOM     13  C   UNL     1       0.242   9.509  23.133  0.00  0.00    +0.000 A 
ATOM     14  C   UNL     1       0.963   8.844  22.137  0.00  0.00    +0.000 A 
ATOM     15  C   UNL     1       0.838   9.206  20.788  0.00  0.00    +0.000 A 
ATOM     16  C   UNL     1       0.007  10.290  20.478  0.00  0.00    +0.000 A 
ENDBRANCH   1  15
BRANCH   7  17
ATOM     17  C   UNL     1       5.132   4.227  18.145  0.00  0.00    +0.000 A 
ATOM     18  C   UNL     1       6.404   4.721  18.429  0.00  0.00    +0.000 A 
ATOM     19  C   UNL     1       7.337   4.840  17.402  0.00  0.00    +0.000 A 
ATOM     20  C   UNL     1       6.960   4.459  16.124  0.00  0.00    +0.000 A 
ATOM     21  N   UNL     1       5.741   3.969  15.813  0.00  0.00    +0.000 NA
ATOM     22  C   UNL     1       4.853   3.866  16.830  0.00  0.00    +0.000 A 
ENDBRANCH   7  17
TORSDOF 2
ENDMDL
MODEL 4
REMARK VINA RESULT:      -7.5      2.516      3.021
REMARK  Name = 
REMARK  3 active torsions:
REMARK  status: ('A' for Active; 'I' for Inactive)
REMARK    1  A    between atoms: C_1  and  C_2
REMARK    2  A    between atoms: C_6  and  N_7
REMARK    3  A    between atoms: C_13  and  C_14
REMARK                            x       y       z     vdW  Elec       q    Type
REMARK                         _______ _______ _______ _____ _____    ______ ____
ROOT
ATOM      1  N   UNL     1       0.828   8.541  21.468  0.00  0.00    +0.000 N 
ATOM      2  C   UNL     1       1.462   8.192  20.310  0.00  0.00    +0.000 C 
ATOM      3  N   UNL     1       1.734   8.897  19.265  0.00  0.00    +0.000 NA
ATOM      4  C   UNL     1       2.345   8.190  18.261  0.00  0.00    +0.000 C 
ATOM      5  O   UNL     1       2.692   8.654  17.184  0.00  0.00    +0.000 OA
ATOM      6  C   UNL     1       2.526   6.760  18.631  0.00  0.00    +0.000 C 
ATOM      7  C   UNL     1       3.042   5.860  17.787  0.00  0.00    +0.000 C 
ATOM      8  S   UNL     1       1.950   6.506  20.229  0.00  0.00    +0.000 S 
ATOM      9  H   UNL     1       0.682   7.785  22.124  0.00  0.00    +0.000 HD
ENDROOT
BRANCH   1  15
ATOM     10  C   UNL     1      -1.612  12.522  19.757  0.00  0.00    +0.000 C 
ATOM     11  C   UNL     1      -1.227  11.629  20.897  0.00  0.00    +0.000 A 
ATOM     12  C   UNL     1      -1.710  11.841  22.188  0.00  0.00    +0.000 A 
ATOM     13  C   UNL     1      -1.318  11.000  23.228  0.00  0.00    +0.000 A 
ATOM     14  C   UNL     1      -0.453   9.931  22.977  0.00  0.00    +0.000 A 
ATOM     15  C   UNL     1       0.021   9.672  21.683  0.00  0.00    +0.000 A 
ATOM     16  C   UNL     1      -0.360  10.550  20.660  0.00  0.00    +0.000 A 
ENDBRANCH   1  15
BRANCH   7  17
ATOM     17  C   UNL     1       3.198   4.443  18.107  0.00  0.00    +0.000 A 
ATOM     18  C   UNL     1       2.270   3.507  17.653  0.00  0.00    +0.000 A 
ATOM     19  C   UNL     1       2.408   2.172  18.024  0.00  0.00    +0.000 A 
ATOM     20  C   UNL     1       3.474   1.823  18.839  0.00  0.00    +0.000 A 
ATOM     21  N   UNL     1       4.395   2.700  19.291  0.00  0.00    +0.000 NA
ATOM     22  C   UNL     1       4.236   3.992  18.916  0.00  0.00    +0.000 A 
ENDBRANCH   7  17
TORSDOF 2
ENDMDL
MODEL 5
REMARK VINA RESULT:      -7.4      0.992      1.071
REMARK  Name = 
REMARK  3 active torsions:
REMARK  status: ('A' for Active; 'I' for Inactive)
REMARK    1  A    between atoms: C_1  and  C_2
REMARK    2  A    between atoms: C_6  and  N_7
REMARK    3  A    between atoms: C_13  and  C_14
REMARK                            x       y       z     vdW  Elec       q    Type
REMARK                         _______ _______ _______ _____ _____    ______ ____
ROOT
ATOM      1  N   UNL     1       1.872   8.431  18.853  0.00  0.00    +0.000 N 
ATOM      2  C   UNL     1       2.460   7.198  18.875  0.00  0.00    +0.000 C 
ATOM      3  N   UNL     1       2.381   6.255  19.750  0.00  0.00    +0.000 NA
ATOM      4  C   UNL     1       3.157   5.161  19.459  0.00  0.00    +0.000 C 
ATOM      5  O   UNL     1       3.237   4.153  20.147  0.00  0.00    +0.000 OA
ATOM      6  C   UNL     1       3.920   5.352  18.197  0.00  0.00    +0.000 C 
ATOM      7  C   UNL     1       4.793   4.447  17.741  0.00  0.00    +0.000 C 
ATOM      8  S   UNL     1       3.512   6.871  17.507  0.00  0.00    +0.000 S 
ATOM      9  H   UNL     1       2.139   9.021  18.076  0.00  0.00    +0.000 HD
ENDROOT
BRANCH   1  15
ATOM     10  C   UNL     1      -0.262  12.479  20.800  0.00  0.00    +0.000 C 
ATOM     11  C   UNL     1       0.208  11.063  20.947  0.00  0.00    +0.000 A 
ATOM     12  C   UNL     1       0.023  10.350  22.132  0.00  0.00    +0.000 A 
ATOM     13  C   UNL     1       0.487   9.040  22.238  0.00  0.00    +0.000 A 
ATOM     14  C   UNL     1       1.124   8.432  21.153  0.00  0.00    +0.000 A 
ATOM     15  C   UNL     1       1.292   9.111  19.938  0.00  0.00    +0.000 A 
ATOM     16  C   UNL     1       0.848  10.438  19.865  0.00  0.00    +0.000 A 
ENDBRANCH   1  15
BRANCH   7  17
ATOM     17  C   UNL     1       5.585   4.621  16.527  0.00  0.00    +0.000 A 
ATOM     18  C   UNL     1       5.209   3.999  15.337  0.00  0.00    +0.000 A 
ATOM     19  C   UNL     1       6.016   4.132  14.210  0.00  0.00    +0.000 A 
ATOM     20  C   UNL     1       7.174   4.887  14.316  0.00  0.00    +0.000 A 
ATOM     21  N   UNL     1       7.566   5.510  15.448  0.00  0.00    +0.000 NA
ATOM     22  C   UNL     1       6.763   5.362  16.530  0.00  0.00    +0.000 A 
ENDBRANCH   7  17
TORSDOF 2
ENDMDL
MODEL 6
REMARK VINA RESULT:      -7.3      2.667      3.191
REMARK  Name = 
REMARK  3 active torsions:
REMARK  status: ('A' for Active; 'I' for Inactive)
REMARK    1  A    between atoms: C_1  and  C_2
REMARK    2  A    between atoms: C_6  and  N_7
REMARK    3  A    between atoms: C_13  and  C_14
REMARK                            x       y       z     vdW  Elec       q    Type
REMARK                         _______ _______ _______ _____ _____    ______ ____
ROOT
ATOM      1  N   UNL     1       0.807   8.528  21.494  0.00  0.00    +0.000 N 
ATOM      2  C   UNL     1       1.445   8.161  20.344  0.00  0.00    +0.000 C 
ATOM      3  N   UNL     1       1.730   8.852  19.293  0.00  0.00    +0.000 NA
ATOM      4  C   UNL     1       2.341   8.128  18.301  0.00  0.00    +0.000 C 
ATOM      5  O   UNL     1       2.699   8.578  17.221  0.00  0.00    +0.000 OA
ATOM      6  C   UNL     1       2.508   6.702  18.687  0.00  0.00    +0.000 C 
ATOM      7  C   UNL     1       3.022   5.788  17.857  0.00  0.00    +0.000 C 
ATOM      8  S   UNL     1       1.920   6.470  20.284  0.00  0.00    +0.000 S 
ATOM      9  H   UNL     1       0.650   7.781  22.157  0.00  0.00    +0.000 HD
ENDROOT
BRANCH   1  15
ATOM     10  C   UNL     1      -1.600  12.503  19.721  0.00  0.00    +0.000 C 
ATOM     11  C   UNL     1      -1.224  11.623  20.875  0.00  0.00    +0.000 A 
ATOM     12  C   UNL     1      -1.708  11.857  22.162  0.00  0.00    +0.000 A 
ATOM     13  C   UNL     1      -1.324  11.028  23.214  0.00  0.00    +0.000 A 
ATOM     14  C   UNL     1      -0.467   9.949  22.980  0.00  0.00    +0.000 A 
ATOM     15  C   UNL     1       0.007   9.668  21.691  0.00  0.00    +0.000 A 
ATOM     16  C   UNL     1      -0.364  10.534  20.655  0.00  0.00    +0.000 A 
ENDBRANCH   1  15
BRANCH   7  17
ATOM     17  C   UNL     1       3.163   4.374  18.193  0.00  0.00    +0.000 A 
ATOM     18  C   UNL     1       4.174   3.944  19.051  0.00  0.00    +0.000 A 
ATOM     19  C   UNL     1       4.324   2.583  19.305  0.00  0.00    +0.000 A 
ATOM     20  C   UNL     1       3.453   1.700  18.688  0.00  0.00    +0.000 A 
ATOM     21  N   UNL     1       2.459   2.079  17.857  0.00  0.00    +0.000 NA
ATOM     22  C   UNL     1       2.337   3.408  17.626  0.00  0.00    +0.000 A 
ENDBRANCH   7  17
TORSDOF 2
ENDMDL
MODEL 7
REMARK VINA RESULT:      -7.2      0.931      1.797
REMARK  Name = 
REMARK  3 active torsions:
REMARK  status: ('A' for Active; 'I' for Inactive)
REMARK    1  A    between atoms: C_1  and  C_2
REMARK    2  A    between atoms: C_6  and  N_7
REMARK    3  A    between atoms: C_13  and  C_14
REMARK                            x       y       z     vdW  Elec       q    Type
REMARK                         _______ _______ _______ _____ _____    ______ ____
ROOT
ATOM      1  N   UNL     1       1.672   8.785  18.955  0.00  0.00    +0.000 N 
ATOM      2  C   UNL     1       2.110   7.531  19.271  0.00  0.00    +0.000 C 
ATOM      3  N   UNL     1       1.796   6.764  20.259  0.00  0.00    +0.000 NA
ATOM      4  C   UNL     1       2.484   5.577  20.281  0.00  0.00    +0.000 C 
ATOM      5  O   UNL     1       2.347   4.701  21.123  0.00  0.00    +0.000 OA
ATOM      6  C   UNL     1       3.446   5.481  19.150  0.00  0.00    +0.000 C 
ATOM      7  C   UNL     1       4.273   4.442  18.998  0.00  0.00    +0.000 C 
ATOM      8  S   UNL     1       3.316   6.885  18.169  0.00  0.00    +0.000 S 
ATOM      9  H   UNL     1       2.116   9.207  18.150  0.00  0.00    +0.000 HD
ENDROOT
BRANCH   1  15
ATOM     10  C   UNL     1      -0.570   9.847  23.266  0.00  0.00    +0.000 C 
ATOM     11  C   UNL     1      -0.075  10.283  21.920  0.00  0.00    +0.000 A 
ATOM     12  C   UNL     1      -0.183  11.607  21.495  0.00  0.00    +0.000 A 
ATOM     13  C   UNL     1       0.273  11.974  20.230  0.00  0.00    +0.000 A 
ATOM     14  C   UNL     1       0.857  11.021  19.391  0.00  0.00    +0.000 A 
ATOM     15  C   UNL     1       1.011   9.690  19.806  0.00  0.00    +0.000 A 
ATOM     16  C   UNL     1       0.515   9.337  21.067  0.00  0.00    +0.000 A 
ENDBRANCH   1  15
BRANCH   7  17
ATOM     17  C   UNL     1       5.255   4.336  17.922  0.00  0.00    +0.000 A 
ATOM     18  C   UNL     1       6.576   4.734  18.122  0.00  0.00    +0.000 A 
ATOM     19  C   UNL     1       7.475   4.681  17.061  0.00  0.00    +0.000 A 
ATOM     20  C   UNL     1       7.017   4.229  15.833  0.00  0.00    +0.000 A 
ATOM     21  N   UNL     1       5.749   3.829  15.603  0.00  0.00    +0.000 NA
ATOM     22  C   UNL     1       4.894   3.893  16.653  0.00  0.00    +0.000 A 
ENDBRANCH   7  17
TORSDOF 2
ENDMDL
MODEL 8
REMARK VINA RESULT:      -7.1      3.090      4.185
REMARK  Name = 
REMARK  3 active torsions:
REMARK  status: ('A' for Active; 'I' for Inactive)
REMARK    1  A    between atoms: C_1  and  C_2
REMARK    2  A    between atoms: C_6  and  N_7
REMARK    3  A    between atoms: C_13  and  C_14
REMARK                            x       y       z     vdW  Elec       q    Type
REMARK                         _______ _______ _______ _____ _____    ______ ____
ROOT
ATOM      1  N   UNL     1       1.446  11.055  17.959  0.00  0.00    +0.000 N 
ATOM      2  C   UNL     1       1.456   9.984  18.806  0.00  0.00    +0.000 C 
ATOM      3  N   UNL     1       1.078   9.892  20.035  0.00  0.00    +0.000 NA
ATOM      4  C   UNL     1       1.284   8.654  20.589  0.00  0.00    +0.000 C 
ATOM      5  O   UNL     1       1.002   8.341  21.737  0.00  0.00    +0.000 OA
ATOM      6  C   UNL     1       1.920   7.721  19.620  0.00  0.00    +0.000 C 
ATOM      7  C   UNL     1       2.276   6.475  19.951  0.00  0.00    +0.000 C 
ATOM      8  S   UNL     1       2.123   8.515  18.111  0.00  0.00    +0.000 S 
ATOM      9  H   UNL     1       1.854  10.889  17.049  0.00  0.00    +0.000 HD
ENDROOT
BRANCH   1  15
ATOM     10  C   UNL     1       3.474  15.508  18.850  0.00  0.00    +0.000 C 
ATOM     11  C   UNL     1       2.260  14.637  18.732  0.00  0.00    +0.000 A 
ATOM     12  C   UNL     1       0.973  15.149  18.892  0.00  0.00    +0.000 A 
ATOM     13  C   UNL     1      -0.132  14.306  18.791  0.00  0.00    +0.000 A 
ATOM     14  C   UNL     1       0.045  12.948  18.512  0.00  0.00    +0.000 A 
ATOM     15  C   UNL     1       1.325  12.412  18.311  0.00  0.00    +0.000 A 
ATOM     16  C   UNL     1       2.422  13.270  18.450  0.00  0.00    +0.000 A 
ENDBRANCH   1  15
BRANCH   7  17
ATOM     17  C   UNL     1       2.936   5.549  19.036  0.00  0.00    +0.000 A 
ATOM     18  C   UNL     1       2.188   4.731  18.190  0.00  0.00    +0.000 A 
ATOM     19  C   UNL     1       2.842   3.812  17.372  0.00  0.00    +0.000 A 
ATOM     20  C   UNL     1       4.225   3.747  17.431  0.00  0.00    +0.000 A 
ATOM     21  N   UNL     1       4.983   4.528  18.230  0.00  0.00    +0.000 NA
ATOM     22  C   UNL     1       4.321   5.411  19.017  0.00  0.00    +0.000 A 
ENDBRANCH   7  17
TORSDOF 2
ENDMDL
MODEL 9
REMARK VINA RESULT:      -7.0      2.952      4.008
REMARK  Name = 
REMARK  3 active torsions:
REMARK  status: ('A' for Active; 'I' for Inactive)
REMARK    1  A    between atoms: C_1  and  C_2
REMARK    2  A    between atoms: C_6  and  N_7
REMARK    3  A    between atoms: C_13  and  C_14
REMARK                            x       y       z     vdW  Elec       q    Type
REMARK                         _______ _______ _______ _____ _____    ______ ____
ROOT
ATOM      1  N   UNL     1       1.694  11.030  17.923  0.00  0.00    +0.000 N 
ATOM      2  C   UNL     1       1.615   9.959  18.766  0.00  0.00    +0.000 C 
ATOM      3  N   UNL     1       1.198   9.888  19.984  0.00  0.00    +0.000 NA
ATOM      4  C   UNL     1       1.313   8.638  20.538  0.00  0.00    +0.000 C 
ATOM      5  O   UNL     1       0.980   8.341  21.677  0.00  0.00    +0.000 OA
ATOM      6  C   UNL     1       1.916   7.670  19.584  0.00  0.00    +0.000 C 
ATOM      7  C   UNL     1       2.186   6.404  19.920  0.00  0.00    +0.000 C 
ATOM      8  S   UNL     1       2.209   8.453  18.083  0.00  0.00    +0.000 S 
ATOM      9  H   UNL     1       2.116  10.841  17.023  0.00  0.00    +0.000 HD
ENDROOT
BRANCH   1  15
ATOM     10  C   UNL     1      -0.781  14.986  19.645  0.00  0.00    +0.000 C 
ATOM     11  C   UNL     1       0.491  14.368  19.147  0.00  0.00    +0.000 A 
ATOM     12  C   UNL     1       1.681  15.093  19.085  0.00  0.00    +0.000 A 
ATOM     13  C   UNL     1       2.841  14.491  18.601  0.00  0.00    +0.000 A 
ATOM     14  C   UNL     1       2.820  13.154  18.193  0.00  0.00    +0.000 A 
ATOM     15  C   UNL     1       1.647  12.391  18.276  0.00  0.00    +0.000 A 
ATOM     16  C   UNL     1       0.485  13.026  18.733  0.00  0.00    +0.000 A 
ENDBRANCH   1  15
BRANCH   7  17
ATOM     17  C   UNL     1       2.812   5.440  19.019  0.00  0.00    +0.000 A 
ATOM     18  C   UNL     1       2.038   4.667  18.155  0.00  0.00    +0.000 A 
ATOM     19  C   UNL     1       2.656   3.712  17.352  0.00  0.00    +0.000 A 
ATOM     20  C   UNL     1       4.031   3.567  17.443  0.00  0.00    +0.000 A 
ATOM     21  N   UNL     1       4.814   4.302  18.261  0.00  0.00    +0.000 NA
ATOM     22  C   UNL     1       4.186   5.222  19.033  0.00  0.00    +0.000 A 
ENDBRANCH   7  17
TORSDOF 2
ENDMDL
