MODEL 1
REMARK VINA RESULT:      -6.5      0.000      0.000
REMARK  Name = 
REMARK  8 active torsions:
REMARK  status: ('A' for Active; 'I' for Inactive)
REMARK    1  A    between atoms: C_1  and  O_2
REMARK    2  A    between atoms: O_2  and  N_3
REMARK    3  A    between atoms: N_4  and  C_6
REMARK    4  A    between atoms: C_9  and  C_10
REMARK    5  A    between atoms: C_12  and  C_13
REMARK    6  A    between atoms: N_18  and  C_19
REMARK    7  A    between atoms: C_22  and  S_23
REMARK    8  A    between atoms: S_23  and  N_24
REMARK                            x       y       z     vdW  Elec       q    Type
REMARK                         _______ _______ _______ _____ _____    ______ ____
ROOT
ATOM      1  C   UNL     1       0.917  12.159  19.299  0.00  0.00    +0.000 A 
ATOM      2  C   UNL     1       1.642  11.235  18.570  0.00  0.00    +0.000 A 
ATOM      3  C   UNL     1       1.231   9.956  19.016  0.00  0.00    +0.000 A 
ATOM      4  N   UNL     1       0.325  10.070  20.003  0.00  0.00    +0.000 NA
ATOM      5  N   UNL     1       0.026  11.397  20.062  0.00  0.00    +0.000 N 
ENDROOT
BRANCH   1   9
ATOM      6  C   UNL     1       1.422  16.426  19.334  0.00  0.00    +0.000 A 
ATOM      7  C   UNL     1       2.444  15.587  19.804  0.00  0.00    +0.000 A 
ATOM      8  C   UNL     1       2.273  14.195  19.805  0.00  0.00    +0.000 A 
ATOM      9  C   UNL     1       1.082  13.620  19.344  0.00  0.00    +0.000 A 
ATOM     10  C   UNL     1       0.038  14.477  18.961  0.00  0.00    +0.000 A 
ATOM     11  C   UNL     1       0.203  15.864  18.951  0.00  0.00    +0.000 A 
BRANCH   6  13
ATOM     12  N   UNL     1       1.668  18.631  18.330  0.00  0.00    +0.000 NA
ATOM     13  N   UNL     1       1.628  17.887  19.376  0.00  0.00    +0.000 N 
ATOM     14  O   UNL     1       1.758  18.413  20.535  0.00  0.00    +0.000 OA
BRANCH  12  16
ATOM     15  C   UNL     1       0.685  18.472  16.263  0.00  0.00    +0.000 C 
ATOM     16  O   UNL     1       1.663  17.905  17.129  0.00  0.00    +0.000 OA
ENDBRANCH  12  16
ENDBRANCH   6  13
ENDBRANCH   1   9
BRANCH   5  17
ATOM     17  C   UNL     1      -1.082  11.824  20.850  0.00  0.00    +0.000 A 
ATOM     18  C   UNL     1      -2.253  12.269  20.217  0.00  0.00    +0.000 A 
ATOM     19  C   UNL     1      -3.386  12.575  20.977  0.00  0.00    +0.000 A 
ATOM     20  C   UNL     1      -3.340  12.455  22.369  0.00  0.00    +0.000 A 
ATOM     21  C   UNL     1      -2.155  12.088  23.012  0.00  0.00    +0.000 A 
ATOM     22  C   UNL     1      -1.025  11.780  22.252  0.00  0.00    +0.000 A 
BRANCH  20  23
ATOM     23  S   UNL     1      -4.771  12.825  23.336  0.00  0.00    +0.000 S 
ATOM     24  O   UNL     1      -4.697  14.186  23.801  0.00  0.00    +0.000 OA
ATOM     25  O   UNL     1      -5.943  12.286  22.681  0.00  0.00    +0.000 OA
BRANCH  23  26
ATOM     26  N   UNL     1      -4.526  11.863  24.697  0.00  0.00    +0.000 NA
ATOM     27  H   UNL     1      -4.623  10.882  24.439  0.00  0.00    +0.000 HD
ATOM     28  H   UNL     1      -3.624  12.088  25.116  0.00  0.00    +0.000 HD
ENDBRANCH  23  26
ENDBRANCH  20  23
ENDBRANCH   5  17
BRANCH   3  29
ATOM     29  C   UNL     1       1.730   8.629  18.511  0.00  0.00    +0.000 C 
ATOM     30  F   UNL     1       0.992   8.183  17.456  0.00  0.00    +0.000 F 
ATOM     31  F   UNL     1       3.019   8.678  18.083  0.00  0.00    +0.000 F 
ATOM     32  F   UNL     1       1.659   7.657  19.460  0.00  0.00    +0.000 F 
ENDBRANCH   3  29
TORSDOF 7
ENDMDL
MODEL 2
REMARK VINA RESULT:      -6.5      4.967      7.429
REMARK  Name = 
REMARK  8 active torsions:
REMARK  status: ('A' for Active; 'I' for Inactive)
REMARK    1  A    between atoms: C_1  and  O_2
REMARK    2  A    between atoms: O_2  and  N_3
REMARK    3  A    between atoms: N_4  and  C_6
REMARK    4  A    between atoms: C_9  and  C_10
REMARK    5  A    between atoms: C_12  and  C_13
REMARK    6  A    between atoms: N_18  and  C_19
REMARK    7  A    between atoms: C_22  and  S_23
REMARK    8  A    between atoms: S_23  and  N_24
REMARK                            x       y       z     vdW  Elec       q    Type
REMARK                         _______ _______ _______ _____ _____    ______ ____
ROOT
ATOM      1  C   UNL     1       0.085  12.637  18.569  0.00  0.00    +0.000 A 
ATOM      2  C   UNL     1       0.557  13.925  18.396  0.00  0.00    +0.000 A 
ATOM      3  C   UNL     1       1.925  13.905  18.758  0.00  0.00    +0.000 A 
ATOM      4  N   UNL     1       2.284  12.679  19.177  0.00  0.00    +0.000 NA
ATOM      5  N   UNL     1       1.210  11.883  18.914  0.00  0.00    +0.000 N 
ENDROOT
BRANCH   1   9
ATOM      6  C   UNL     1      -3.992  11.308  18.293  0.00  0.00    +0.000 A 
ATOM      7  C   UNL     1      -3.558  12.035  19.411  0.00  0.00    +0.000 A 
ATOM      8  C   UNL     1      -2.223  12.456  19.507  0.00  0.00    +0.000 A 
ATOM      9  C   UNL     1      -1.304  12.156  18.495  0.00  0.00    +0.000 A 
ATOM     10  C   UNL     1      -1.734  11.353  17.426  0.00  0.00    +0.000 A 
ATOM     11  C   UNL     1      -3.062  10.934  17.321  0.00  0.00    +0.000 A 
BRANCH   6  13
ATOM     12  N   UNL     1      -6.319  11.469  17.592  0.00  0.00    +0.000 NA
ATOM     13  N   UNL     1      -5.397  10.855  18.242  0.00  0.00    +0.000 N 
ATOM     14  O   UNL     1      -5.676   9.783  18.882  0.00  0.00    +0.000 OA
BRANCH  12  16
ATOM     15  C   UNL     1      -7.015  13.594  17.077  0.00  0.00    +0.000 C 
ATOM     16  O   UNL     1      -5.904  12.702  17.066  0.00  0.00    +0.000 OA
ENDBRANCH  12  16
ENDBRANCH   6  13
ENDBRANCH   1   9
BRANCH   5  17
ATOM     17  C   UNL     1       1.352  10.469  19.023  0.00  0.00    +0.000 A 
ATOM     18  C   UNL     1       1.875   9.740  17.944  0.00  0.00    +0.000 A 
ATOM     19  C   UNL     1       2.130   8.372  18.083  0.00  0.00    +0.000 A 
ATOM     20  C   UNL     1       1.843   7.733  19.293  0.00  0.00    +0.000 A 
ATOM     21  C   UNL     1       1.251   8.436  20.345  0.00  0.00    +0.000 A 
ATOM     22  C   UNL     1       0.999   9.802  20.207  0.00  0.00    +0.000 A 
BRANCH  20  23
ATOM     23  S   UNL     1       2.176   6.008  19.483  0.00  0.00    +0.000 S 
ATOM     24  O   UNL     1       1.593   5.539  20.712  0.00  0.00    +0.000 OA
ATOM     25  O   UNL     1       1.973   5.340  18.216  0.00  0.00    +0.000 OA
BRANCH  23  26
ATOM     26  N   UNL     1       3.842   6.005  19.738  0.00  0.00    +0.000 NA
ATOM     27  H   UNL     1       4.035   6.227  20.714  0.00  0.00    +0.000 HD
ATOM     28  H   UNL     1       4.231   5.112  19.438  0.00  0.00    +0.000 HD
ENDBRANCH  23  26
ENDBRANCH  20  23
ENDBRANCH   5  17
BRANCH   3  29
ATOM     29  C   UNL     1       2.877  15.071  18.727  0.00  0.00    +0.000 C 
ATOM     30  F   UNL     1       2.358  16.124  18.034  0.00  0.00    +0.000 F 
ATOM     31  F   UNL     1       3.178  15.539  19.967  0.00  0.00    +0.000 F 
ATOM     32  F   UNL     1       4.053  14.760  18.118  0.00  0.00    +0.000 F 
ENDBRANCH   3  29
TORSDOF 7
ENDMDL
MODEL 3
REMARK VINA RESULT:      -6.5      2.157      6.380
REMARK  Name = 
REMARK  8 active torsions:
REMARK  status: ('A' for Active; 'I' for Inactive)
REMARK    1  A    between atoms: C_1  and  O_2
REMARK    2  A    between atoms: O_2  and  N_3
REMARK    3  A    between atoms: N_4  and  C_6
REMARK    4  A    between atoms: C_9  and  C_10
REMARK    5  A    between atoms: C_12  and  C_13
REMARK    6  A    between atoms: N_18  and  C_19
REMARK    7  A    between atoms: C_22  and  S_23
REMARK    8  A    between atoms: S_23  and  N_24
REMARK                            x       y       z     vdW  Elec       q    Type
REMARK                         _______ _______ _______ _____ _____    ______ ____
ROOT
ATOM      1  C   UNL     1       0.047  10.911  20.271  0.00  0.00    +0.000 A 
ATOM      2  C   UNL     1       0.448   9.600  20.086  0.00  0.00    +0.000 A 
ATOM      3  C   UNL     1       1.343   9.603  18.990  0.00  0.00    +0.000 A 
ATOM      4  N   UNL     1       1.467  10.844  18.486  0.00  0.00    +0.000 NA
ATOM      5  N   UNL     1       0.803  11.652  19.359  0.00  0.00    +0.000 N 
ENDROOT
BRANCH   1   9
ATOM      6  C   UNL     1      -2.969  12.509  22.882  0.00  0.00    +0.000 A 
ATOM      7  C   UNL     1      -1.917  11.740  23.401  0.00  0.00    +0.000 A 
ATOM      8  C   UNL     1      -0.941  11.206  22.547  0.00  0.00    +0.000 A 
ATOM      9  C   UNL     1      -1.001  11.428  21.166  0.00  0.00    +0.000 A 
ATOM     10  C   UNL     1      -2.108  12.125  20.654  0.00  0.00    +0.000 A 
ATOM     11  C   UNL     1      -3.080  12.664  21.499  0.00  0.00    +0.000 A 
BRANCH   6  13
ATOM     12  N   UNL     1      -3.948  14.197  24.339  0.00  0.00    +0.000 NA
ATOM     13  N   UNL     1      -3.994  13.028  23.809  0.00  0.00    +0.000 N 
ATOM     14  O   UNL     1      -4.976  12.250  24.071  0.00  0.00    +0.000 OA
BRANCH  12  16
ATOM     15  C   UNL     1      -2.158  15.236  25.330  0.00  0.00    +0.000 C 
ATOM     16  O   UNL     1      -2.748  14.878  24.084  0.00  0.00    +0.000 OA
ENDBRANCH  12  16
ENDBRANCH   6  13
ENDBRANCH   1   9
BRANCH   5  17
ATOM     17  C   UNL     1       0.945  13.065  19.239  0.00  0.00    +0.000 A 
ATOM     18  C   UNL     1       2.138  13.679  19.648  0.00  0.00    +0.000 A 
ATOM     19  C   UNL     1       2.334  15.046  19.425  0.00  0.00    +0.000 A 
ATOM     20  C   UNL     1       1.328  15.799  18.813  0.00  0.00    +0.000 A 
ATOM     21  C   UNL     1       0.107  15.211  18.474  0.00  0.00    +0.000 A 
ATOM     22  C   UNL     1      -0.086  13.846  18.694  0.00  0.00    +0.000 A 
BRANCH  20  23
ATOM     23  S   UNL     1       1.572  17.523  18.513  0.00  0.00    +0.000 S 
ATOM     24  O   UNL     1       0.345  18.106  18.037  0.00  0.00    +0.000 OA
ATOM     25  O   UNL     1       2.338  18.093  19.600  0.00  0.00    +0.000 OA
BRANCH  23  26
ATOM     26  N   UNL     1       2.611  17.498  17.187  0.00  0.00    +0.000 NA
ATOM     27  H   UNL     1       2.947  16.547  17.039  0.00  0.00    +0.000 HD
ATOM     28  H   UNL     1       2.139  17.896  16.376  0.00  0.00    +0.000 HD
ENDBRANCH  23  26
ENDBRANCH  20  23
ENDBRANCH   5  17
BRANCH   3  29
ATOM     29  C   UNL     1       2.056   8.410  18.413  0.00  0.00    +0.000 C 
ATOM     30  F   UNL     1       2.279   7.453  19.357  0.00  0.00    +0.000 F 
ATOM     31  F   UNL     1       1.354   7.808  17.416  0.00  0.00    +0.000 F 
ATOM     32  F   UNL     1       3.276   8.733  17.906  0.00  0.00    +0.000 F 
ENDBRANCH   3  29
TORSDOF 7
ENDMDL
MODEL 4
REMARK VINA RESULT:      -6.5      4.880      6.363
REMARK  Name = 
REMARK  8 active torsions:
REMARK  status: ('A' for Active; 'I' for Inactive)
REMARK    1  A    between atoms: C_1  and  O_2
REMARK    2  A    between atoms: O_2  and  N_3
REMARK    3  A    between atoms: N_4  and  C_6
REMARK    4  A    between atoms: C_9  and  C_10
REMARK    5  A    between atoms: C_12  and  C_13
REMARK    6  A    between atoms: N_18  and  C_19
REMARK    7  A    between atoms: C_22  and  S_23
REMARK    8  A    between atoms: S_23  and  N_24
REMARK                            x       y       z     vdW  Elec       q    Type
REMARK                         _______ _______ _______ _____ _____    ______ ____
ROOT
ATOM      1  C   UNL     1       0.221  12.827  19.767  0.00  0.00    +0.000 A 
ATOM      2  C   UNL     1      -0.933  13.464  20.186  0.00  0.00    +0.000 A 
ATOM      3  C   UNL     1      -1.969  12.502  20.125  0.00  0.00    +0.000 A 
ATOM      4  N   UNL     1      -1.500  11.333  19.653  0.00  0.00    +0.000 NA
ATOM      5  N   UNL     1      -0.149  11.491  19.586  0.00  0.00    +0.000 N 
ENDROOT
BRANCH   1   9
ATOM      6  C   UNL     1       4.035  14.639  18.973  0.00  0.00    +0.000 A 
ATOM      7  C   UNL     1       3.149  14.364  17.921  0.00  0.00    +0.000 A 
ATOM      8  C   UNL     1       1.910  13.759  18.180  0.00  0.00    +0.000 A 
ATOM      9  C   UNL     1       1.540  13.417  19.486  0.00  0.00    +0.000 A 
ATOM     10  C   UNL     1       2.474  13.620  20.514  0.00  0.00    +0.000 A 
ATOM     11  C   UNL     1       3.707  14.227  20.266  0.00  0.00    +0.000 A 
BRANCH   6  13
ATOM     12  N   UNL     1       5.631  16.478  18.896  0.00  0.00    +0.000 NA
ATOM     13  N   UNL     1       5.343  15.249  18.658  0.00  0.00    +0.000 N 
ATOM     14  O   UNL     1       6.220  14.481  18.131  0.00  0.00    +0.000 OA
BRANCH  12  16
ATOM     15  C   UNL     1       4.906  17.925  20.521  0.00  0.00    +0.000 C 
ATOM     16  O   UNL     1       4.533  17.234  19.334  0.00  0.00    +0.000 OA
ENDBRANCH  12  16
ENDBRANCH   6  13
ENDBRANCH   1   9
BRANCH   5  17
ATOM     17  C   UNL     1       0.671  10.351  19.346  0.00  0.00    +0.000 A 
ATOM     18  C   UNL     1       0.908   9.437  20.385  0.00  0.00    +0.000 A 
ATOM     19  C   UNL     1       1.611   8.255  20.129  0.00  0.00    +0.000 A 
ATOM     20  C   UNL     1       2.092   7.999  18.842  0.00  0.00    +0.000 A 
ATOM     21  C   UNL     1       1.927   8.939  17.822  0.00  0.00    +0.000 A 
ATOM     22  C   UNL     1       1.224  10.117  18.077  0.00  0.00    +0.000 A 
BRANCH  20  23
ATOM     23  S   UNL     1       2.967   6.502  18.507  0.00  0.00    +0.000 S 
ATOM     24  O   UNL     1       2.062   5.532  17.947  0.00  0.00    +0.000 OA
ATOM     25  O   UNL     1       4.244   6.818  17.903  0.00  0.00    +0.000 OA
BRANCH  23  26
ATOM     26  N   UNL     1       3.320   5.954  20.060  0.00  0.00    +0.000 NA
ATOM     27  H   UNL     1       3.636   6.737  20.631  0.00  0.00    +0.000 HD
ATOM     28  H   UNL     1       2.509   5.470  20.444  0.00  0.00    +0.000 HD
ENDBRANCH  23  26
ENDBRANCH  20  23
ENDBRANCH   5  17
BRANCH   3  29
ATOM     29  C   UNL     1      -3.413  12.716  20.494  0.00  0.00    +0.000 C 
ATOM     30  F   UNL     1      -3.751  14.036  20.454  0.00  0.00    +0.000 F 
ATOM     31  F   UNL     1      -4.271  12.075  19.657  0.00  0.00    +0.000 F 
ATOM     32  F   UNL     1      -3.691  12.291  21.756  0.00  0.00    +0.000 F 
ENDBRANCH   3  29
TORSDOF 7
ENDMDL
MODEL 5
REMARK VINA RESULT:      -6.4      4.995      8.508
REMARK  Name = 
REMARK  8 active torsions:
REMARK  status: ('A' for Active; 'I' for Inactive)
REMARK    1  A    between atoms: C_1  and  O_2
REMARK    2  A    between atoms: O_2  and  N_3
REMARK    3  A    between atoms: N_4  and  C_6
REMARK    4  A    between atoms: C_9  and  C_10
REMARK    5  A    between atoms: C_12  and  C_13
REMARK    6  A    between atoms: N_18  and  C_19
REMARK    7  A    between atoms: C_22  and  S_23
REMARK    8  A    between atoms: S_23  and  N_24
REMARK                            x       y       z     vdW  Elec       q    Type
REMARK                         _______ _______ _______ _____ _____    ______ ____
ROOT
ATOM      1  C   UNL     1      -0.304  11.082  19.594  0.00  0.00    +0.000 A 
ATOM      2  C   UNL     1      -1.680  11.083  19.727  0.00  0.00    +0.000 A 
ATOM      3  C   UNL     1      -2.046  12.392  20.120  0.00  0.00    +0.000 A 
ATOM      4  N   UNL     1      -0.953  13.163  20.267  0.00  0.00    +0.000 NA
ATOM      5  N   UNL     1       0.081  12.410  19.799  0.00  0.00    +0.000 N 
ENDROOT
BRANCH   1   9
ATOM      6  C   UNL     1       2.229   7.678  18.912  0.00  0.00    +0.000 A 
ATOM      7  C   UNL     1       1.840   8.022  20.215  0.00  0.00    +0.000 A 
ATOM      8  C   UNL     1       1.025   9.142  20.438  0.00  0.00    +0.000 A 
ATOM      9  C   UNL     1       0.591   9.935  19.369  0.00  0.00    +0.000 A 
ATOM     10  C   UNL     1       1.061   9.627  18.082  0.00  0.00    +0.000 A 
ATOM     11  C   UNL     1       1.868   8.511  17.851  0.00  0.00    +0.000 A 
BRANCH   6  13
ATOM     12  N   UNL     1       2.848   5.337  19.168  0.00  0.00    +0.000 NA
ATOM     13  N   UNL     1       3.113   6.511  18.720  0.00  0.00    +0.000 N 
ATOM     14  O   UNL     1       4.189   6.710  18.057  0.00  0.00    +0.000 OA
BRANCH  12  16
ATOM     15  C   UNL     1       1.229   3.961  20.035  0.00  0.00    +0.000 C 
ATOM     16  O   UNL     1       1.717   5.298  19.998  0.00  0.00    +0.000 OA
ENDBRANCH  12  16
ENDBRANCH   6  13
ENDBRANCH   1   9
BRANCH   5  17
ATOM     17  C   UNL     1       1.350  13.025  19.596  0.00  0.00    +0.000 A 
ATOM     18  C   UNL     1       1.795  13.280  18.289  0.00  0.00    +0.000 A 
ATOM     19  C   UNL     1       2.982  13.990  18.081  0.00  0.00    +0.000 A 
ATOM     20  C   UNL     1       3.730  14.426  19.179  0.00  0.00    +0.000 A 
ATOM     21  C   UNL     1       3.334  14.109  20.480  0.00  0.00    +0.000 A 
ATOM     22  C   UNL     1       2.148  13.402  20.687  0.00  0.00    +0.000 A 
BRANCH  20  23
ATOM     23  S   UNL     1       5.223  15.337  18.925  0.00  0.00    +0.000 S 
ATOM     24  O   UNL     1       5.956  15.410  20.162  0.00  0.00    +0.000 OA
ATOM     25  O   UNL     1       5.831  14.922  17.680  0.00  0.00    +0.000 OA
BRANCH  23  26
ATOM     26  N   UNL     1       4.635  16.892  18.650  0.00  0.00    +0.000 NA
ATOM     27  H   UNL     1       5.374  17.570  18.834  0.00  0.00    +0.000 HD
ATOM     28  H   UNL     1       4.254  16.950  17.706  0.00  0.00    +0.000 HD
ENDBRANCH  23  26
ENDBRANCH  20  23
ENDBRANCH   5  17
BRANCH   3  29
ATOM     29  C   UNL     1      -3.441  12.893  20.380  0.00  0.00    +0.000 C 
ATOM     30  F   UNL     1      -3.473  14.250  20.505  0.00  0.00    +0.000 F 
ATOM     31  F   UNL     1      -4.308  12.581  19.380  0.00  0.00    +0.000 F 
ATOM     32  F   UNL     1      -3.962  12.395  21.533  0.00  0.00    +0.000 F 
ENDBRANCH   3  29
TORSDOF 7
ENDMDL
MODEL 6
REMARK VINA RESULT:      -6.4      2.094      6.378
REMARK  Name = 
REMARK  8 active torsions:
REMARK  status: ('A' for Active; 'I' for Inactive)
REMARK    1  A    between atoms: C_1  and  O_2
REMARK    2  A    between atoms: O_2  and  N_3
REMARK    3  A    between atoms: N_4  and  C_6
REMARK    4  A    between atoms: C_9  and  C_10
REMARK    5  A    between atoms: C_12  and  C_13
REMARK    6  A    between atoms: N_18  and  C_19
REMARK    7  A    between atoms: C_22  and  S_23
REMARK    8  A    between atoms: S_23  and  N_24
REMARK                            x       y       z     vdW  Elec       q    Type
REMARK                         _______ _______ _______ _____ _____    ______ ____
ROOT
ATOM      1  C   UNL     1      -0.260  11.224  20.326  0.00  0.00    +0.000 A 
ATOM      2  C   UNL     1       0.083   9.921  20.017  0.00  0.00    +0.000 A 
ATOM      3  C   UNL     1       1.121   9.994  19.059  0.00  0.00    +0.000 A 
ATOM      4  N   UNL     1       1.390  11.276  18.750  0.00  0.00    +0.000 NA
ATOM      5  N   UNL     1       0.660  12.015  19.631  0.00  0.00    +0.000 N 
ENDROOT
BRANCH   1   9
ATOM      6  C   UNL     1      -3.520  12.713  22.698  0.00  0.00    +0.000 A 
ATOM      7  C   UNL     1      -2.477  11.992  23.299  0.00  0.00    +0.000 A 
ATOM      8  C   UNL     1      -1.420  11.494  22.522  0.00  0.00    +0.000 A 
ATOM      9  C   UNL     1      -1.391  11.703  21.138  0.00  0.00    +0.000 A 
ATOM     10  C   UNL     1      -2.486  12.349  20.541  0.00  0.00    +0.000 A 
ATOM     11  C   UNL     1      -3.538  12.853  21.309  0.00  0.00    +0.000 A 
BRANCH   6  13
ATOM     12  N   UNL     1      -4.692  14.384  24.026  0.00  0.00    +0.000 NA
ATOM     13  N   UNL     1      -4.630  13.195  23.544  0.00  0.00    +0.000 N 
ATOM     14  O   UNL     1      -5.571  12.362  23.782  0.00  0.00    +0.000 OA
BRANCH  12  16
ATOM     15  C   UNL     1      -3.018  15.552  25.074  0.00  0.00    +0.000 C 
ATOM     16  O   UNL     1      -3.528  15.135  23.811  0.00  0.00    +0.000 OA
ENDBRANCH  12  16
ENDBRANCH   6  13
ENDBRANCH   1   9
BRANCH   5  17
ATOM     17  C   UNL     1       0.901  13.416  19.726  0.00  0.00    +0.000 A 
ATOM     18  C   UNL     1       1.813  13.899  20.677  0.00  0.00    +0.000 A 
ATOM     19  C   UNL     1       2.147  15.257  20.699  0.00  0.00    +0.000 A 
ATOM     20  C   UNL     1       1.553  16.132  19.784  0.00  0.00    +0.000 A 
ATOM     21  C   UNL     1       0.586  15.672  18.887  0.00  0.00    +0.000 A 
ATOM     22  C   UNL     1       0.256  14.316  18.864  0.00  0.00    +0.000 A 
BRANCH  20  23
ATOM     23  S   UNL     1       1.980  17.846  19.795  0.00  0.00    +0.000 S 
ATOM     24  O   UNL     1       1.053  18.566  20.627  0.00  0.00    +0.000 OA
ATOM     25  O   UNL     1       3.415  17.981  19.925  0.00  0.00    +0.000 OA
BRANCH  23  26
ATOM     26  N   UNL     1       1.621  18.300  18.212  0.00  0.00    +0.000 NA
ATOM     27  H   UNL     1       1.169  17.523  17.732  0.00  0.00    +0.000 HD
ATOM     28  H   UNL     1       1.065  19.155  18.220  0.00  0.00    +0.000 HD
ENDBRANCH  23  26
ENDBRANCH  20  23
ENDBRANCH   5  17
BRANCH   3  29
ATOM     29  C   UNL     1       1.836   8.832  18.421  0.00  0.00    +0.000 C 
ATOM     30  F   UNL     1       3.025   9.214  17.874  0.00  0.00    +0.000 F 
ATOM     31  F   UNL     1       2.122   7.840  19.305  0.00  0.00    +0.000 F 
ATOM     32  F   UNL     1       1.116   8.275  17.411  0.00  0.00    +0.000 F 
ENDBRANCH   3  29
TORSDOF 7
ENDMDL
MODEL 7
REMARK VINA RESULT:      -6.4      2.046      6.267
REMARK  Name = 
REMARK  8 active torsions:
REMARK  status: ('A' for Active; 'I' for Inactive)
REMARK    1  A    between atoms: C_1  and  O_2
REMARK    2  A    between atoms: O_2  and  N_3
REMARK    3  A    between atoms: N_4  and  C_6
REMARK    4  A    between atoms: C_9  and  C_10
REMARK    5  A    between atoms: C_12  and  C_13
REMARK    6  A    between atoms: N_18  and  C_19
REMARK    7  A    between atoms: C_22  and  S_23
REMARK    8  A    between atoms: S_23  and  N_24
REMARK                            x       y       z     vdW  Elec       q    Type
REMARK                         _______ _______ _______ _____ _____    ______ ____
ROOT
ATOM      1  C   UNL     1      -0.068  11.122  20.253  0.00  0.00    +0.000 A 
ATOM      2  C   UNL     1       0.297   9.802  20.065  0.00  0.00    +0.000 A 
ATOM      3  C   UNL     1       1.248   9.791  19.017  0.00  0.00    +0.000 A 
ATOM      4  N   UNL     1       1.441  11.035  18.542  0.00  0.00    +0.000 NA
ATOM      5  N   UNL     1       0.760  11.851  19.394  0.00  0.00    +0.000 N 
ENDROOT
BRANCH   1   9
ATOM      6  C   UNL     1      -3.248  12.604  22.734  0.00  0.00    +0.000 A 
ATOM      7  C   UNL     1      -3.292  12.783  21.343  0.00  0.00    +0.000 A 
ATOM      8  C   UNL     1      -2.246  12.312  20.535  0.00  0.00    +0.000 A 
ATOM      9  C   UNL     1      -1.143  11.661  21.101  0.00  0.00    +0.000 A 
ATOM     10  C   UNL     1      -1.074  11.568  22.501  0.00  0.00    +0.000 A 
ATOM     11  C   UNL     1      -2.114  12.030  23.311  0.00  0.00    +0.000 A 
BRANCH   6  13
ATOM     12  N   UNL     1      -4.348  14.316  24.071  0.00  0.00    +0.000 NA
ATOM     13  N   UNL     1      -4.352  13.141  23.554  0.00  0.00    +0.000 N 
ATOM     14  O   UNL     1      -5.360  12.372  23.730  0.00  0.00    +0.000 OA
BRANCH  12  16
ATOM     15  C   UNL     1      -2.639  15.332  25.216  0.00  0.00    +0.000 C 
ATOM     16  O   UNL     1      -3.124  14.987  23.923  0.00  0.00    +0.000 OA
ENDBRANCH  12  16
ENDBRANCH   6  13
ENDBRANCH   1   9
BRANCH   5  17
ATOM     17  C   UNL     1       0.956  13.260  19.309  0.00  0.00    +0.000 A 
ATOM     18  C   UNL     1       0.008  14.052  18.642  0.00  0.00    +0.000 A 
ATOM     19  C   UNL     1       0.128  15.446  18.655  0.00  0.00    +0.000 A 
ATOM     20  C   UNL     1       1.205  16.043  19.317  0.00  0.00    +0.000 A 
ATOM     21  C   UNL     1       2.193  15.259  19.916  0.00  0.00    +0.000 A 
ATOM     22  C   UNL     1       2.072  13.868  19.905  0.00  0.00    +0.000 A 
BRANCH  20  23
ATOM     23  S   UNL     1       1.355  17.802  19.352  0.00  0.00    +0.000 S 
ATOM     24  O   UNL     1       0.079  18.387  19.672  0.00  0.00    +0.000 OA
ATOM     25  O   UNL     1       2.575  18.165  20.041  0.00  0.00    +0.000 OA
BRANCH  23  26
ATOM     26  N   UNL     1       1.626  18.157  17.728  0.00  0.00    +0.000 NA
ATOM     27  H   UNL     1       2.071  17.358  17.277  0.00  0.00    +0.000 HD
ATOM     28  H   UNL     1       0.750  18.439  17.289  0.00  0.00    +0.000 HD
ENDBRANCH  23  26
ENDBRANCH  20  23
ENDBRANCH   5  17
BRANCH   3  29
ATOM     29  C   UNL     1       1.949   8.584  18.455  0.00  0.00    +0.000 C 
ATOM     30  F   UNL     1       3.163   8.909  17.926  0.00  0.00    +0.000 F 
ATOM     31  F   UNL     1       2.185   7.627  19.392  0.00  0.00    +0.000 F 
ATOM     32  F   UNL     1       1.244   7.997  17.451  0.00  0.00    +0.000 F 
ENDBRANCH   3  29
TORSDOF 7
ENDMDL
MODEL 8
REMARK VINA RESULT:      -6.4      2.106      6.186
REMARK  Name = 
REMARK  8 active torsions:
REMARK  status: ('A' for Active; 'I' for Inactive)
REMARK    1  A    between atoms: C_1  and  O_2
REMARK    2  A    between atoms: O_2  and  N_3
REMARK    3  A    between atoms: N_4  and  C_6
REMARK    4  A    between atoms: C_9  and  C_10
REMARK    5  A    between atoms: C_12  and  C_13
REMARK    6  A    between atoms: N_18  and  C_19
REMARK    7  A    between atoms: C_22  and  S_23
REMARK    8  A    between atoms: S_23  and  N_24
REMARK                            x       y       z     vdW  Elec       q    Type
REMARK                         _______ _______ _______ _____ _____    ______ ____
ROOT
ATOM      1  C   UNL     1       0.108  10.937  20.293  0.00  0.00    +0.000 A 
ATOM      2  C   UNL     1       0.419   9.617  20.024  0.00  0.00    +0.000 A 
ATOM      3  C   UNL     1       1.385   9.632  18.991  0.00  0.00    +0.000 A 
ATOM      4  N   UNL     1       1.639  10.894  18.600  0.00  0.00    +0.000 NA
ATOM      5  N   UNL     1       0.980  11.683  19.494  0.00  0.00    +0.000 N 
ENDROOT
BRANCH   1   9
ATOM      6  C   UNL     1      -2.950  12.570  22.831  0.00  0.00    +0.000 A 
ATOM      7  C   UNL     1      -1.974  11.712  23.359  0.00  0.00    +0.000 A 
ATOM      8  C   UNL     1      -0.985  11.168  22.527  0.00  0.00    +0.000 A 
ATOM      9  C   UNL     1      -0.956  11.467  21.160  0.00  0.00    +0.000 A 
ATOM     10  C   UNL     1      -1.991  12.257  20.633  0.00  0.00    +0.000 A 
ATOM     11  C   UNL     1      -2.976  12.806  21.455  0.00  0.00    +0.000 A 
BRANCH   6  13
ATOM     12  N   UNL     1      -3.911  14.234  24.328  0.00  0.00    +0.000 NA
ATOM     13  N   UNL     1      -3.994  13.099  23.733  0.00  0.00    +0.000 N 
ATOM     14  O   UNL     1      -5.029  12.367  23.900  0.00  0.00    +0.000 OA
BRANCH  12  16
ATOM     15  C   UNL     1      -2.199  15.264  25.455  0.00  0.00    +0.000 C 
ATOM     16  O   UNL     1      -2.663  14.856  24.172  0.00  0.00    +0.000 OA
ENDBRANCH  12  16
ENDBRANCH   6  13
ENDBRANCH   1   9
BRANCH   5  17
ATOM     17  C   UNL     1       1.238  13.085  19.502  0.00  0.00    +0.000 A 
ATOM     18  C   UNL     1       0.452  13.938  18.711  0.00  0.00    +0.000 A 
ATOM     19  C   UNL     1       0.617  15.324  18.803  0.00  0.00    +0.000 A 
ATOM     20  C   UNL     1       1.579  15.852  19.669  0.00  0.00    +0.000 A 
ATOM     21  C   UNL     1       2.417  15.007  20.400  0.00  0.00    +0.000 A 
ATOM     22  C   UNL     1       2.250  13.624  20.311  0.00  0.00    +0.000 A 
BRANCH  20  23
ATOM     23  S   UNL     1       1.783  17.602  19.802  0.00  0.00    +0.000 S 
ATOM     24  O   UNL     1       1.535  18.213  18.522  0.00  0.00    +0.000 OA
ATOM     25  O   UNL     1       1.159  18.065  21.023  0.00  0.00    +0.000 OA
BRANCH  23  26
ATOM     26  N   UNL     1       3.443  17.737  20.058  0.00  0.00    +0.000 NA
ATOM     27  H   UNL     1       3.870  18.213  19.264  0.00  0.00    +0.000 HD
ATOM     28  H   UNL     1       3.614  18.198  20.951  0.00  0.00    +0.000 HD
ENDBRANCH  23  26
ENDBRANCH  20  23
ENDBRANCH   5  17
BRANCH   3  29
ATOM     29  C   UNL     1       2.043   8.433  18.361  0.00  0.00    +0.000 C 
ATOM     30  F   UNL     1       3.255   8.750  17.824  0.00  0.00    +0.000 F 
ATOM     31  F   UNL     1       2.268   7.429  19.249  0.00  0.00    +0.000 F 
ATOM     32  F   UNL     1       1.303   7.913  17.345  0.00  0.00    +0.000 F 
ENDBRANCH   3  29
TORSDOF 7
ENDMDL
MODEL 9
REMARK VINA RESULT:      -6.4      2.102      6.317
REMARK  Name = 
REMARK  8 active torsions:
REMARK  status: ('A' for Active; 'I' for Inactive)
REMARK    1  A    between atoms: C_1  and  O_2
REMARK    2  A    between atoms: O_2  and  N_3
REMARK    3  A    between atoms: N_4  and  C_6
REMARK    4  A    between atoms: C_9  and  C_10
REMARK    5  A    between atoms: C_12  and  C_13
REMARK    6  A    between atoms: N_18  and  C_19
REMARK    7  A    between atoms: C_22  and  S_23
REMARK    8  A    between atoms: S_23  and  N_24
REMARK                            x       y       z     vdW  Elec       q    Type
REMARK                         _______ _______ _______ _____ _____    ______ ____
ROOT
ATOM      1  C   UNL     1      -0.247  11.236  20.289  0.00  0.00    +0.000 A 
ATOM      2  C   UNL     1       0.116   9.932  20.003  0.00  0.00    +0.000 A 
ATOM      3  C   UNL     1       1.121  10.002  19.010  0.00  0.00    +0.000 A 
ATOM      4  N   UNL     1       1.350  11.281  18.659  0.00  0.00    +0.000 NA
ATOM      5  N   UNL     1       0.632  12.027  19.544  0.00  0.00    +0.000 N 
ENDROOT
BRANCH   1   9
ATOM      6  C   UNL     1      -3.461  12.715  22.728  0.00  0.00    +0.000 A 
ATOM      7  C   UNL     1      -2.400  12.003  23.308  0.00  0.00    +0.000 A 
ATOM      8  C   UNL     1      -1.359  11.508  22.510  0.00  0.00    +0.000 A 
ATOM      9  C   UNL     1      -1.362  11.711  21.124  0.00  0.00    +0.000 A 
ATOM     10  C   UNL     1      -2.473  12.349  20.550  0.00  0.00    +0.000 A 
ATOM     11  C   UNL     1      -3.511  12.849  21.340  0.00  0.00    +0.000 A 
BRANCH   6  13
ATOM     12  N   UNL     1      -4.630  14.393  24.050  0.00  0.00    +0.000 NA
ATOM     13  N   UNL     1      -4.554  13.193  23.598  0.00  0.00    +0.000 N 
ATOM     14  O   UNL     1      -5.466  12.345  23.889  0.00  0.00    +0.000 OA
BRANCH  12  16
ATOM     15  C   UNL     1      -2.955  15.634  25.009  0.00  0.00    +0.000 C 
ATOM     16  O   UNL     1      -3.492  15.166  23.775  0.00  0.00    +0.000 OA
ENDBRANCH  12  16
ENDBRANCH   6  13
ENDBRANCH   1   9
BRANCH   5  17
ATOM     17  C   UNL     1       0.844  13.435  19.594  0.00  0.00    +0.000 A 
ATOM     18  C   UNL     1       1.869  13.953  20.401  0.00  0.00    +0.000 A 
ATOM     19  C   UNL     1       2.164  15.320  20.366  0.00  0.00    +0.000 A 
ATOM     20  C   UNL     1       1.419  16.168  19.540  0.00  0.00    +0.000 A 
ATOM     21  C   UNL     1       0.347  15.673  18.795  0.00  0.00    +0.000 A 
ATOM     22  C   UNL     1       0.056  14.308  18.828  0.00  0.00    +0.000 A 
BRANCH  20  23
ATOM     23  S   UNL     1       1.794  17.893  19.478  0.00  0.00    +0.000 S 
ATOM     24  O   UNL     1       3.065  18.132  20.109  0.00  0.00    +0.000 OA
ATOM     25  O   UNL     1       1.464  18.408  18.167  0.00  0.00    +0.000 OA
BRANCH  23  26
ATOM     26  N   UNL     1       0.638  18.535  20.524  0.00  0.00    +0.000 NA
ATOM     27  H   UNL     1       0.592  19.546  20.397  0.00  0.00    +0.000 HD
ATOM     28  H   UNL     1      -0.254  18.064  20.376  0.00  0.00    +0.000 HD
ENDBRANCH  23  26
ENDBRANCH  20  23
ENDBRANCH   5  17
BRANCH   3  29
ATOM     29  C   UNL     1       1.841   8.840  18.380  0.00  0.00    +0.000 C 
ATOM     30  F   UNL     1       2.109   7.862  19.291  0.00  0.00    +0.000 F 
ATOM     31  F   UNL     1       1.124   8.251  17.387  0.00  0.00    +0.000 F 
ATOM     32  F   UNL     1       3.040   9.202  17.849  0.00  0.00    +0.000 F 
ENDBRANCH   3  29
TORSDOF 7
ENDMDL
