MODEL 1
REMARK VINA RESULT:      -7.7      0.000      0.000
REMARK  Name = 
REMARK  6 active torsions:
REMARK  status: ('A' for Active; 'I' for Inactive)
REMARK    1  A    between atoms: C_1  and  C_2
REMARK    2  A    between atoms: C_2  and  N_3
REMARK    3  A    between atoms: N_3  and  C_17
REMARK    4  A    between atoms: C_4  and  C_6
REMARK    5  A    between atoms: C_6  and  S_7
REMARK    6  A    between atoms: S_7  and  C_8
REMARK                            x       y       z     vdW  Elec       q    Type
REMARK                         _______ _______ _______ _____ _____    ______ ____
ROOT
ATOM      1  C   UNL     1       5.353   6.543  17.790  0.00  0.00    +0.000 C 
ENDROOT
BRANCH   1   3
ATOM      2  N   UNL     1       3.211   5.779  18.890  0.00  0.00    +0.000 N 
ATOM      3  C   UNL     1       4.534   5.474  18.517  0.00  0.00    +0.000 C 
ATOM      4  O   UNL     1       5.047   4.375  18.762  0.00  0.00    +0.000 OA
BRANCH   2   5
ATOM      5  C   UNL     1       2.432   4.761  19.534  0.00  0.00    +0.000 A 
ATOM      6  C   UNL     1       2.588   4.513  20.904  0.00  0.00    +0.000 A 
ATOM      7  C   UNL     1       1.887   3.475  21.523  0.00  0.00    +0.000 A 
ATOM      8  C   UNL     1       1.000   2.693  20.787  0.00  0.00    +0.000 A 
ATOM      9  C   UNL     1       0.818   2.946  19.429  0.00  0.00    +0.000 A 
ATOM     10  C   UNL     1       1.538   3.968  18.804  0.00  0.00    +0.000 A 
ENDBRANCH   2   5
BRANCH   2  12
ATOM     11  C   UNL     1       1.995   7.699  19.915  0.00  0.00    +0.000 C 
ATOM     12  C   UNL     1       2.524   7.060  18.636  0.00  0.00    +0.000 C 
ENDBRANCH   2  12
ENDBRANCH   1   3
BRANCH   1  13
ATOM     13  S   UNL     1       7.057   5.948  17.490  0.00  0.00    +0.000 S 
BRANCH  13  14
ATOM     14  C   UNL     1       6.911   5.359  15.880  0.00  0.00    +0.000 A 
ATOM     15  N   UNL     1       7.710   5.591  14.869  0.00  0.00    +0.000 NA
ATOM     16  C   UNL     1       7.172   4.867  13.831  0.00  0.00    +0.000 A 
ATOM     17  C   UNL     1       7.619   4.733  12.507  0.00  0.00    +0.000 A 
ATOM     18  C   UNL     1       6.901   3.904  11.636  0.00  0.00    +0.000 A 
ATOM     19  C   UNL     1       5.757   3.229  12.069  0.00  0.00    +0.000 A 
ATOM     20  C   UNL     1       5.290   3.354  13.383  0.00  0.00    +0.000 A 
ATOM     21  C   UNL     1       6.029   4.179  14.231  0.00  0.00    +0.000 A 
ATOM     22  N   UNL     1       5.877   4.531  15.551  0.00  0.00    +0.000 N 
ATOM     23  H   UNL     1       5.149   4.225  16.181  0.00  0.00    +0.000 HD
ENDBRANCH  13  14
ENDBRANCH   1  13
TORSDOF 5
ENDMDL
MODEL 2
REMARK VINA RESULT:      -7.7      0.304      1.269
REMARK  Name = 
REMARK  6 active torsions:
REMARK  status: ('A' for Active; 'I' for Inactive)
REMARK    1  A    between atoms: C_1  and  C_2
REMARK    2  A    between atoms: C_2  and  N_3
REMARK    3  A    between atoms: N_3  and  C_17
REMARK    4  A    between atoms: C_4  and  C_6
REMARK    5  A    between atoms: C_6  and  S_7
REMARK    6  A    between atoms: S_7  and  C_8
REMARK                            x       y       z     vdW  Elec       q    Type
REMARK                         _______ _______ _______ _____ _____    ______ ____
ROOT
ATOM      1  C   UNL     1       5.506   6.382  17.897  0.00  0.00    +0.000 C 
ENDROOT
BRANCH   1   3
ATOM      2  N   UNL     1       3.252   5.625  18.748  0.00  0.00    +0.000 N 
ATOM      3  C   UNL     1       4.633   5.373  18.647  0.00  0.00    +0.000 C 
ATOM      4  O   UNL     1       5.154   4.367  19.144  0.00  0.00    +0.000 OA
BRANCH   2   5
ATOM      5  C   UNL     1       2.430   4.657  19.415  0.00  0.00    +0.000 A 
ATOM      6  C   UNL     1       2.473   4.533  20.810  0.00  0.00    +0.000 A 
ATOM      7  C   UNL     1       1.731   3.544  21.459  0.00  0.00    +0.000 A 
ATOM      8  C   UNL     1       0.913   2.688  20.725  0.00  0.00    +0.000 A 
ATOM      9  C   UNL     1       0.842   2.817  19.340  0.00  0.00    +0.000 A 
ATOM     10  C   UNL     1       1.604   3.790  18.687  0.00  0.00    +0.000 A 
ENDBRANCH   2   5
BRANCH   2  12
ATOM     11  C   UNL     1       2.143   7.799  19.257  0.00  0.00    +0.000 C 
ATOM     12  C   UNL     1       2.552   6.796  18.185  0.00  0.00    +0.000 C 
ENDBRANCH   2  12
ENDBRANCH   1   3
BRANCH   1  13
ATOM     13  S   UNL     1       7.161   5.673  17.566  0.00  0.00    +0.000 S 
BRANCH  13  14
ATOM     14  C   UNL     1       6.928   5.046  15.981  0.00  0.00    +0.000 A 
ATOM     15  N   UNL     1       6.064   4.139  15.601  0.00  0.00    +0.000 NA
ATOM     16  C   UNL     1       6.261   4.022  14.244  0.00  0.00    +0.000 A 
ATOM     17  C   UNL     1       5.604   3.204  13.312  0.00  0.00    +0.000 A 
ATOM     18  C   UNL     1       5.974   3.290  11.964  0.00  0.00    +0.000 A 
ATOM     19  C   UNL     1       6.983   4.165  11.552  0.00  0.00    +0.000 A 
ATOM     20  C   UNL     1       7.656   4.985  12.467  0.00  0.00    +0.000 A 
ATOM     21  C   UNL     1       7.260   4.884  13.801  0.00  0.00    +0.000 A 
ATOM     22  N   UNL     1       7.683   5.516  14.946  0.00  0.00    +0.000 N 
ATOM     23  H   UNL     1       8.405   6.218  15.021  0.00  0.00    +0.000 HD
ENDBRANCH  13  14
ENDBRANCH   1  13
TORSDOF 5
ENDMDL
MODEL 3
REMARK VINA RESULT:      -7.6      1.662      7.263
REMARK  Name = 
REMARK  6 active torsions:
REMARK  status: ('A' for Active; 'I' for Inactive)
REMARK    1  A    between atoms: C_1  and  C_2
REMARK    2  A    between atoms: C_2  and  N_3
REMARK    3  A    between atoms: N_3  and  C_17
REMARK    4  A    between atoms: C_4  and  C_6
REMARK    5  A    between atoms: C_6  and  S_7
REMARK    6  A    between atoms: S_7  and  C_8
REMARK                            x       y       z     vdW  Elec       q    Type
REMARK                         _______ _______ _______ _____ _____    ______ ____
ROOT
ATOM      1  C   UNL     1       5.045   7.007  17.480  0.00  0.00    +0.000 C 
ENDROOT
BRANCH   1   3
ATOM      2  N   UNL     1       5.984   5.230  15.951  0.00  0.00    +0.000 N 
ATOM      3  C   UNL     1       5.380   6.495  16.078  0.00  0.00    +0.000 C 
ATOM      4  O   UNL     1       5.118   7.198  15.093  0.00  0.00    +0.000 OA
BRANCH   2   5
ATOM      5  C   UNL     1       6.259   4.735  14.633  0.00  0.00    +0.000 A 
ATOM      6  C   UNL     1       7.401   5.160  13.942  0.00  0.00    +0.000 A 
ATOM      7  C   UNL     1       7.637   4.739  12.631  0.00  0.00    +0.000 A 
ATOM      8  C   UNL     1       6.751   3.864  12.007  0.00  0.00    +0.000 A 
ATOM      9  C   UNL     1       5.624   3.415  12.692  0.00  0.00    +0.000 A 
ATOM     10  C   UNL     1       5.374   3.855  13.994  0.00  0.00    +0.000 A 
ENDBRANCH   2   5
BRANCH   2  12
ATOM     11  C   UNL     1       7.730   4.586  17.610  0.00  0.00    +0.000 C 
ATOM     12  C   UNL     1       6.328   4.330  17.069  0.00  0.00    +0.000 C 
ENDBRANCH   2  12
ENDBRANCH   1   3
BRANCH   1  13
ATOM     13  S   UNL     1       3.269   7.435  17.597  0.00  0.00    +0.000 S 
BRANCH  13  14
ATOM     14  C   UNL     1       2.667   6.065  18.447  0.00  0.00    +0.000 A 
ATOM     15  N   UNL     1       2.019   5.041  17.953  0.00  0.00    +0.000 NA
ATOM     16  C   UNL     1       1.797   4.219  19.033  0.00  0.00    +0.000 A 
ATOM     17  C   UNL     1       1.155   2.972  19.093  0.00  0.00    +0.000 A 
ATOM     18  C   UNL     1       1.081   2.312  20.326  0.00  0.00    +0.000 A 
ATOM     19  C   UNL     1       1.628   2.883  21.478  0.00  0.00    +0.000 A 
ATOM     20  C   UNL     1       2.266   4.129  21.442  0.00  0.00    +0.000 A 
ATOM     21  C   UNL     1       2.332   4.759  20.200  0.00  0.00    +0.000 A 
ATOM     22  N   UNL     1       2.869   5.957  19.792  0.00  0.00    +0.000 N 
ATOM     23  H   UNL     1       3.348   6.635  20.368  0.00  0.00    +0.000 HD
ENDBRANCH  13  14
ENDBRANCH   1  13
TORSDOF 5
ENDMDL
MODEL 4
REMARK VINA RESULT:      -7.6      0.346      1.082
REMARK  Name = 
REMARK  6 active torsions:
REMARK  status: ('A' for Active; 'I' for Inactive)
REMARK    1  A    between atoms: C_1  and  C_2
REMARK    2  A    between atoms: C_2  and  N_3
REMARK    3  A    between atoms: N_3  and  C_17
REMARK    4  A    between atoms: C_4  and  C_6
REMARK    5  A    between atoms: C_6  and  S_7
REMARK    6  A    between atoms: S_7  and  C_8
REMARK                            x       y       z     vdW  Elec       q    Type
REMARK                         _______ _______ _______ _____ _____    ______ ____
ROOT
ATOM      1  C   UNL     1       5.636   6.294  17.975  0.00  0.00    +0.000 C 
ENDROOT
BRANCH   1   3
ATOM      2  N   UNL     1       3.402   5.480  18.826  0.00  0.00    +0.000 N 
ATOM      3  C   UNL     1       4.792   5.276  18.744  0.00  0.00    +0.000 C 
ATOM      4  O   UNL     1       5.344   4.303  19.275  0.00  0.00    +0.000 OA
BRANCH   2   5
ATOM      5  C   UNL     1       2.608   4.502  19.512  0.00  0.00    +0.000 A 
ATOM      6  C   UNL     1       1.740   3.668  18.796  0.00  0.00    +0.000 A 
ATOM      7  C   UNL     1       0.910   2.764  19.464  0.00  0.00    +0.000 A 
ATOM      8  C   UNL     1       0.960   2.663  20.852  0.00  0.00    +0.000 A 
ATOM      9  C   UNL     1       1.836   3.470  21.574  0.00  0.00    +0.000 A 
ATOM     10  C   UNL     1       2.649   4.392  20.908  0.00  0.00    +0.000 A 
ENDBRANCH   2   5
BRANCH   2  12
ATOM     11  C   UNL     1       2.236   7.641  19.260  0.00  0.00    +0.000 C 
ATOM     12  C   UNL     1       2.666   6.609  18.224  0.00  0.00    +0.000 C 
ENDBRANCH   2  12
ENDBRANCH   1   3
BRANCH   1  13
ATOM     13  S   UNL     1       7.291   5.605  17.606  0.00  0.00    +0.000 S 
BRANCH  13  14
ATOM     14  C   UNL     1       7.089   5.157  15.957  0.00  0.00    +0.000 A 
ATOM     15  N   UNL     1       7.789   5.562  14.928  0.00  0.00    +0.000 NA
ATOM     16  C   UNL     1       7.251   4.889  13.856  0.00  0.00    +0.000 A 
ATOM     17  C   UNL     1       7.615   4.925  12.501  0.00  0.00    +0.000 A 
ATOM     18  C   UNL     1       6.920   4.113  11.596  0.00  0.00    +0.000 A 
ATOM     19  C   UNL     1       5.878   3.288  12.028  0.00  0.00    +0.000 A 
ATOM     20  C   UNL     1       5.493   3.242  13.374  0.00  0.00    +0.000 A 
ATOM     21  C   UNL     1       6.209   4.054  14.254  0.00  0.00    +0.000 A 
ATOM     22  N   UNL     1       6.117   4.264  15.609  0.00  0.00    +0.000 N 
ATOM     23  H   UNL     1       5.467   3.829  16.248  0.00  0.00    +0.000 HD
ENDBRANCH  13  14
ENDBRANCH   1  13
TORSDOF 5
ENDMDL
MODEL 5
REMARK VINA RESULT:      -7.5      1.665      7.176
REMARK  Name = 
REMARK  6 active torsions:
REMARK  status: ('A' for Active; 'I' for Inactive)
REMARK    1  A    between atoms: C_1  and  C_2
REMARK    2  A    between atoms: C_2  and  N_3
REMARK    3  A    between atoms: N_3  and  C_17
REMARK    4  A    between atoms: C_4  and  C_6
REMARK    5  A    between atoms: C_6  and  S_7
REMARK    6  A    between atoms: S_7  and  C_8
REMARK                            x       y       z     vdW  Elec       q    Type
REMARK                         _______ _______ _______ _____ _____    ______ ____
ROOT
ATOM      1  C   UNL     1       5.135   6.989  17.388  0.00  0.00    +0.000 C 
ENDROOT
BRANCH   1   3
ATOM      2  N   UNL     1       6.029   5.180  15.870  0.00  0.00    +0.000 N 
ATOM      3  C   UNL     1       5.443   6.454  15.988  0.00  0.00    +0.000 C 
ATOM      4  O   UNL     1       5.175   7.146  14.998  0.00  0.00    +0.000 OA
BRANCH   2   5
ATOM      5  C   UNL     1       6.279   4.663  14.556  0.00  0.00    +0.000 A 
ATOM      6  C   UNL     1       7.433   5.038  13.855  0.00  0.00    +0.000 A 
ATOM      7  C   UNL     1       7.647   4.598  12.547  0.00  0.00    +0.000 A 
ATOM      8  C   UNL     1       6.725   3.752  11.935  0.00  0.00    +0.000 A 
ATOM      9  C   UNL     1       5.585   3.352  12.629  0.00  0.00    +0.000 A 
ATOM     10  C   UNL     1       5.359   3.813  13.929  0.00  0.00    +0.000 A 
ENDBRANCH   2   5
BRANCH   2  12
ATOM     11  C   UNL     1       7.759   4.596  17.569  0.00  0.00    +0.000 C 
ATOM     12  C   UNL     1       6.380   4.291  16.996  0.00  0.00    +0.000 C 
ENDBRANCH   2  12
ENDBRANCH   1   3
BRANCH   1  13
ATOM     13  S   UNL     1       3.357   7.397  17.539  0.00  0.00    +0.000 S 
BRANCH  13  14
ATOM     14  C   UNL     1       2.795   6.044  18.442  0.00  0.00    +0.000 A 
ATOM     15  N   UNL     1       2.636   5.960  19.739  0.00  0.00    +0.000 NA
ATOM     16  C   UNL     1       2.138   4.695  19.945  0.00  0.00    +0.000 A 
ATOM     17  C   UNL     1       1.769   4.062  21.142  0.00  0.00    +0.000 A 
ATOM     18  C   UNL     1       1.254   2.760  21.083  0.00  0.00    +0.000 A 
ATOM     19  C   UNL     1       1.117   2.099  19.860  0.00  0.00    +0.000 A 
ATOM     20  C   UNL     1       1.486   2.709  18.655  0.00  0.00    +0.000 A 
ATOM     21  C   UNL     1       1.987   4.008  18.743  0.00  0.00    +0.000 A 
ATOM     22  N   UNL     1       2.437   4.897  17.796  0.00  0.00    +0.000 N 
ATOM     23  H   UNL     1       2.481   4.750  16.798  0.00  0.00    +0.000 HD
ENDBRANCH  13  14
ENDBRANCH   1  13
TORSDOF 5
ENDMDL
MODEL 6
REMARK VINA RESULT:      -7.4      1.677      6.512
REMARK  Name = 
REMARK  6 active torsions:
REMARK  status: ('A' for Active; 'I' for Inactive)
REMARK    1  A    between atoms: C_1  and  C_2
REMARK    2  A    between atoms: C_2  and  N_3
REMARK    3  A    between atoms: N_3  and  C_17
REMARK    4  A    between atoms: C_4  and  C_6
REMARK    5  A    between atoms: C_6  and  S_7
REMARK    6  A    between atoms: S_7  and  C_8
REMARK                            x       y       z     vdW  Elec       q    Type
REMARK                         _______ _______ _______ _____ _____    ______ ____
ROOT
ATOM      1  C   UNL     1       7.029   6.349  17.920  0.00  0.00    +0.000 C 
ENDROOT
BRANCH   1   3
ATOM      2  N   UNL     1       6.253   5.757  15.591  0.00  0.00    +0.000 N 
ATOM      3  C   UNL     1       7.112   5.473  16.669  0.00  0.00    +0.000 C 
ATOM      4  O   UNL     1       7.925   4.540  16.631  0.00  0.00    +0.000 OA
BRANCH   2   5
ATOM      5  C   UNL     1       6.362   4.960  14.403  0.00  0.00    +0.000 A 
ATOM      6  C   UNL     1       7.423   5.163  13.510  0.00  0.00    +0.000 A 
ATOM      7  C   UNL     1       7.495   4.443  12.316  0.00  0.00    +0.000 A 
ATOM      8  C   UNL     1       6.525   3.489  12.014  0.00  0.00    +0.000 A 
ATOM      9  C   UNL     1       5.479   3.261  12.905  0.00  0.00    +0.000 A 
ATOM     10  C   UNL     1       5.392   3.999  14.088  0.00  0.00    +0.000 A 
ENDBRANCH   2   5
BRANCH   2  12
ATOM     11  C   UNL     1       4.215   6.720  16.658  0.00  0.00    +0.000 C 
ATOM     12  C   UNL     1       5.259   6.847  15.553  0.00  0.00    +0.000 C 
ENDBRANCH   2  12
ENDBRANCH   1   3
BRANCH   1  13
ATOM     13  S   UNL     1       7.022   5.312  19.428  0.00  0.00    +0.000 S 
BRANCH  13  14
ATOM     14  C   UNL     1       5.434   4.654  19.356  0.00  0.00    +0.000 A 
ATOM     15  N   UNL     1       4.307   5.255  19.647  0.00  0.00    +0.000 NA
ATOM     16  C   UNL     1       3.338   4.313  19.393  0.00  0.00    +0.000 A 
ATOM     17  C   UNL     1       1.943   4.407  19.517  0.00  0.00    +0.000 A 
ATOM     18  C   UNL     1       1.160   3.301  19.164  0.00  0.00    +0.000 A 
ATOM     19  C   UNL     1       1.752   2.122  18.705  0.00  0.00    +0.000 A 
ATOM     20  C   UNL     1       3.142   2.003  18.580  0.00  0.00    +0.000 A 
ATOM     21  C   UNL     1       3.896   3.123  18.931  0.00  0.00    +0.000 A 
ATOM     22  N   UNL     1       5.248   3.369  18.936  0.00  0.00    +0.000 N 
ATOM     23  H   UNL     1       5.982   2.732  18.662  0.00  0.00    +0.000 HD
ENDBRANCH  13  14
ENDBRANCH   1  13
TORSDOF 5
ENDMDL
MODEL 7
REMARK VINA RESULT:      -7.3      1.627      7.239
REMARK  Name = 
REMARK  6 active torsions:
REMARK  status: ('A' for Active; 'I' for Inactive)
REMARK    1  A    between atoms: C_1  and  C_2
REMARK    2  A    between atoms: C_2  and  N_3
REMARK    3  A    between atoms: N_3  and  C_17
REMARK    4  A    between atoms: C_4  and  C_6
REMARK    5  A    between atoms: C_6  and  S_7
REMARK    6  A    between atoms: S_7  and  C_8
REMARK                            x       y       z     vdW  Elec       q    Type
REMARK                         _______ _______ _______ _____ _____    ______ ____
ROOT
ATOM      1  C   UNL     1       5.175   7.055  17.492  0.00  0.00    +0.000 C 
ENDROOT
BRANCH   1   3
ATOM      2  N   UNL     1       6.191   5.380  15.898  0.00  0.00    +0.000 N 
ATOM      3  C   UNL     1       5.408   6.537  16.071  0.00  0.00    +0.000 C 
ATOM      4  O   UNL     1       4.909   7.140  15.113  0.00  0.00    +0.000 OA
BRANCH   2   5
ATOM      5  C   UNL     1       6.373   4.873  14.568  0.00  0.00    +0.000 A 
ATOM      6  C   UNL     1       5.458   3.960  14.028  0.00  0.00    +0.000 A 
ATOM      7  C   UNL     1       5.668   3.405  12.763  0.00  0.00    +0.000 A 
ATOM      8  C   UNL     1       6.779   3.780  12.012  0.00  0.00    +0.000 A 
ATOM      9  C   UNL     1       7.684   4.705  12.527  0.00  0.00    +0.000 A 
ATOM     10  C   UNL     1       7.487   5.241  13.803  0.00  0.00    +0.000 A 
ENDBRANCH   2   5
BRANCH   2  12
ATOM     11  C   UNL     1       5.793   4.000  17.936  0.00  0.00    +0.000 C 
ATOM     12  C   UNL     1       6.819   4.602  16.983  0.00  0.00    +0.000 C 
ENDBRANCH   2  12
ENDBRANCH   1   3
BRANCH   1  13
ATOM     13  S   UNL     1       3.432   7.570  17.707  0.00  0.00    +0.000 S 
BRANCH  13  14
ATOM     14  C   UNL     1       2.784   6.181  18.490  0.00  0.00    +0.000 A 
ATOM     15  N   UNL     1       2.177   5.162  17.934  0.00  0.00    +0.000 NA
ATOM     16  C   UNL     1       1.890   4.318  18.982  0.00  0.00    +0.000 A 
ATOM     17  C   UNL     1       1.254   3.067  18.976  0.00  0.00    +0.000 A 
ATOM     18  C   UNL     1       1.102   2.384  20.189  0.00  0.00    +0.000 A 
ATOM     19  C   UNL     1       1.567   2.936  21.385  0.00  0.00    +0.000 A 
ATOM     20  C   UNL     1       2.197   4.186  21.415  0.00  0.00    +0.000 A 
ATOM     21  C   UNL     1       2.342   4.840  20.192  0.00  0.00    +0.000 A 
ATOM     22  N   UNL     1       2.896   6.048  19.843  0.00  0.00    +0.000 N 
ATOM     23  H   UNL     1       3.330   6.718  20.462  0.00  0.00    +0.000 HD
ENDBRANCH  13  14
ENDBRANCH   1  13
TORSDOF 5
ENDMDL
MODEL 8
REMARK VINA RESULT:      -7.1      1.269      3.414
REMARK  Name = 
REMARK  6 active torsions:
REMARK  status: ('A' for Active; 'I' for Inactive)
REMARK    1  A    between atoms: C_1  and  C_2
REMARK    2  A    between atoms: C_2  and  N_3
REMARK    3  A    between atoms: N_3  and  C_17
REMARK    4  A    between atoms: C_4  and  C_6
REMARK    5  A    between atoms: C_6  and  S_7
REMARK    6  A    between atoms: S_7  and  C_8
REMARK                            x       y       z     vdW  Elec       q    Type
REMARK                         _______ _______ _______ _____ _____    ______ ____
ROOT
ATOM      1  C   UNL     1       4.909   4.606  18.253  0.00  0.00    +0.000 C 
ENDROOT
BRANCH   1   3
ATOM      2  N   UNL     1       2.905   6.005  18.891  0.00  0.00    +0.000 N 
ATOM      3  C   UNL     1       4.186   5.953  18.310  0.00  0.00    +0.000 C 
ATOM      4  O   UNL     1       4.737   6.960  17.848  0.00  0.00    +0.000 OA
BRANCH   2   5
ATOM      5  C   UNL     1       2.248   7.276  18.981  0.00  0.00    +0.000 A 
ATOM      6  C   UNL     1       2.081   8.069  17.838  0.00  0.00    +0.000 A 
ATOM      7  C   UNL     1       1.508   9.340  17.930  0.00  0.00    +0.000 A 
ATOM      8  C   UNL     1       1.067   9.820  19.161  0.00  0.00    +0.000 A 
ATOM      9  C   UNL     1       1.205   9.032  20.301  0.00  0.00    +0.000 A 
ATOM     10  C   UNL     1       1.801   7.771  20.213  0.00  0.00    +0.000 A 
ENDBRANCH   2   5
BRANCH   2  12
ATOM     11  C   UNL     1       1.452   4.038  18.403  0.00  0.00    +0.000 C 
ATOM     12  C   UNL     1       2.179   4.855  19.466  0.00  0.00    +0.000 C 
ENDBRANCH   2  12
ENDBRANCH   1   3
BRANCH   1  13
ATOM     13  S   UNL     1       6.688   4.849  17.902  0.00  0.00    +0.000 S 
BRANCH  13  14
ATOM     14  C   UNL     1       6.716   4.585  16.202  0.00  0.00    +0.000 A 
ATOM     15  N   UNL     1       5.982   3.749  15.511  0.00  0.00    +0.000 NA
ATOM     16  C   UNL     1       6.366   3.950  14.205  0.00  0.00    +0.000 A 
ATOM     17  C   UNL     1       5.904   3.335  13.032  0.00  0.00    +0.000 A 
ATOM     18  C   UNL     1       6.442   3.740  11.803  0.00  0.00    +0.000 A 
ATOM     19  C   UNL     1       7.425   4.731  11.744  0.00  0.00    +0.000 A 
ATOM     20  C   UNL     1       7.906   5.352  12.903  0.00  0.00    +0.000 A 
ATOM     21  C   UNL     1       7.346   4.935  14.111  0.00  0.00    +0.000 A 
ATOM     22  N   UNL     1       7.563   5.311  15.415  0.00  0.00    +0.000 N 
ATOM     23  H   UNL     1       8.213   6.010  15.745  0.00  0.00    +0.000 HD
ENDBRANCH  13  14
ENDBRANCH   1  13
TORSDOF 5
ENDMDL
MODEL 9
REMARK VINA RESULT:      -7.1      1.610      6.642
REMARK  Name = 
REMARK  6 active torsions:
REMARK  status: ('A' for Active; 'I' for Inactive)
REMARK    1  A    between atoms: C_1  and  C_2
REMARK    2  A    between atoms: C_2  and  N_3
REMARK    3  A    between atoms: N_3  and  C_17
REMARK    4  A    between atoms: C_4  and  C_6
REMARK    5  A    between atoms: C_6  and  S_7
REMARK    6  A    between atoms: S_7  and  C_8
REMARK                            x       y       z     vdW  Elec       q    Type
REMARK                         _______ _______ _______ _____ _____    ______ ____
ROOT
ATOM      1  C   UNL     1       7.061   6.360  17.967  0.00  0.00    +0.000 C 
ENDROOT
BRANCH   1   3
ATOM      2  N   UNL     1       6.244   5.759  15.655  0.00  0.00    +0.000 N 
ATOM      3  C   UNL     1       7.124   5.481  16.717  0.00  0.00    +0.000 C 
ATOM      4  O   UNL     1       7.939   4.551  16.666  0.00  0.00    +0.000 OA
BRANCH   2   5
ATOM      5  C   UNL     1       6.333   4.960  14.467  0.00  0.00    +0.000 A 
ATOM      6  C   UNL     1       7.398   5.136  13.574  0.00  0.00    +0.000 A 
ATOM      7  C   UNL     1       7.453   4.413  12.380  0.00  0.00    +0.000 A 
ATOM      8  C   UNL     1       6.459   3.484  12.079  0.00  0.00    +0.000 A 
ATOM      9  C   UNL     1       5.408   3.282  12.970  0.00  0.00    +0.000 A 
ATOM     10  C   UNL     1       5.340   4.023  14.153  0.00  0.00    +0.000 A 
ENDBRANCH   2   5
BRANCH   2  12
ATOM     11  C   UNL     1       4.154   6.654  16.679  0.00  0.00    +0.000 C 
ATOM     12  C   UNL     1       5.246   6.847  15.633  0.00  0.00    +0.000 C 
ENDBRANCH   2  12
ENDBRANCH   1   3
BRANCH   1  13
ATOM     13  S   UNL     1       7.084   5.327  19.478  0.00  0.00    +0.000 S 
BRANCH  13  14
ATOM     14  C   UNL     1       5.491   4.678  19.444  0.00  0.00    +0.000 A 
ATOM     15  N   UNL     1       5.129   3.468  19.100  0.00  0.00    +0.000 NA
ATOM     16  C   UNL     1       3.765   3.452  19.279  0.00  0.00    +0.000 A 
ATOM     17  C   UNL     1       2.848   2.409  19.076  0.00  0.00    +0.000 A 
ATOM     18  C   UNL     1       1.496   2.638  19.361  0.00  0.00    +0.000 A 
ATOM     19  C   UNL     1       1.063   3.880  19.831  0.00  0.00    +0.000 A 
ATOM     20  C   UNL     1       1.960   4.937  20.033  0.00  0.00    +0.000 A 
ATOM     21  C   UNL     1       3.301   4.678  19.750  0.00  0.00    +0.000 A 
ATOM     22  N   UNL     1       4.434   5.452  19.828  0.00  0.00    +0.000 N 
ATOM     23  H   UNL     1       4.493   6.413  20.131  0.00  0.00    +0.000 HD
ENDBRANCH  13  14
ENDBRANCH   1  13
TORSDOF 5
ENDMDL
