MODEL 1
REMARK VINA RESULT:      -7.0      0.000      0.000
REMARK  Name = 
REMARK  12 active torsions:
REMARK  status: ('A' for Active; 'I' for Inactive)
REMARK    1  A    between atoms: N_5  and  C_6
REMARK    2  A    between atoms: C_8  and  C_9
REMARK    3  A    between atoms: C_9  and  O_10
REMARK    4  A    between atoms: O_10  and  P_11
REMARK    5  A    between atoms: P_11  and  O_13
REMARK    6  A    between atoms: P_11  and  O_14
REMARK    7  A    between atoms: O_14  and  P_15
REMARK    8  A    between atoms: P_15  and  O_17
REMARK    9  A    between atoms: P_15  and  O_18
REMARK   10  A    between atoms: O_18  and  P_19
REMARK   11  A    between atoms: P_19  and  O_21
REMARK   12  A    between atoms: P_19  and  O_22
REMARK                            x       y       z     vdW  Elec       q    Type
REMARK                         _______ _______ _______ _____ _____    ______ ____
ROOT
ATOM      1  C   UNL     1       2.379   5.781  19.985  0.00  0.00    +0.000 C 
ATOM      2  O   UNL     1       3.700   5.374  19.549  0.00  0.00    +0.000 OA
ATOM      3  C   UNL     1       3.727   3.919  19.499  0.00  0.00    +0.000 C 
ATOM      4  C   UNL     1       3.820   3.184  20.853  0.00  0.00    +0.000 C 
ATOM      5  O   UNL     1       2.410   2.856  20.829  0.00  0.00    +0.000 OA
ATOM      6  C   UNL     1       2.270   3.407  19.496  0.00  0.00    +0.000 C 
ATOM      7  C   UNL     1       1.445   4.690  19.434  0.00  0.00    +0.000 C 
ATOM      8  F   UNL     1       0.322   4.551  20.181  0.00  0.00    +0.000 F 
ENDROOT
BRANCH   1  13
ATOM      9  N   UNL     1       1.123  10.921  18.438  0.00  0.00    +0.000 N 
ATOM     10  C   UNL     1       1.431   9.635  18.787  0.00  0.00    +0.000 A 
ATOM     11  C   UNL     1       2.070   8.744  17.799  0.00  0.00    +0.000 A 
ATOM     12  C   UNL     1       2.359   7.517  18.223  0.00  0.00    +0.000 A 
ATOM     13  N   UNL     1       2.076   7.124  19.512  0.00  0.00    +0.000 N 
ATOM     14  C   UNL     1       1.435   7.986  20.411  0.00  0.00    +0.000 A 
ATOM     15  O   UNL     1       1.156   7.623  21.548  0.00  0.00    +0.000 OA
ATOM     16  N   UNL     1       1.147   9.266  19.994  0.00  0.00    +0.000 NA
ATOM     17  H   UNL     1       1.722  11.375  17.759  0.00  0.00    +0.000 HD
ATOM     18  H   UNL     1       0.926  11.499  19.250  0.00  0.00    +0.000 HD
ENDBRANCH   1  13
BRANCH   3  19
ATOM     19  C   UNL     1       4.605   3.389  18.368  0.00  0.00    +0.000 C 
BRANCH  19  20
ATOM     20  O   UNL     1       5.962   3.848  18.480  0.00  0.00    +0.000 OA
BRANCH  20  21
ATOM     21  P   UNL     1       6.343   5.097  17.345  0.00  0.00    +0.000 P 
ATOM     22  O   UNL     1       4.922   5.019  16.772  0.00  0.00    +0.000 OA
BRANCH  21  23
ATOM     23  O   UNL     1       6.214   6.209  18.536  0.00  0.00    +0.000 OA
ATOM     24  H   UNL     1       6.889   5.979  19.203  0.00  0.00    +0.000 HD
ENDBRANCH  21  23
BRANCH  21  25
ATOM     25  O   UNL     1       6.724   6.345  16.210  0.00  0.00    +0.000 OA
BRANCH  25  26
ATOM     26  P   UNL     1       6.769   5.044  14.752  0.00  0.00    +0.000 P 
ATOM     27  O   UNL     1       8.010   5.337  13.946  0.00  0.00    +0.000 OA
BRANCH  26  28
ATOM     28  O   UNL     1       7.046   3.746  15.669  0.00  0.00    +0.000 OA
ATOM     29  H   UNL     1       7.041   2.932  15.123  0.00  0.00    +0.000 HD
ENDBRANCH  26  28
BRANCH  26  30
ATOM     30  O   UNL     1       5.659   4.326  13.609  0.00  0.00    +0.000 OA
BRANCH  30  31
ATOM     31  P   UNL     1       5.946   3.037  12.492  0.00  0.00    +0.000 P 
ATOM     32  O   UNL     1       4.637   3.344  11.765  0.00  0.00    +0.000 OA
BRANCH  31  33
ATOM     33  O   UNL     1       7.094   3.900  11.739  0.00  0.00    +0.000 OA
ATOM     34  H   UNL     1       6.715   4.704  11.335  0.00  0.00    +0.000 HD
ENDBRANCH  31  33
BRANCH  31  35
ATOM     35  O   UNL     1       6.232   1.746  11.376  0.00  0.00    +0.000 OA
ATOM     36  H   UNL     1       6.881   2.065  10.719  0.00  0.00    +0.000 HD
ENDBRANCH  31  35
ENDBRANCH  30  31
ENDBRANCH  26  30
ENDBRANCH  25  26
ENDBRANCH  21  25
ENDBRANCH  20  21
ENDBRANCH  19  20
ENDBRANCH   3  19
TORSDOF 12
ENDMDL
MODEL 2
REMARK VINA RESULT:      -7.0      1.003      1.766
REMARK  Name = 
REMARK  12 active torsions:
REMARK  status: ('A' for Active; 'I' for Inactive)
REMARK    1  A    between atoms: N_5  and  C_6
REMARK    2  A    between atoms: C_8  and  C_9
REMARK    3  A    between atoms: C_9  and  O_10
REMARK    4  A    between atoms: O_10  and  P_11
REMARK    5  A    between atoms: P_11  and  O_13
REMARK    6  A    between atoms: P_11  and  O_14
REMARK    7  A    between atoms: O_14  and  P_15
REMARK    8  A    between atoms: P_15  and  O_17
REMARK    9  A    between atoms: P_15  and  O_18
REMARK   10  A    between atoms: O_18  and  P_19
REMARK   11  A    between atoms: P_19  and  O_21
REMARK   12  A    between atoms: P_19  and  O_22
REMARK                            x       y       z     vdW  Elec       q    Type
REMARK                         _______ _______ _______ _____ _____    ______ ____
ROOT
ATOM      1  C   UNL     1       2.202   5.555  20.186  0.00  0.00    +0.000 C 
ATOM      2  O   UNL     1       3.508   4.999  19.892  0.00  0.00    +0.000 OA
ATOM      3  C   UNL     1       3.399   3.548  19.947  0.00  0.00    +0.000 C 
ATOM      4  C   UNL     1       3.317   2.915  21.352  0.00  0.00    +0.000 C 
ATOM      5  O   UNL     1       1.887   2.715  21.233  0.00  0.00    +0.000 OA
ATOM      6  C   UNL     1       1.904   3.170  19.858  0.00  0.00    +0.000 C 
ATOM      7  C   UNL     1       1.213   4.513  19.636  0.00  0.00    +0.000 C 
ATOM      8  F   UNL     1       0.027   4.535  20.294  0.00  0.00    +0.000 F 
ENDROOT
BRANCH   1  13
ATOM      9  N   UNL     1       1.564  10.651  18.180  0.00  0.00    +0.000 N 
ATOM     10  C   UNL     1       1.720   9.374  18.643  0.00  0.00    +0.000 A 
ATOM     11  C   UNL     1       2.361   8.359  17.784  0.00  0.00    +0.000 A 
ATOM     12  C   UNL     1       2.498   7.148  18.316  0.00  0.00    +0.000 A 
ATOM     13  N   UNL     1       2.067   6.880  19.596  0.00  0.00    +0.000 N 
ATOM     14  C   UNL     1       1.428   7.859  20.368  0.00  0.00    +0.000 A 
ATOM     15  O   UNL     1       1.016   7.608  21.496  0.00  0.00    +0.000 OA
ATOM     16  N   UNL     1       1.296   9.123  19.840  0.00  0.00    +0.000 NA
ATOM     17  H   UNL     1       2.260  10.999  17.533  0.00  0.00    +0.000 HD
ATOM     18  H   UNL     1       1.348  11.304  18.928  0.00  0.00    +0.000 HD
ENDBRANCH   1  13
BRANCH   3  19
ATOM     19  C   UNL     1       4.307   2.855  18.934  0.00  0.00    +0.000 C 
BRANCH  19  20
ATOM     20  O   UNL     1       5.680   3.248  19.085  0.00  0.00    +0.000 OA
BRANCH  20  21
ATOM     21  P   UNL     1       5.992   4.839  18.479  0.00  0.00    +0.000 P 
ATOM     22  O   UNL     1       6.821   5.160  19.728  0.00  0.00    +0.000 OA
BRANCH  21  23
ATOM     23  O   UNL     1       7.091   4.219  17.440  0.00  0.00    +0.000 OA
ATOM     24  H   UNL     1       7.268   3.306  17.736  0.00  0.00    +0.000 HD
ENDBRANCH  21  23
BRANCH  21  25
ATOM     25  O   UNL     1       6.303   6.429  17.873  0.00  0.00    +0.000 OA
BRANCH  25  26
ATOM     26  P   UNL     1       5.684   5.904  16.095  0.00  0.00    +0.000 P 
ATOM     27  O   UNL     1       4.622   4.851  16.298  0.00  0.00    +0.000 OA
BRANCH  26  28
ATOM     28  O   UNL     1       4.963   7.299  15.730  0.00  0.00    +0.000 OA
ATOM     29  H   UNL     1       4.301   7.534  16.415  0.00  0.00    +0.000 HD
ENDBRANCH  26  28
BRANCH  26  30
ATOM     30  O   UNL     1       6.370   5.545  14.529  0.00  0.00    +0.000 OA
BRANCH  30  31
ATOM     31  P   UNL     1       6.107   4.158  13.530  0.00  0.00    +0.000 P 
ATOM     32  O   UNL     1       7.433   4.398  12.807  0.00  0.00    +0.000 OA
BRANCH  31  33
ATOM     33  O   UNL     1       6.441   3.162  14.766  0.00  0.00    +0.000 OA
ATOM     34  H   UNL     1       5.626   2.913  15.241  0.00  0.00    +0.000 HD
ENDBRANCH  31  33
BRANCH  31  35
ATOM     35  O   UNL     1       5.844   2.771  12.529  0.00  0.00    +0.000 OA
ATOM     36  H   UNL     1       6.008   1.979  13.076  0.00  0.00    +0.000 HD
ENDBRANCH  31  35
ENDBRANCH  30  31
ENDBRANCH  26  30
ENDBRANCH  25  26
ENDBRANCH  21  25
ENDBRANCH  20  21
ENDBRANCH  19  20
ENDBRANCH   3  19
TORSDOF 12
ENDMDL
MODEL 3
REMARK VINA RESULT:      -6.9      4.885      8.178
REMARK  Name = 
REMARK  12 active torsions:
REMARK  status: ('A' for Active; 'I' for Inactive)
REMARK    1  A    between atoms: N_5  and  C_6
REMARK    2  A    between atoms: C_8  and  C_9
REMARK    3  A    between atoms: C_9  and  O_10
REMARK    4  A    between atoms: O_10  and  P_11
REMARK    5  A    between atoms: P_11  and  O_13
REMARK    6  A    between atoms: P_11  and  O_14
REMARK    7  A    between atoms: O_14  and  P_15
REMARK    8  A    between atoms: P_15  and  O_17
REMARK    9  A    between atoms: P_15  and  O_18
REMARK   10  A    between atoms: O_18  and  P_19
REMARK   11  A    between atoms: P_19  and  O_21
REMARK   12  A    between atoms: P_19  and  O_22
REMARK                            x       y       z     vdW  Elec       q    Type
REMARK                         _______ _______ _______ _____ _____    ______ ____
ROOT
ATOM      1  C   UNL     1       4.181   4.864  18.812  0.00  0.00    +0.000 C 
ATOM      2  O   UNL     1       3.953   6.294  18.883  0.00  0.00    +0.000 OA
ATOM      3  C   UNL     1       4.316   6.868  17.594  0.00  0.00    +0.000 C 
ATOM      4  C   UNL     1       5.826   7.005  17.300  0.00  0.00    +0.000 C 
ATOM      5  O   UNL     1       5.813   5.842  16.436  0.00  0.00    +0.000 OA
ATOM      6  C   UNL     1       4.373   5.729  16.554  0.00  0.00    +0.000 C 
ATOM      7  C   UNL     1       3.905   4.507  17.341  0.00  0.00    +0.000 C 
ATOM      8  F   UNL     1       4.595   3.411  16.942  0.00  0.00    +0.000 F 
ENDROOT
BRANCH   1  13
ATOM      9  N   UNL     1       1.166   2.030  22.456  0.00  0.00    +0.000 N 
ATOM     10  C   UNL     1       1.883   2.744  21.536  0.00  0.00    +0.000 A 
ATOM     11  C   UNL     1       1.294   3.955  20.932  0.00  0.00    +0.000 A 
ATOM     12  C   UNL     1       2.063   4.607  20.065  0.00  0.00    +0.000 A 
ATOM     13  N   UNL     1       3.332   4.164  19.767  0.00  0.00    +0.000 N 
ATOM     14  C   UNL     1       3.844   2.989  20.332  0.00  0.00    +0.000 A 
ATOM     15  O   UNL     1       4.963   2.580  20.040  0.00  0.00    +0.000 OA
ATOM     16  N   UNL     1       3.068   2.313  21.246  0.00  0.00    +0.000 NA
ATOM     17  H   UNL     1       0.520   2.543  23.042  0.00  0.00    +0.000 HD
ATOM     18  H   UNL     1       1.751   1.381  22.974  0.00  0.00    +0.000 HD
ENDBRANCH   1  13
BRANCH   3  19
ATOM     19  C   UNL     1       3.433   8.054  17.214  0.00  0.00    +0.000 C 
BRANCH  19  20
ATOM     20  O   UNL     1       2.193   8.057  17.940  0.00  0.00    +0.000 OA
BRANCH  20  21
ATOM     21  P   UNL     1       1.678   9.648  18.380  0.00  0.00    +0.000 P 
ATOM     22  O   UNL     1       2.715  10.255  17.427  0.00  0.00    +0.000 OA
BRANCH  21  23
ATOM     23  O   UNL     1       0.353   9.471  17.440  0.00  0.00    +0.000 OA
ATOM     24  H   UNL     1      -0.350   9.115  18.017  0.00  0.00    +0.000 HD
ENDBRANCH  21  23
BRANCH  21  25
ATOM     25  O   UNL     1       1.164  11.240  18.821  0.00  0.00    +0.000 OA
BRANCH  25  26
ATOM     26  P   UNL     1      -0.621  10.573  19.259  0.00  0.00    +0.000 P 
ATOM     27  O   UNL     1      -0.442   9.523  20.328  0.00  0.00    +0.000 OA
BRANCH  26  28
ATOM     28  O   UNL     1      -1.160  11.926  19.952  0.00  0.00    +0.000 OA
ATOM     29  H   UNL     1      -1.694  12.448  19.317  0.00  0.00    +0.000 HD
ENDBRANCH  26  28
BRANCH  26  30
ATOM     30  O   UNL     1      -2.081  10.107  18.421  0.00  0.00    +0.000 OA
BRANCH  30  31
ATOM     31  P   UNL     1      -3.142  11.092  17.475  0.00  0.00    +0.000 P 
ATOM     32  O   UNL     1      -3.735  11.711  18.742  0.00  0.00    +0.000 OA
BRANCH  31  33
ATOM     33  O   UNL     1      -1.912  12.054  17.036  0.00  0.00    +0.000 OA
ATOM     34  H   UNL     1      -1.275  12.159  17.768  0.00  0.00    +0.000 HD
ENDBRANCH  31  33
BRANCH  31  35
ATOM     35  O   UNL     1      -4.205  12.076  16.529  0.00  0.00    +0.000 OA
ATOM     36  H   UNL     1      -5.012  11.555  16.356  0.00  0.00    +0.000 HD
ENDBRANCH  31  35
ENDBRANCH  30  31
ENDBRANCH  26  30
ENDBRANCH  25  26
ENDBRANCH  21  25
ENDBRANCH  20  21
ENDBRANCH  19  20
ENDBRANCH   3  19
TORSDOF 12
ENDMDL
MODEL 4
REMARK VINA RESULT:      -6.9      1.773      3.340
REMARK  Name = 
REMARK  12 active torsions:
REMARK  status: ('A' for Active; 'I' for Inactive)
REMARK    1  A    between atoms: N_5  and  C_6
REMARK    2  A    between atoms: C_8  and  C_9
REMARK    3  A    between atoms: C_9  and  O_10
REMARK    4  A    between atoms: O_10  and  P_11
REMARK    5  A    between atoms: P_11  and  O_13
REMARK    6  A    between atoms: P_11  and  O_14
REMARK    7  A    between atoms: O_14  and  P_15
REMARK    8  A    between atoms: P_15  and  O_17
REMARK    9  A    between atoms: P_15  and  O_18
REMARK   10  A    between atoms: O_18  and  P_19
REMARK   11  A    between atoms: P_19  and  O_21
REMARK   12  A    between atoms: P_19  and  O_22
REMARK                            x       y       z     vdW  Elec       q    Type
REMARK                         _______ _______ _______ _____ _____    ______ ____
ROOT
ATOM      1  C   UNL     1       2.034   5.511  20.301  0.00  0.00    +0.000 C 
ATOM      2  O   UNL     1       3.339   4.893  20.183  0.00  0.00    +0.000 OA
ATOM      3  C   UNL     1       3.163   3.451  20.296  0.00  0.00    +0.000 C 
ATOM      4  C   UNL     1       2.900   2.898  21.713  0.00  0.00    +0.000 C 
ATOM      5  O   UNL     1       1.485   2.744  21.444  0.00  0.00    +0.000 OA
ATOM      6  C   UNL     1       1.673   3.124  20.059  0.00  0.00    +0.000 C 
ATOM      7  C   UNL     1       1.068   4.478  19.695  0.00  0.00    +0.000 C 
ATOM      8  F   UNL     1      -0.181   4.578  20.215  0.00  0.00    +0.000 F 
ENDROOT
BRANCH   1  13
ATOM      9  N   UNL     1       1.862  10.519  18.001  0.00  0.00    +0.000 N 
ATOM     10  C   UNL     1       1.902   9.262  18.538  0.00  0.00    +0.000 A 
ATOM     11  C   UNL     1       2.463   8.148  17.748  0.00  0.00    +0.000 A 
ATOM     12  C   UNL     1       2.489   6.962  18.350  0.00  0.00    +0.000 A 
ATOM     13  N   UNL     1       2.020   6.806  19.635  0.00  0.00    +0.000 N 
ATOM     14  C   UNL     1       1.460   7.879  20.340  0.00  0.00    +0.000 A 
ATOM     15  O   UNL     1       1.014   7.730  21.473  0.00  0.00    +0.000 OA
ATOM     16  N   UNL     1       1.444   9.117  19.740  0.00  0.00    +0.000 NA
ATOM     17  H   UNL     1       2.593  10.769  17.347  0.00  0.00    +0.000 HD
ATOM     18  H   UNL     1       1.694  11.229  18.707  0.00  0.00    +0.000 HD
ENDBRANCH   1  13
BRANCH   3  19
ATOM     19  C   UNL     1       4.147   2.672  19.427  0.00  0.00    +0.000 C 
BRANCH  19  20
ATOM     20  O   UNL     1       5.242   3.492  18.986  0.00  0.00    +0.000 OA
BRANCH  20  21
ATOM     21  P   UNL     1       5.246   3.741  17.274  0.00  0.00    +0.000 P 
ATOM     22  O   UNL     1       4.045   2.798  17.127  0.00  0.00    +0.000 OA
BRANCH  21  23
ATOM     23  O   UNL     1       4.557   5.207  17.494  0.00  0.00    +0.000 OA
ATOM     24  H   UNL     1       4.060   5.404  16.677  0.00  0.00    +0.000 HD
ENDBRANCH  21  23
BRANCH  21  25
ATOM     25  O   UNL     1       5.250   3.989  15.563  0.00  0.00    +0.000 OA
BRANCH  25  26
ATOM     26  P   UNL     1       6.569   5.421  15.745  0.00  0.00    +0.000 P 
ATOM     27  O   UNL     1       7.543   5.262  14.603  0.00  0.00    +0.000 OA
BRANCH  26  28
ATOM     28  O   UNL     1       5.569   6.639  15.403  0.00  0.00    +0.000 OA
ATOM     29  H   UNL     1       6.005   7.500  15.577  0.00  0.00    +0.000 HD
ENDBRANCH  26  28
BRANCH  26  30
ATOM     30  O   UNL     1       7.494   6.188  17.013  0.00  0.00    +0.000 OA
BRANCH  30  31
ATOM     31  P   UNL     1       7.533   5.808  18.700  0.00  0.00    +0.000 P 
ATOM     32  O   UNL     1       8.428   4.597  18.431  0.00  0.00    +0.000 OA
BRANCH  31  33
ATOM     33  O   UNL     1       8.533   7.052  18.991  0.00  0.00    +0.000 OA
ATOM     34  H   UNL     1       8.037   7.826  19.318  0.00  0.00    +0.000 HD
ENDBRANCH  31  33
BRANCH  31  35
ATOM     35  O   UNL     1       7.571   5.427  20.387  0.00  0.00    +0.000 OA
ATOM     36  H   UNL     1       8.472   5.619  20.711  0.00  0.00    +0.000 HD
ENDBRANCH  31  35
ENDBRANCH  30  31
ENDBRANCH  26  30
ENDBRANCH  25  26
ENDBRANCH  21  25
ENDBRANCH  20  21
ENDBRANCH  19  20
ENDBRANCH   3  19
TORSDOF 12
ENDMDL
MODEL 5
REMARK VINA RESULT:      -6.9      1.129      1.755
REMARK  Name = 
REMARK  12 active torsions:
REMARK  status: ('A' for Active; 'I' for Inactive)
REMARK    1  A    between atoms: N_5  and  C_6
REMARK    2  A    between atoms: C_8  and  C_9
REMARK    3  A    between atoms: C_9  and  O_10
REMARK    4  A    between atoms: O_10  and  P_11
REMARK    5  A    between atoms: P_11  and  O_13
REMARK    6  A    between atoms: P_11  and  O_14
REMARK    7  A    between atoms: O_14  and  P_15
REMARK    8  A    between atoms: P_15  and  O_17
REMARK    9  A    between atoms: P_15  and  O_18
REMARK   10  A    between atoms: O_18  and  P_19
REMARK   11  A    between atoms: P_19  and  O_21
REMARK   12  A    between atoms: P_19  and  O_22
REMARK                            x       y       z     vdW  Elec       q    Type
REMARK                         _______ _______ _______ _____ _____    ______ ____
ROOT
ATOM      1  C   UNL     1       2.139   5.383  20.490  0.00  0.00    +0.000 C 
ATOM      2  O   UNL     1       3.544   5.192  20.188  0.00  0.00    +0.000 OA
ATOM      3  C   UNL     1       3.733   3.800  19.802  0.00  0.00    +0.000 C 
ATOM      4  C   UNL     1       3.717   2.759  20.943  0.00  0.00    +0.000 C 
ATOM      5  O   UNL     1       2.366   2.350  20.616  0.00  0.00    +0.000 OA
ATOM      6  C   UNL     1       2.355   3.204  19.445  0.00  0.00    +0.000 C 
ATOM      7  C   UNL     1       1.413   4.400  19.555  0.00  0.00    +0.000 C 
ATOM      8  F   UNL     1       0.219   4.002  20.058  0.00  0.00    +0.000 F 
ENDROOT
BRANCH   1  13
ATOM      9  N   UNL     1       0.828  10.653  19.539  0.00  0.00    +0.000 N 
ATOM     10  C   UNL     1       1.155   9.353  19.810  0.00  0.00    +0.000 A 
ATOM     11  C   UNL     1       0.793   8.767  21.116  0.00  0.00    +0.000 A 
ATOM     12  C   UNL     1       1.125   7.491  21.293  0.00  0.00    +0.000 A 
ATOM     13  N   UNL     1       1.762   6.777  20.304  0.00  0.00    +0.000 N 
ATOM     14  C   UNL     1       2.124   7.378  19.091  0.00  0.00    +0.000 A 
ATOM     15  O   UNL     1       2.721   6.749  18.224  0.00  0.00    +0.000 OA
ATOM     16  N   UNL     1       1.771   8.692  18.884  0.00  0.00    +0.000 NA
ATOM     17  H   UNL     1      -0.012  11.020  19.967  0.00  0.00    +0.000 HD
ATOM     18  H   UNL     1       0.899  10.864  18.548  0.00  0.00    +0.000 HD
ENDBRANCH   1  13
BRANCH   3  19
ATOM     19  C   UNL     1       4.812   3.631  18.735  0.00  0.00    +0.000 C 
BRANCH  19  20
ATOM     20  O   UNL     1       5.375   4.891  18.335  0.00  0.00    +0.000 OA
BRANCH  20  21
ATOM     21  P   UNL     1       6.624   4.720  17.150  0.00  0.00    +0.000 P 
ATOM     22  O   UNL     1       7.560   4.127  18.211  0.00  0.00    +0.000 OA
BRANCH  21  23
ATOM     23  O   UNL     1       5.858   3.410  16.542  0.00  0.00    +0.000 OA
ATOM     24  H   UNL     1       5.012   3.731  16.175  0.00  0.00    +0.000 HD
ENDBRANCH  21  23
BRANCH  21  25
ATOM     25  O   UNL     1       7.873   4.550  15.965  0.00  0.00    +0.000 OA
BRANCH  25  26
ATOM     26  P   UNL     1       6.618   5.002  14.536  0.00  0.00    +0.000 P 
ATOM     27  O   UNL     1       5.730   6.099  15.069  0.00  0.00    +0.000 OA
BRANCH  26  28
ATOM     28  O   UNL     1       7.702   5.658  13.538  0.00  0.00    +0.000 OA
ATOM     29  H   UNL     1       7.481   6.596  13.359  0.00  0.00    +0.000 HD
ENDBRANCH  26  28
BRANCH  26  30
ATOM     30  O   UNL     1       5.637   4.175  13.351  0.00  0.00    +0.000 OA
BRANCH  30  31
ATOM     31  P   UNL     1       6.065   2.835  12.344  0.00  0.00    +0.000 P 
ATOM     32  O   UNL     1       4.734   2.940  11.599  0.00  0.00    +0.000 OA
BRANCH  31  33
ATOM     33  O   UNL     1       7.118   3.751  11.517  0.00  0.00    +0.000 OA
ATOM     34  H   UNL     1       6.846   3.836  10.583  0.00  0.00    +0.000 HD
ENDBRANCH  31  33
BRANCH  31  35
ATOM     35  O   UNL     1       6.492   1.495  11.337  0.00  0.00    +0.000 OA
ATOM     36  H   UNL     1       7.425   1.610  11.075  0.00  0.00    +0.000 HD
ENDBRANCH  31  35
ENDBRANCH  30  31
ENDBRANCH  26  30
ENDBRANCH  25  26
ENDBRANCH  21  25
ENDBRANCH  20  21
ENDBRANCH  19  20
ENDBRANCH   3  19
TORSDOF 12
ENDMDL
MODEL 6
REMARK VINA RESULT:      -6.8      1.003      1.589
REMARK  Name = 
REMARK  12 active torsions:
REMARK  status: ('A' for Active; 'I' for Inactive)
REMARK    1  A    between atoms: N_5  and  C_6
REMARK    2  A    between atoms: C_8  and  C_9
REMARK    3  A    between atoms: C_9  and  O_10
REMARK    4  A    between atoms: O_10  and  P_11
REMARK    5  A    between atoms: P_11  and  O_13
REMARK    6  A    between atoms: P_11  and  O_14
REMARK    7  A    between atoms: O_14  and  P_15
REMARK    8  A    between atoms: P_15  and  O_17
REMARK    9  A    between atoms: P_15  and  O_18
REMARK   10  A    between atoms: O_18  and  P_19
REMARK   11  A    between atoms: P_19  and  O_21
REMARK   12  A    between atoms: P_19  and  O_22
REMARK                            x       y       z     vdW  Elec       q    Type
REMARK                         _______ _______ _______ _____ _____    ______ ____
ROOT
ATOM      1  C   UNL     1       2.085   5.449  20.230  0.00  0.00    +0.000 C 
ATOM      2  O   UNL     1       3.372   4.816  20.020  0.00  0.00    +0.000 OA
ATOM      3  C   UNL     1       3.187   3.376  20.136  0.00  0.00    +0.000 C 
ATOM      4  C   UNL     1       3.014   2.816  21.565  0.00  0.00    +0.000 C 
ATOM      5  O   UNL     1       1.582   2.680  21.391  0.00  0.00    +0.000 OA
ATOM      6  C   UNL     1       1.680   3.068  19.998  0.00  0.00    +0.000 C 
ATOM      7  C   UNL     1       1.068   4.431  19.685  0.00  0.00    +0.000 C 
ATOM      8  F   UNL     1      -0.142   4.541  20.288  0.00  0.00    +0.000 F 
ENDROOT
BRANCH   1  13
ATOM      9  N   UNL     1       1.803  10.470  17.970  0.00  0.00    +0.000 N 
ATOM     10  C   UNL     1       1.870   9.210  18.497  0.00  0.00    +0.000 A 
ATOM     11  C   UNL     1       2.433   8.110  17.690  0.00  0.00    +0.000 A 
ATOM     12  C   UNL     1       2.485   6.920  18.282  0.00  0.00    +0.000 A 
ATOM     13  N   UNL     1       2.041   6.748  19.574  0.00  0.00    +0.000 N 
ATOM     14  C   UNL     1       1.479   7.808  20.297  0.00  0.00    +0.000 A 
ATOM     15  O   UNL     1       1.056   7.644  21.436  0.00  0.00    +0.000 OA
ATOM     16  N   UNL     1       1.435   9.050  19.706  0.00  0.00    +0.000 NA
ATOM     17  H   UNL     1       2.519  10.735  17.306  0.00  0.00    +0.000 HD
ATOM     18  H   UNL     1       1.638  11.173  18.685  0.00  0.00    +0.000 HD
ENDBRANCH   1  13
BRANCH   3  19
ATOM     19  C   UNL     1       4.100   2.592  19.198  0.00  0.00    +0.000 C 
BRANCH  19  20
ATOM     20  O   UNL     1       5.463   3.043  19.271  0.00  0.00    +0.000 OA
BRANCH  20  21
ATOM     21  P   UNL     1       5.657   4.677  18.738  0.00  0.00    +0.000 P 
ATOM     22  O   UNL     1       7.111   4.385  18.349  0.00  0.00    +0.000 OA
BRANCH  21  23
ATOM     23  O   UNL     1       4.820   4.325  17.379  0.00  0.00    +0.000 OA
ATOM     24  H   UNL     1       4.290   5.117  17.167  0.00  0.00    +0.000 HD
ENDBRANCH  21  23
BRANCH  21  25
ATOM     25  O   UNL     1       5.851   6.311  18.205  0.00  0.00    +0.000 OA
BRANCH  25  26
ATOM     26  P   UNL     1       6.109   5.711  16.363  0.00  0.00    +0.000 P 
ATOM     27  O   UNL     1       5.282   6.621  15.490  0.00  0.00    +0.000 OA
BRANCH  26  28
ATOM     28  O   UNL     1       7.657   6.147  16.241  0.00  0.00    +0.000 OA
ATOM     29  H   UNL     1       8.129   5.565  15.609  0.00  0.00    +0.000 HD
ENDBRANCH  26  28
BRANCH  26  30
ATOM     30  O   UNL     1       6.190   4.205  15.482  0.00  0.00    +0.000 OA
BRANCH  30  31
ATOM     31  P   UNL     1       6.524   3.955  13.804  0.00  0.00    +0.000 P 
ATOM     32  O   UNL     1       5.046   4.139  13.457  0.00  0.00    +0.000 OA
BRANCH  31  33
ATOM     33  O   UNL     1       7.202   5.424  13.685  0.00  0.00    +0.000 OA
ATOM     34  H   UNL     1       7.561   5.711  14.546  0.00  0.00    +0.000 HD
ENDBRANCH  31  33
BRANCH  31  35
ATOM     35  O   UNL     1       6.859   3.703  12.125  0.00  0.00    +0.000 OA
ATOM     36  H   UNL     1       7.406   4.452  11.819  0.00  0.00    +0.000 HD
ENDBRANCH  31  35
ENDBRANCH  30  31
ENDBRANCH  26  30
ENDBRANCH  25  26
ENDBRANCH  21  25
ENDBRANCH  20  21
ENDBRANCH  19  20
ENDBRANCH   3  19
TORSDOF 12
ENDMDL
MODEL 7
REMARK VINA RESULT:      -6.8      4.700      7.907
REMARK  Name = 
REMARK  12 active torsions:
REMARK  status: ('A' for Active; 'I' for Inactive)
REMARK    1  A    between atoms: N_5  and  C_6
REMARK    2  A    between atoms: C_8  and  C_9
REMARK    3  A    between atoms: C_9  and  O_10
REMARK    4  A    between atoms: O_10  and  P_11
REMARK    5  A    between atoms: P_11  and  O_13
REMARK    6  A    between atoms: P_11  and  O_14
REMARK    7  A    between atoms: O_14  and  P_15
REMARK    8  A    between atoms: P_15  and  O_17
REMARK    9  A    between atoms: P_15  and  O_18
REMARK   10  A    between atoms: O_18  and  P_19
REMARK   11  A    between atoms: P_19  and  O_21
REMARK   12  A    between atoms: P_19  and  O_22
REMARK                            x       y       z     vdW  Elec       q    Type
REMARK                         _______ _______ _______ _____ _____    ______ ____
ROOT
ATOM      1  C   UNL     1       3.329   4.257  18.686  0.00  0.00    +0.000 C 
ATOM      2  O   UNL     1       2.420   5.345  18.986  0.00  0.00    +0.000 OA
ATOM      3  C   UNL     1       1.743   5.032  20.237  0.00  0.00    +0.000 C 
ATOM      4  C   UNL     1       0.629   3.965  20.171  0.00  0.00    +0.000 C 
ATOM      5  O   UNL     1       1.497   2.953  20.738  0.00  0.00    +0.000 OA
ATOM      6  C   UNL     1       2.546   3.928  20.959  0.00  0.00    +0.000 C 
ATOM      7  C   UNL     1       3.770   3.740  20.067  0.00  0.00    +0.000 C 
ATOM      8  F   UNL     1       4.121   2.431  20.035  0.00  0.00    +0.000 F 
ENDROOT
BRANCH   1  13
ATOM      9  N   UNL     1       7.466   5.772  15.372  0.00  0.00    +0.000 N 
ATOM     10  C   UNL     1       6.453   5.419  16.220  0.00  0.00    +0.000 A 
ATOM     11  C   UNL     1       5.970   6.388  17.223  0.00  0.00    +0.000 A 
ATOM     12  C   UNL     1       4.966   5.977  17.994  0.00  0.00    +0.000 A 
ATOM     13  N   UNL     1       4.421   4.722  17.843  0.00  0.00    +0.000 N 
ATOM     14  C   UNL     1       4.931   3.815  16.904  0.00  0.00    +0.000 A 
ATOM     15  O   UNL     1       4.464   2.686  16.794  0.00  0.00    +0.000 OA
ATOM     16  N   UNL     1       5.956   4.231  16.086  0.00  0.00    +0.000 NA
ATOM     17  H   UNL     1       7.534   6.747  15.110  0.00  0.00    +0.000 HD
ATOM     18  H   UNL     1       7.541   5.137  14.583  0.00  0.00    +0.000 HD
ENDBRANCH   1  13
BRANCH   3  19
ATOM     19  C   UNL     1       1.452   6.276  21.072  0.00  0.00    +0.000 C 
BRANCH  19  20
ATOM     20  O   UNL     1       1.959   7.470  20.453  0.00  0.00    +0.000 OA
BRANCH  20  21
ATOM     21  P   UNL     1       1.021   8.873  20.835  0.00  0.00    +0.000 P 
ATOM     22  O   UNL     1      -0.179   7.983  21.187  0.00  0.00    +0.000 OA
BRANCH  21  23
ATOM     23  O   UNL     1       1.821   9.013  22.253  0.00  0.00    +0.000 OA
ATOM     24  H   UNL     1       1.756   9.950  22.516  0.00  0.00    +0.000 HD
ENDBRANCH  21  23
BRANCH  21  25
ATOM     25  O   UNL     1       0.082  10.275  21.217  0.00  0.00    +0.000 OA
BRANCH  25  26
ATOM     26  P   UNL     1      -0.374  10.517  19.332  0.00  0.00    +0.000 P 
ATOM     27  O   UNL     1      -0.032  11.944  18.982  0.00  0.00    +0.000 OA
BRANCH  26  28
ATOM     28  O   UNL     1       0.773   9.552  18.737  0.00  0.00    +0.000 OA
ATOM     29  H   UNL     1       0.756   8.681  19.186  0.00  0.00    +0.000 HD
ENDBRANCH  26  28
BRANCH  26  30
ATOM     30  O   UNL     1      -1.668  10.091  18.238  0.00  0.00    +0.000 OA
BRANCH  30  31
ATOM     31  P   UNL     1      -2.917  11.103  17.600  0.00  0.00    +0.000 P 
ATOM     32  O   UNL     1      -3.073  11.803  18.950  0.00  0.00    +0.000 OA
BRANCH  31  33
ATOM     33  O   UNL     1      -1.832  11.972  16.764  0.00  0.00    +0.000 OA
ATOM     34  H   UNL     1      -1.123  11.399  16.416  0.00  0.00    +0.000 HD
ENDBRANCH  31  33
BRANCH  31  35
ATOM     35  O   UNL     1      -4.168  12.114  16.962  0.00  0.00    +0.000 OA
ATOM     36  H   UNL     1      -4.475  11.710  16.128  0.00  0.00    +0.000 HD
ENDBRANCH  31  35
ENDBRANCH  30  31
ENDBRANCH  26  30
ENDBRANCH  25  26
ENDBRANCH  21  25
ENDBRANCH  20  21
ENDBRANCH  19  20
ENDBRANCH   3  19
TORSDOF 12
ENDMDL
MODEL 8
REMARK VINA RESULT:      -6.8      1.133      1.220
REMARK  Name = 
REMARK  12 active torsions:
REMARK  status: ('A' for Active; 'I' for Inactive)
REMARK    1  A    between atoms: N_5  and  C_6
REMARK    2  A    between atoms: C_8  and  C_9
REMARK    3  A    between atoms: C_9  and  O_10
REMARK    4  A    between atoms: O_10  and  P_11
REMARK    5  A    between atoms: P_11  and  O_13
REMARK    6  A    between atoms: P_11  and  O_14
REMARK    7  A    between atoms: O_14  and  P_15
REMARK    8  A    between atoms: P_15  and  O_17
REMARK    9  A    between atoms: P_15  and  O_18
REMARK   10  A    between atoms: O_18  and  P_19
REMARK   11  A    between atoms: P_19  and  O_21
REMARK   12  A    between atoms: P_19  and  O_22
REMARK                            x       y       z     vdW  Elec       q    Type
REMARK                         _______ _______ _______ _____ _____    ______ ____
ROOT
ATOM      1  C   UNL     1       2.458   5.799  19.276  0.00  0.00    +0.000 C 
ATOM      2  O   UNL     1       3.853   5.677  19.648  0.00  0.00    +0.000 OA
ATOM      3  C   UNL     1       4.324   4.375  19.197  0.00  0.00    +0.000 C 
ATOM      4  C   UNL     1       3.875   3.153  20.027  0.00  0.00    +0.000 C 
ATOM      5  O   UNL     1       2.872   2.793  19.045  0.00  0.00    +0.000 OA
ATOM      6  C   UNL     1       3.328   3.836  18.148  0.00  0.00    +0.000 C 
ATOM      7  C   UNL     1       2.339   4.986  17.975  0.00  0.00    +0.000 C 
ATOM      8  F   UNL     1       1.089   4.495  17.791  0.00  0.00    +0.000 F 
ENDROOT
BRANCH   1  13
ATOM      9  N   UNL     1       0.971  11.103  19.029  0.00  0.00    +0.000 N 
ATOM     10  C   UNL     1       1.332   9.784  19.055  0.00  0.00    +0.000 A 
ATOM     11  C   UNL     1       1.857   9.147  17.831  0.00  0.00    +0.000 A 
ATOM     12  C   UNL     1       2.208   7.869  17.945  0.00  0.00    +0.000 A 
ATOM     13  N   UNL     1       2.086   7.201  19.142  0.00  0.00    +0.000 N 
ATOM     14  C   UNL     1       1.548   7.828  20.273  0.00  0.00    +0.000 A 
ATOM     15  O   UNL     1       1.410   7.221  21.330  0.00  0.00    +0.000 OA
ATOM     16  N   UNL     1       1.198   9.156  20.178  0.00  0.00    +0.000 NA
ATOM     17  H   UNL     1       1.479  11.712  18.401  0.00  0.00    +0.000 HD
ATOM     18  H   UNL     1       0.866  11.487  19.964  0.00  0.00    +0.000 HD
ENDBRANCH   1  13
BRANCH   3  19
ATOM     19  C   UNL     1       5.785   4.403  18.753  0.00  0.00    +0.000 C 
BRANCH  19  20
ATOM     20  O   UNL     1       6.256   5.744  18.540  0.00  0.00    +0.000 OA
BRANCH  20  21
ATOM     21  P   UNL     1       6.151   6.236  16.885  0.00  0.00    +0.000 P 
ATOM     22  O   UNL     1       4.997   7.185  17.233  0.00  0.00    +0.000 OA
BRANCH  21  23
ATOM     23  O   UNL     1       7.482   7.164  17.084  0.00  0.00    +0.000 OA
ATOM     24  H   UNL     1       8.065   6.682  17.701  0.00  0.00    +0.000 HD
ENDBRANCH  21  23
BRANCH  21  25
ATOM     25  O   UNL     1       6.045   6.728  15.230  0.00  0.00    +0.000 OA
BRANCH  25  26
ATOM     26  P   UNL     1       6.940   5.088  14.655  0.00  0.00    +0.000 P 
ATOM     27  O   UNL     1       8.059   5.505  13.733  0.00  0.00    +0.000 OA
BRANCH  26  28
ATOM     28  O   UNL     1       7.570   4.708  16.090  0.00  0.00    +0.000 OA
ATOM     29  H   UNL     1       7.762   3.748  16.138  0.00  0.00    +0.000 HD
ENDBRANCH  26  28
BRANCH  26  30
ATOM     30  O   UNL     1       6.504   3.482  14.126  0.00  0.00    +0.000 OA
BRANCH  30  31
ATOM     31  P   UNL     1       5.829   2.992  12.610  0.00  0.00    +0.000 P 
ATOM     32  O   UNL     1       4.655   3.954  12.796  0.00  0.00    +0.000 OA
BRANCH  31  33
ATOM     33  O   UNL     1       6.965   3.818  11.799  0.00  0.00    +0.000 OA
ATOM     34  H   UNL     1       6.618   4.677  11.493  0.00  0.00    +0.000 HD
ENDBRANCH  31  33
BRANCH  31  35
ATOM     35  O   UNL     1       5.153   2.501  11.096  0.00  0.00    +0.000 OA
ATOM     36  H   UNL     1       5.889   2.419  10.459  0.00  0.00    +0.000 HD
ENDBRANCH  31  35
ENDBRANCH  30  31
ENDBRANCH  26  30
ENDBRANCH  25  26
ENDBRANCH  21  25
ENDBRANCH  20  21
ENDBRANCH  19  20
ENDBRANCH   3  19
TORSDOF 12
ENDMDL
MODEL 9
REMARK VINA RESULT:      -6.8      4.564      8.302
REMARK  Name = 
REMARK  12 active torsions:
REMARK  status: ('A' for Active; 'I' for Inactive)
REMARK    1  A    between atoms: N_5  and  C_6
REMARK    2  A    between atoms: C_8  and  C_9
REMARK    3  A    between atoms: C_9  and  O_10
REMARK    4  A    between atoms: O_10  and  P_11
REMARK    5  A    between atoms: P_11  and  O_13
REMARK    6  A    between atoms: P_11  and  O_14
REMARK    7  A    between atoms: O_14  and  P_15
REMARK    8  A    between atoms: P_15  and  O_17
REMARK    9  A    between atoms: P_15  and  O_18
REMARK   10  A    between atoms: O_18  and  P_19
REMARK   11  A    between atoms: P_19  and  O_21
REMARK   12  A    between atoms: P_19  and  O_22
REMARK                            x       y       z     vdW  Elec       q    Type
REMARK                         _______ _______ _______ _____ _____    ______ ____
ROOT
ATOM      1  C   UNL     1       4.217   4.549  17.573  0.00  0.00    +0.000 C 
ATOM      2  O   UNL     1       3.268   5.644  17.572  0.00  0.00    +0.000 OA
ATOM      3  C   UNL     1       2.687   5.733  18.905  0.00  0.00    +0.000 C 
ATOM      4  C   UNL     1       1.634   4.666  19.272  0.00  0.00    +0.000 C 
ATOM      5  O   UNL     1       2.590   3.924  20.068  0.00  0.00    +0.000 OA
ATOM      6  C   UNL     1       3.594   4.953  19.882  0.00  0.00    +0.000 C 
ATOM      7  C   UNL     1       4.771   4.526  19.008  0.00  0.00    +0.000 C 
ATOM      8  F   UNL     1       5.192   3.291  19.375  0.00  0.00    +0.000 F 
ENDROOT
BRANCH   1  13
ATOM      9  N   UNL     1       8.146   5.513  13.826  0.00  0.00    +0.000 N 
ATOM     10  C   UNL     1       7.149   5.262  14.728  0.00  0.00    +0.000 A 
ATOM     11  C   UNL     1       6.170   4.191  14.456  0.00  0.00    +0.000 A 
ATOM     12  C   UNL     1       5.247   3.993  15.393  0.00  0.00    +0.000 A 
ATOM     13  N   UNL     1       5.228   4.749  16.544  0.00  0.00    +0.000 N 
ATOM     14  C   UNL     1       6.152   5.782  16.751  0.00  0.00    +0.000 A 
ATOM     15  O   UNL     1       6.113   6.474  17.762  0.00  0.00    +0.000 OA
ATOM     16  N   UNL     1       7.125   5.987  15.800  0.00  0.00    +0.000 NA
ATOM     17  H   UNL     1       8.489   4.730  13.284  0.00  0.00    +0.000 HD
ATOM     18  H   UNL     1       8.886   6.081  14.225  0.00  0.00    +0.000 HD
ENDBRANCH   1  13
BRANCH   3  19
ATOM     19  C   UNL     1       2.378   7.171  19.312  0.00  0.00    +0.000 C 
BRANCH  19  20
ATOM     20  O   UNL     1       1.578   7.849  18.329  0.00  0.00    +0.000 OA
BRANCH  20  21
ATOM     21  P   UNL     1       1.753   9.569  18.392  0.00  0.00    +0.000 P 
ATOM     22  O   UNL     1       2.631   9.533  17.135  0.00  0.00    +0.000 OA
BRANCH  21  23
ATOM     23  O   UNL     1       0.240   9.737  17.798  0.00  0.00    +0.000 OA
ATOM     24  H   UNL     1      -0.293  10.142  18.508  0.00  0.00    +0.000 HD
ENDBRANCH  21  23
BRANCH  21  25
ATOM     25  O   UNL     1       1.929  11.288  18.457  0.00  0.00    +0.000 OA
BRANCH  25  26
ATOM     26  P   UNL     1       0.644  11.393  19.926  0.00  0.00    +0.000 P 
ATOM     27  O   UNL     1       1.218  12.354  20.938  0.00  0.00    +0.000 OA
BRANCH  26  28
ATOM     28  O   UNL     1      -0.519  12.148  19.102  0.00  0.00    +0.000 OA
ATOM     29  H   UNL     1      -1.175  12.542  19.716  0.00  0.00    +0.000 HD
ENDBRANCH  26  28
BRANCH  26  30
ATOM     30  O   UNL     1      -0.357  10.311  20.863  0.00  0.00    +0.000 OA
BRANCH  30  31
ATOM     31  P   UNL     1      -0.171   9.826  22.512  0.00  0.00    +0.000 P 
ATOM     32  O   UNL     1       1.327   9.604  22.303  0.00  0.00    +0.000 OA
BRANCH  31  33
ATOM     33  O   UNL     1      -0.334  11.360  23.016  0.00  0.00    +0.000 OA
ATOM     34  H   UNL     1      -0.200  11.424  23.981  0.00  0.00    +0.000 HD
ENDBRANCH  31  33
BRANCH  31  35
ATOM     35  O   UNL     1       0.015   9.340  24.162  0.00  0.00    +0.000 OA
ATOM     36  H   UNL     1       0.747   8.695  24.197  0.00  0.00    +0.000 HD
ENDBRANCH  31  35
ENDBRANCH  30  31
ENDBRANCH  26  30
ENDBRANCH  25  26
ENDBRANCH  21  25
ENDBRANCH  20  21
ENDBRANCH  19  20
ENDBRANCH   3  19
TORSDOF 12
ENDMDL
