MODEL 1
REMARK VINA RESULT:      -6.4      0.000      0.000
REMARK  Name = 
REMARK  7 active torsions:
REMARK  status: ('A' for Active; 'I' for Inactive)
REMARK    1  A    between atoms: C_1  and  O_2
REMARK    2  A    between atoms: O_2  and  C_3
REMARK    3  A    between atoms: C_3  and  C_4
REMARK    4  A    between atoms: C_4  and  N_5
REMARK    5  A    between atoms: N_5  and  C_6
REMARK    6  A    between atoms: C_6  and  C_7
REMARK    7  A    between atoms: C_14  and  C_15
REMARK                            x       y       z     vdW  Elec       q    Type
REMARK                         _______ _______ _______ _____ _____    ______ ____
ROOT
ATOM      1  N   UNL     1       4.067   3.774  18.265  0.00  0.00    +0.000 N 
ATOM      2  C   UNL     1       5.063   4.492  17.564  0.00  0.00    +0.000 A 
ATOM      3  C   UNL     1       5.117   4.395  16.190  0.00  0.00    +0.000 A 
ATOM      4  C   UNL     1       6.119   5.080  15.524  0.00  0.00    +0.000 A 
ATOM      5  N   UNL     1       7.026   5.824  16.191  0.00  0.00    +0.000 NA
ATOM      6  C   UNL     1       6.891   5.866  17.520  0.00  0.00    +0.000 A 
ATOM      7  N   UNL     1       5.950   5.248  18.240  0.00  0.00    +0.000 NA
ENDROOT
BRANCH   4   8
ATOM      8  C   UNL     1       6.227   4.974  14.030  0.00  0.00    +0.000 C 
ATOM      9  C   UNL     1       7.641   5.138  13.505  0.00  0.00    +0.000 C 
ATOM     10  C   UNL     1       7.537   4.548  12.116  0.00  0.00    +0.000 C 
ATOM     11  O   UNL     1       6.506   3.555  12.151  0.00  0.00    +0.000 OA
ATOM     12  C   UNL     1       5.852   3.627  13.431  0.00  0.00    +0.000 C 
ENDBRANCH   4   8
BRANCH   1  13
ATOM     13  C   UNL     1       4.462   3.485  19.659  0.00  0.00    +0.000 C 
BRANCH  13  14
ATOM     14  C   UNL     1       3.646   2.336  20.278  0.00  0.00    +0.000 C 
BRANCH  14  16
ATOM     15  C   UNL     1       1.718   2.512  21.624  0.00  0.00    +0.000 C 
ATOM     16  O   UNL     1       3.130   2.683  21.569  0.00  0.00    +0.000 OA
ENDBRANCH  14  16
ENDBRANCH  13  14
ENDBRANCH   1  13
BRANCH   1  17
ATOM     17  C   UNL     1       2.732   4.375  18.051  0.00  0.00    +0.000 C 
BRANCH  17  18
ATOM     18  C   UNL     1       2.490   5.637  18.847  0.00  0.00    +0.000 A 
ATOM     19  C   UNL     1       2.068   5.757  20.158  0.00  0.00    +0.000 A 
ATOM     20  C   UNL     1       1.804   7.108  20.524  0.00  0.00    +0.000 A 
ATOM     21  C   UNL     1       2.095   7.986  19.501  0.00  0.00    +0.000 A 
ATOM     22  S   UNL     1       2.705   7.178  18.123  0.00  0.00    +0.000 S 
ENDBRANCH  17  18
ENDBRANCH   1  17
TORSDOF 6
ENDMDL
MODEL 2
REMARK VINA RESULT:      -6.3      1.979      6.820
REMARK  Name = 
REMARK  7 active torsions:
REMARK  status: ('A' for Active; 'I' for Inactive)
REMARK    1  A    between atoms: C_1  and  O_2
REMARK    2  A    between atoms: O_2  and  C_3
REMARK    3  A    between atoms: C_3  and  C_4
REMARK    4  A    between atoms: C_4  and  N_5
REMARK    5  A    between atoms: N_5  and  C_6
REMARK    6  A    between atoms: C_6  and  C_7
REMARK    7  A    between atoms: C_14  and  C_15
REMARK                            x       y       z     vdW  Elec       q    Type
REMARK                         _______ _______ _______ _____ _____    ______ ____
ROOT
ATOM      1  N   UNL     1       5.412   4.353  16.587  0.00  0.00    +0.000 N 
ATOM      2  C   UNL     1       4.484   4.965  17.460  0.00  0.00    +0.000 A 
ATOM      3  C   UNL     1       4.104   4.302  18.607  0.00  0.00    +0.000 A 
ATOM      4  C   UNL     1       3.170   4.904  19.434  0.00  0.00    +0.000 A 
ATOM      5  N   UNL     1       2.638   6.107  19.134  0.00  0.00    +0.000 NA
ATOM      6  C   UNL     1       3.072   6.680  18.007  0.00  0.00    +0.000 A 
ATOM      7  N   UNL     1       3.975   6.176  17.160  0.00  0.00    +0.000 NA
ENDROOT
BRANCH   4   8
ATOM      8  C   UNL     1       2.710   4.198  20.675  0.00  0.00    +0.000 C 
ATOM      9  C   UNL     1       1.252   3.780  20.638  0.00  0.00    +0.000 C 
ATOM     10  C   UNL     1       1.189   2.741  21.735  0.00  0.00    +0.000 C 
ATOM     11  O   UNL     1       2.483   2.135  21.823  0.00  0.00    +0.000 OA
ATOM     12  C   UNL     1       3.383   2.866  20.970  0.00  0.00    +0.000 C 
ENDBRANCH   4   8
BRANCH   1  13
ATOM     13  C   UNL     1       5.280   4.840  15.199  0.00  0.00    +0.000 C 
BRANCH  13  14
ATOM     14  C   UNL     1       6.389   4.303  14.277  0.00  0.00    +0.000 C 
BRANCH  14  16
ATOM     15  C   UNL     1       7.776   5.114  12.551  0.00  0.00    +0.000 C 
ATOM     16  O   UNL     1       7.296   5.337  13.873  0.00  0.00    +0.000 OA
ENDBRANCH  14  16
ENDBRANCH  13  14
ENDBRANCH   1  13
BRANCH   1  17
ATOM     17  C   UNL     1       6.769   4.347  17.177  0.00  0.00    +0.000 C 
BRANCH  17  18
ATOM     18  C   UNL     1       7.250   5.706  17.628  0.00  0.00    +0.000 A 
ATOM     19  C   UNL     1       7.304   6.883  16.904  0.00  0.00    +0.000 A 
ATOM     20  C   UNL     1       7.958   7.930  17.614  0.00  0.00    +0.000 A 
ATOM     21  C   UNL     1       8.327   7.541  18.885  0.00  0.00    +0.000 A 
ATOM     22  S   UNL     1       7.859   5.930  19.218  0.00  0.00    +0.000 S 
ENDBRANCH  17  18
ENDBRANCH   1  17
TORSDOF 6
ENDMDL
MODEL 3
REMARK VINA RESULT:      -6.3      3.211      7.368
REMARK  Name = 
REMARK  7 active torsions:
REMARK  status: ('A' for Active; 'I' for Inactive)
REMARK    1  A    between atoms: C_1  and  O_2
REMARK    2  A    between atoms: O_2  and  C_3
REMARK    3  A    between atoms: C_3  and  C_4
REMARK    4  A    between atoms: C_4  and  N_5
REMARK    5  A    between atoms: N_5  and  C_6
REMARK    6  A    between atoms: C_6  and  C_7
REMARK    7  A    between atoms: C_14  and  C_15
REMARK                            x       y       z     vdW  Elec       q    Type
REMARK                         _______ _______ _______ _____ _____    ______ ____
ROOT
ATOM      1  N   UNL     1       2.832   5.755  18.974  0.00  0.00    +0.000 N 
ATOM      2  C   UNL     1       2.307   7.065  18.906  0.00  0.00    +0.000 A 
ATOM      3  C   UNL     1       1.941   7.702  20.072  0.00  0.00    +0.000 A 
ATOM      4  C   UNL     1       1.400   8.973  19.983  0.00  0.00    +0.000 A 
ATOM      5  N   UNL     1       1.228   9.583  18.792  0.00  0.00    +0.000 NA
ATOM      6  C   UNL     1       1.619   8.894  17.715  0.00  0.00    +0.000 A 
ATOM      7  N   UNL     1       2.160   7.672  17.712  0.00  0.00    +0.000 NA
ENDROOT
BRANCH   4   8
ATOM      8  C   UNL     1       0.962   9.685  21.230  0.00  0.00    +0.000 C 
ATOM      9  C   UNL     1      -0.518   9.538  21.532  0.00  0.00    +0.000 C 
ATOM     10  C   UNL     1      -0.586   9.922  22.993  0.00  0.00    +0.000 C 
ATOM     11  O   UNL     1       0.675   9.585  23.582  0.00  0.00    +0.000 OA
ATOM     12  C   UNL     1       1.572   9.184  22.530  0.00  0.00    +0.000 C 
ENDBRANCH   4   8
BRANCH   1  13
ATOM     13  C   UNL     1       2.624   5.003  17.719  0.00  0.00    +0.000 C 
BRANCH  13  14
ATOM     14  C   UNL     1       1.778   3.734  17.924  0.00  0.00    +0.000 C 
BRANCH  14  16
ATOM     15  C   UNL     1       3.309   1.952  18.126  0.00  0.00    +0.000 C 
ATOM     16  O   UNL     1       2.410   2.810  18.820  0.00  0.00    +0.000 OA
ENDBRANCH  14  16
ENDBRANCH  13  14
ENDBRANCH   1  13
BRANCH   1  17
ATOM     17  C   UNL     1       4.199   5.760  19.540  0.00  0.00    +0.000 C 
BRANCH  17  18
ATOM     18  C   UNL     1       5.290   5.553  18.516  0.00  0.00    +0.000 A 
ATOM     19  C   UNL     1       6.094   4.444  18.329  0.00  0.00    +0.000 A 
ATOM     20  C   UNL     1       7.117   4.668  17.363  0.00  0.00    +0.000 A 
ATOM     21  C   UNL     1       7.023   5.921  16.794  0.00  0.00    +0.000 A 
ATOM     22  S   UNL     1       5.692   6.801  17.408  0.00  0.00    +0.000 S 
ENDBRANCH  17  18
ENDBRANCH   1  17
TORSDOF 6
ENDMDL
MODEL 4
REMARK VINA RESULT:      -6.2      3.452      7.579
REMARK  Name = 
REMARK  7 active torsions:
REMARK  status: ('A' for Active; 'I' for Inactive)
REMARK    1  A    between atoms: C_1  and  O_2
REMARK    2  A    between atoms: O_2  and  C_3
REMARK    3  A    between atoms: C_3  and  C_4
REMARK    4  A    between atoms: C_4  and  N_5
REMARK    5  A    between atoms: N_5  and  C_6
REMARK    6  A    between atoms: C_6  and  C_7
REMARK    7  A    between atoms: C_14  and  C_15
REMARK                            x       y       z     vdW  Elec       q    Type
REMARK                         _______ _______ _______ _____ _____    ______ ____
ROOT
ATOM      1  N   UNL     1       2.544   5.951  19.042  0.00  0.00    +0.000 N 
ATOM      2  C   UNL     1       2.089   7.288  18.993  0.00  0.00    +0.000 A 
ATOM      3  C   UNL     1       1.788   7.936  20.172  0.00  0.00    +0.000 A 
ATOM      4  C   UNL     1       1.313   9.236  20.103  0.00  0.00    +0.000 A 
ATOM      5  N   UNL     1       1.144   9.860  18.919  0.00  0.00    +0.000 NA
ATOM      6  C   UNL     1       1.469   9.158  17.830  0.00  0.00    +0.000 A 
ATOM      7  N   UNL     1       1.943   7.908  17.806  0.00  0.00    +0.000 NA
ENDROOT
BRANCH   4   8
ATOM      8  C   UNL     1       0.947   9.962  21.364  0.00  0.00    +0.000 C 
ATOM      9  C   UNL     1      -0.511  10.380  21.429  0.00  0.00    +0.000 C 
ATOM     10  C   UNL     1      -0.702  10.645  22.906  0.00  0.00    +0.000 C 
ATOM     11  O   UNL     1       0.212   9.799  23.613  0.00  0.00    +0.000 OA
ATOM     12  C   UNL     1       1.075   9.164  22.652  0.00  0.00    +0.000 C 
ENDBRANCH   4   8
BRANCH   1  13
ATOM     13  C   UNL     1       2.264   5.219  17.789  0.00  0.00    +0.000 C 
BRANCH  13  14
ATOM     14  C   UNL     1       1.472   3.921  18.029  0.00  0.00    +0.000 C 
BRANCH  14  16
ATOM     15  C   UNL     1       2.925   2.064  18.009  0.00  0.00    +0.000 C 
ATOM     16  O   UNL     1       1.990   2.829  17.257  0.00  0.00    +0.000 OA
ENDBRANCH  14  16
ENDBRANCH  13  14
ENDBRANCH   1  13
BRANCH   1  17
ATOM     17  C   UNL     1       3.924   5.880  19.572  0.00  0.00    +0.000 C 
BRANCH  17  18
ATOM     18  C   UNL     1       4.988   5.757  18.506  0.00  0.00    +0.000 A 
ATOM     19  C   UNL     1       5.342   6.677  17.536  0.00  0.00    +0.000 A 
ATOM     20  C   UNL     1       6.287   6.153  16.608  0.00  0.00    +0.000 A 
ATOM     21  C   UNL     1       6.675   4.870  16.934  0.00  0.00    +0.000 A 
ATOM     22  S   UNL     1       5.918   4.321  18.366  0.00  0.00    +0.000 S 
ENDBRANCH  17  18
ENDBRANCH   1  17
TORSDOF 6
ENDMDL
MODEL 5
REMARK VINA RESULT:      -6.2      0.913      1.320
REMARK  Name = 
REMARK  7 active torsions:
REMARK  status: ('A' for Active; 'I' for Inactive)
REMARK    1  A    between atoms: C_1  and  O_2
REMARK    2  A    between atoms: O_2  and  C_3
REMARK    3  A    between atoms: C_3  and  C_4
REMARK    4  A    between atoms: C_4  and  N_5
REMARK    5  A    between atoms: N_5  and  C_6
REMARK    6  A    between atoms: C_6  and  C_7
REMARK    7  A    between atoms: C_14  and  C_15
REMARK                            x       y       z     vdW  Elec       q    Type
REMARK                         _______ _______ _______ _____ _____    ______ ____
ROOT
ATOM      1  N   UNL     1       4.104   3.789  18.330  0.00  0.00    +0.000 N 
ATOM      2  C   UNL     1       5.232   4.317  17.662  0.00  0.00    +0.000 A 
ATOM      3  C   UNL     1       5.480   3.936  16.361  0.00  0.00    +0.000 A 
ATOM      4  C   UNL     1       6.607   4.439  15.734  0.00  0.00    +0.000 A 
ATOM      5  N   UNL     1       7.450   5.279  16.370  0.00  0.00    +0.000 NA
ATOM      6  C   UNL     1       7.126   5.600  17.626  0.00  0.00    +0.000 A 
ATOM      7  N   UNL     1       6.055   5.171  18.301  0.00  0.00    +0.000 NA
ENDROOT
BRANCH   4   8
ATOM      8  C   UNL     1       6.926   4.022  14.327  0.00  0.00    +0.000 C 
ATOM      9  C   UNL     1       5.701   3.697  13.492  0.00  0.00    +0.000 C 
ATOM     10  C   UNL     1       6.247   3.769  12.083  0.00  0.00    +0.000 C 
ATOM     11  O   UNL     1       7.330   4.705  12.093  0.00  0.00    +0.000 OA
ATOM     12  C   UNL     1       7.596   5.075  13.458  0.00  0.00    +0.000 C 
ENDBRANCH   4   8
BRANCH   1  13
ATOM     13  C   UNL     1       4.273   3.785  19.798  0.00  0.00    +0.000 C 
BRANCH  13  14
ATOM     14  C   UNL     1       3.776   2.480  20.445  0.00  0.00    +0.000 C 
BRANCH  14  16
ATOM     15  C   UNL     1       1.513   2.538  21.103  0.00  0.00    +0.000 C 
ATOM     16  O   UNL     1       2.861   2.732  21.519  0.00  0.00    +0.000 OA
ENDBRANCH  14  16
ENDBRANCH  13  14
ENDBRANCH   1  13
BRANCH   1  17
ATOM     17  C   UNL     1       2.852   4.370  17.795  0.00  0.00    +0.000 C 
BRANCH  17  18
ATOM     18  C   UNL     1       2.545   5.756  18.315  0.00  0.00    +0.000 A 
ATOM     19  C   UNL     1       2.680   6.967  17.663  0.00  0.00    +0.000 A 
ATOM     20  C   UNL     1       2.438   8.078  18.522  0.00  0.00    +0.000 A 
ATOM     21  C   UNL     1       2.062   7.679  19.787  0.00  0.00    +0.000 A 
ATOM     22  S   UNL     1       1.979   5.977  19.921  0.00  0.00    +0.000 S 
ENDBRANCH  17  18
ENDBRANCH   1  17
TORSDOF 6
ENDMDL
MODEL 6
REMARK VINA RESULT:      -6.2      0.804      1.080
REMARK  Name = 
REMARK  7 active torsions:
REMARK  status: ('A' for Active; 'I' for Inactive)
REMARK    1  A    between atoms: C_1  and  O_2
REMARK    2  A    between atoms: O_2  and  C_3
REMARK    3  A    between atoms: C_3  and  C_4
REMARK    4  A    between atoms: C_4  and  N_5
REMARK    5  A    between atoms: N_5  and  C_6
REMARK    6  A    between atoms: C_6  and  C_7
REMARK    7  A    between atoms: C_14  and  C_15
REMARK                            x       y       z     vdW  Elec       q    Type
REMARK                         _______ _______ _______ _____ _____    ______ ____
ROOT
ATOM      1  N   UNL     1       3.998   3.808  18.827  0.00  0.00    +0.000 N 
ATOM      2  C   UNL     1       5.163   4.312  18.207  0.00  0.00    +0.000 A 
ATOM      3  C   UNL     1       5.421   3.979  16.894  0.00  0.00    +0.000 A 
ATOM      4  C   UNL     1       6.584   4.456  16.313  0.00  0.00    +0.000 A 
ATOM      5  N   UNL     1       7.451   5.226  17.004  0.00  0.00    +0.000 NA
ATOM      6  C   UNL     1       7.115   5.505  18.267  0.00  0.00    +0.000 A 
ATOM      7  N   UNL     1       6.011   5.097  18.900  0.00  0.00    +0.000 NA
ENDROOT
BRANCH   4   8
ATOM      8  C   UNL     1       6.913   4.088  14.895  0.00  0.00    +0.000 C 
ATOM      9  C   UNL     1       5.714   3.627  14.088  0.00  0.00    +0.000 C 
ATOM     10  C   UNL     1       6.211   3.771  12.667  0.00  0.00    +0.000 C 
ATOM     11  O   UNL     1       7.178   4.828  12.658  0.00  0.00    +0.000 OA
ATOM     12  C   UNL     1       7.433   5.218  14.020  0.00  0.00    +0.000 C 
ENDBRANCH   4   8
BRANCH   1  13
ATOM     13  C   UNL     1       4.135   3.730  20.296  0.00  0.00    +0.000 C 
BRANCH  13  14
ATOM     14  C   UNL     1       3.716   2.359  20.856  0.00  0.00    +0.000 C 
BRANCH  14  16
ATOM     15  C   UNL     1       1.458   2.661  21.463  0.00  0.00    +0.000 C 
ATOM     16  O   UNL     1       2.788   2.485  21.940  0.00  0.00    +0.000 OA
ENDBRANCH  14  16
ENDBRANCH  13  14
ENDBRANCH   1  13
BRANCH   1  17
ATOM     17  C   UNL     1       2.786   4.471  18.295  0.00  0.00    +0.000 C 
BRANCH  17  18
ATOM     18  C   UNL     1       2.489   5.811  18.930  0.00  0.00    +0.000 A 
ATOM     19  C   UNL     1       1.999   6.072  20.196  0.00  0.00    +0.000 A 
ATOM     20  C   UNL     1       1.701   7.451  20.392  0.00  0.00    +0.000 A 
ATOM     21  C   UNL     1       2.033   8.212  19.290  0.00  0.00    +0.000 A 
ATOM     22  S   UNL     1       2.723   7.264  18.046  0.00  0.00    +0.000 S 
ENDBRANCH  17  18
ENDBRANCH   1  17
TORSDOF 6
ENDMDL
MODEL 7
REMARK VINA RESULT:      -6.0      4.048      7.212
REMARK  Name = 
REMARK  7 active torsions:
REMARK  status: ('A' for Active; 'I' for Inactive)
REMARK    1  A    between atoms: C_1  and  O_2
REMARK    2  A    between atoms: O_2  and  C_3
REMARK    3  A    between atoms: C_3  and  C_4
REMARK    4  A    between atoms: C_4  and  N_5
REMARK    5  A    between atoms: N_5  and  C_6
REMARK    6  A    between atoms: C_6  and  C_7
REMARK    7  A    between atoms: C_14  and  C_15
REMARK                            x       y       z     vdW  Elec       q    Type
REMARK                         _______ _______ _______ _____ _____    ______ ____
ROOT
ATOM      1  N   UNL     1       3.041   6.439  18.608  0.00  0.00    +0.000 N 
ATOM      2  C   UNL     1       2.265   7.420  19.266  0.00  0.00    +0.000 A 
ATOM      3  C   UNL     1       1.685   8.425  18.523  0.00  0.00    +0.000 A 
ATOM      4  C   UNL     1       0.954   9.395  19.189  0.00  0.00    +0.000 A 
ATOM      5  N   UNL     1       0.808   9.368  20.530  0.00  0.00    +0.000 NA
ATOM      6  C   UNL     1       1.398   8.351  21.167  0.00  0.00    +0.000 A 
ATOM      7  N   UNL     1       2.109   7.370  20.603  0.00  0.00    +0.000 NA
ENDROOT
BRANCH   4   8
ATOM      8  C   UNL     1       0.334  10.522  18.416  0.00  0.00    +0.000 C 
ATOM      9  C   UNL     1      -1.169  10.397  18.250  0.00  0.00    +0.000 C 
ATOM     10  C   UNL     1      -1.569  11.808  17.878  0.00  0.00    +0.000 C 
ATOM     11  O   UNL     1      -0.618  12.693  18.482  0.00  0.00    +0.000 OA
ATOM     12  C   UNL     1       0.440  11.900  19.051  0.00  0.00    +0.000 C 
ENDBRANCH   4   8
BRANCH   1  13
ATOM     13  C   UNL     1       4.041   5.822  19.504  0.00  0.00    +0.000 C 
BRANCH  13  14
ATOM     14  C   UNL     1       5.318   5.397  18.759  0.00  0.00    +0.000 C 
BRANCH  14  16
ATOM     15  C   UNL     1       5.952   5.738  16.514  0.00  0.00    +0.000 C 
ATOM     16  O   UNL     1       5.705   6.360  17.770  0.00  0.00    +0.000 OA
ENDBRANCH  14  16
ENDBRANCH  13  14
ENDBRANCH   1  13
BRANCH   1  17
ATOM     17  C   UNL     1       2.184   5.526  17.820  0.00  0.00    +0.000 C 
BRANCH  17  18
ATOM     18  C   UNL     1       1.856   4.229  18.524  0.00  0.00    +0.000 A 
ATOM     19  C   UNL     1       1.108   4.040  19.671  0.00  0.00    +0.000 A 
ATOM     20  C   UNL     1       1.139   2.690  20.126  0.00  0.00    +0.000 A 
ATOM     21  C   UNL     1       1.858   1.876  19.275  0.00  0.00    +0.000 A 
ATOM     22  S   UNL     1       2.463   2.738  17.928  0.00  0.00    +0.000 S 
ENDBRANCH  17  18
ENDBRANCH   1  17
TORSDOF 6
ENDMDL
MODEL 8
REMARK VINA RESULT:      -6.0      3.981      7.240
REMARK  Name = 
REMARK  7 active torsions:
REMARK  status: ('A' for Active; 'I' for Inactive)
REMARK    1  A    between atoms: C_1  and  O_2
REMARK    2  A    between atoms: O_2  and  C_3
REMARK    3  A    between atoms: C_3  and  C_4
REMARK    4  A    between atoms: C_4  and  N_5
REMARK    5  A    between atoms: N_5  and  C_6
REMARK    6  A    between atoms: C_6  and  C_7
REMARK    7  A    between atoms: C_14  and  C_15
REMARK                            x       y       z     vdW  Elec       q    Type
REMARK                         _______ _______ _______ _____ _____    ______ ____
ROOT
ATOM      1  N   UNL     1       3.106   6.538  18.532  0.00  0.00    +0.000 N 
ATOM      2  C   UNL     1       2.310   7.486  19.215  0.00  0.00    +0.000 A 
ATOM      3  C   UNL     1       1.777   8.544  18.511  0.00  0.00    +0.000 A 
ATOM      4  C   UNL     1       1.025   9.479  19.202  0.00  0.00    +0.000 A 
ATOM      5  N   UNL     1       0.815   9.369  20.531  0.00  0.00    +0.000 NA
ATOM      6  C   UNL     1       1.363   8.307  21.129  0.00  0.00    +0.000 A 
ATOM      7  N   UNL     1       2.090   7.354  20.537  0.00  0.00    +0.000 NA
ENDROOT
BRANCH   4   8
ATOM      8  C   UNL     1       0.454  10.661  18.474  0.00  0.00    +0.000 C 
ATOM      9  C   UNL     1      -1.041  10.570  18.235  0.00  0.00    +0.000 C 
ATOM     10  C   UNL     1      -1.406  12.006  17.934  0.00  0.00    +0.000 C 
ATOM     11  O   UNL     1      -0.473  12.838  18.632  0.00  0.00    +0.000 OA
ATOM     12  C   UNL     1       0.549  11.996  19.197  0.00  0.00    +0.000 C 
ENDBRANCH   4   8
BRANCH   1  13
ATOM     13  C   UNL     1       4.056   5.852  19.433  0.00  0.00    +0.000 C 
BRANCH  13  14
ATOM     14  C   UNL     1       5.405   5.558  18.755  0.00  0.00    +0.000 C 
BRANCH  14  16
ATOM     15  C   UNL     1       7.656   5.756  19.430  0.00  0.00    +0.000 C 
ATOM     16  O   UNL     1       6.400   5.145  19.702  0.00  0.00    +0.000 OA
ENDBRANCH  14  16
ENDBRANCH  13  14
ENDBRANCH   1  13
BRANCH   1  17
ATOM     17  C   UNL     1       2.278   5.688  17.649  0.00  0.00    +0.000 C 
BRANCH  17  18
ATOM     18  C   UNL     1       2.285   4.223  18.021  0.00  0.00    +0.000 A 
ATOM     19  C   UNL     1       2.918   3.177  17.376  0.00  0.00    +0.000 A 
ATOM     20  C   UNL     1       2.575   1.909  17.929  0.00  0.00    +0.000 A 
ATOM     21  C   UNL     1       1.742   2.031  19.022  0.00  0.00    +0.000 A 
ATOM     22  S   UNL     1       1.403   3.667  19.385  0.00  0.00    +0.000 S 
ENDBRANCH  17  18
ENDBRANCH   1  17
TORSDOF 6
ENDMDL
MODEL 9
REMARK VINA RESULT:      -6.0      1.356      1.616
REMARK  Name = 
REMARK  7 active torsions:
REMARK  status: ('A' for Active; 'I' for Inactive)
REMARK    1  A    between atoms: C_1  and  O_2
REMARK    2  A    between atoms: O_2  and  C_3
REMARK    3  A    between atoms: C_3  and  C_4
REMARK    4  A    between atoms: C_4  and  N_5
REMARK    5  A    between atoms: N_5  and  C_6
REMARK    6  A    between atoms: C_6  and  C_7
REMARK    7  A    between atoms: C_14  and  C_15
REMARK                            x       y       z     vdW  Elec       q    Type
REMARK                         _______ _______ _______ _____ _____    ______ ____
ROOT
ATOM      1  N   UNL     1       3.620   3.109  19.034  0.00  0.00    +0.000 N 
ATOM      2  C   UNL     1       4.653   3.912  18.501  0.00  0.00    +0.000 A 
ATOM      3  C   UNL     1       4.785   4.012  17.133  0.00  0.00    +0.000 A 
ATOM      4  C   UNL     1       5.823   4.778  16.628  0.00  0.00    +0.000 A 
ATOM      5  N   UNL     1       6.689   5.413  17.445  0.00  0.00    +0.000 NA
ATOM      6  C   UNL     1       6.479   5.267  18.757  0.00  0.00    +0.000 A 
ATOM      7  N   UNL     1       5.499   4.558  19.326  0.00  0.00    +0.000 NA
ENDROOT
BRANCH   4   8
ATOM      8  C   UNL     1       6.016   4.885  15.144  0.00  0.00    +0.000 C 
ATOM      9  C   UNL     1       7.452   5.146  14.730  0.00  0.00    +0.000 C 
ATOM     10  C   UNL     1       7.440   4.756  13.268  0.00  0.00    +0.000 C 
ATOM     11  O   UNL     1       6.434   3.750  13.104  0.00  0.00    +0.000 OA
ATOM     12  C   UNL     1       5.708   3.630  14.341  0.00  0.00    +0.000 C 
ENDBRANCH   4   8
BRANCH   1  13
ATOM     13  C   UNL     1       3.935   2.621  20.393  0.00  0.00    +0.000 C 
BRANCH  13  14
ATOM     14  C   UNL     1       4.883   1.410  20.380  0.00  0.00    +0.000 C 
BRANCH  14  16
ATOM     15  C   UNL     1       6.056  -0.030  21.834  0.00  0.00    +0.000 C 
ATOM     16  O   UNL     1       5.639   1.310  21.595  0.00  0.00    +0.000 OA
ENDBRANCH  14  16
ENDBRANCH  13  14
ENDBRANCH   1  13
BRANCH   1  17
ATOM     17  C   UNL     1       2.298   3.744  18.833  0.00  0.00    +0.000 C 
BRANCH  17  18
ATOM     18  C   UNL     1       2.197   5.145  19.391  0.00  0.00    +0.000 A 
ATOM     19  C   UNL     1       1.830   5.538  20.664  0.00  0.00    +0.000 A 
ATOM     20  C   UNL     1       1.702   6.952  20.782  0.00  0.00    +0.000 A 
ATOM     21  C   UNL     1       2.037   7.600  19.612  0.00  0.00    +0.000 A 
ATOM     22  S   UNL     1       2.527   6.504  18.395  0.00  0.00    +0.000 S 
ENDBRANCH  17  18
ENDBRANCH   1  17
TORSDOF 6
ENDMDL
