MODEL 1
REMARK VINA RESULT:      -7.2      0.000      0.000
REMARK  Name = 
REMARK  5 active torsions:
REMARK  status: ('A' for Active; 'I' for Inactive)
REMARK    1  A    between atoms: C_4  and  C_5
REMARK    2  A    between atoms: C_5  and  C_6
REMARK    3  A    between atoms: C_6  and  N_7
REMARK    4  A    between atoms: N_7  and  C_8
REMARK    5  A    between atoms: C_8  and  C_9
REMARK                            x       y       z     vdW  Elec       q    Type
REMARK                         _______ _______ _______ _____ _____    ______ ____
ROOT
ATOM      1  N   UNL     1       4.214   5.039  16.892  0.00  0.00    +0.000 NA
ATOM      2  H   UNL     1       3.416   5.316  16.316  0.00  0.00    +0.000 HD
ENDROOT
BRANCH   1   3
ATOM      3  C   UNL     1       5.000   4.063  16.120  0.00  0.00    +0.000 C 
BRANCH   3   4
ATOM      4  C   UNL     1       6.325   4.704  15.684  0.00  0.00    +0.000 C 
BRANCH   4   8
ATOM      5  C   UNL     1       8.199   6.920  18.877  0.00  0.00    +0.000 A 
ATOM      6  C   UNL     1       8.037   5.541  18.978  0.00  0.00    +0.000 A 
ATOM      7  C   UNL     1       7.435   4.828  17.943  0.00  0.00    +0.000 A 
ATOM      8  C   UNL     1       6.989   5.489  16.789  0.00  0.00    +0.000 A 
ATOM      9  C   UNL     1       7.168   6.876  16.688  0.00  0.00    +0.000 A 
ATOM     10  C   UNL     1       7.770   7.587  17.732  0.00  0.00    +0.000 A 
ENDBRANCH   4   8
ENDBRANCH   3   4
ENDBRANCH   1   3
BRANCH   1  11
ATOM     11  C   UNL     1       3.749   4.466  18.159  0.00  0.00    +0.000 C 
BRANCH  11  12
ATOM     12  C   UNL     1       3.754   2.913  18.168  0.00  0.00    +0.000 C 
ATOM     13  C   UNL     1       4.105   2.275  19.514  0.00  0.00    +0.000 C 
ATOM     14  N   UNL     1       2.959   2.404  20.382  0.00  0.00    +0.000 N 
ATOM     15  N   UNL     1       3.068   2.499  21.713  0.00  0.00    +0.000 NA
ATOM     16  N   UNL     1       1.859   2.789  22.179  0.00  0.00    +0.000 NA
ATOM     17  C   UNL     1       1.002   2.886  21.114  0.00  0.00    +0.000 A 
ATOM     18  C   UNL     1       1.686   2.637  19.952  0.00  0.00    +0.000 A 
ATOM     19  C   UNL     1       1.348   2.688  18.517  0.00  0.00    +0.000 C 
ATOM     20  O   UNL     1       2.496   2.364  17.713  0.00  0.00    +0.000 OA
ENDBRANCH  11  12
ENDBRANCH   1  11
TORSDOF 5
ENDMDL
MODEL 2
REMARK VINA RESULT:      -7.0      2.915      4.119
REMARK  Name = 
REMARK  5 active torsions:
REMARK  status: ('A' for Active; 'I' for Inactive)
REMARK    1  A    between atoms: C_4  and  C_5
REMARK    2  A    between atoms: C_5  and  C_6
REMARK    3  A    between atoms: C_6  and  N_7
REMARK    4  A    between atoms: N_7  and  C_8
REMARK    5  A    between atoms: C_8  and  C_9
REMARK                            x       y       z     vdW  Elec       q    Type
REMARK                         _______ _______ _______ _____ _____    ______ ____
ROOT
ATOM      1  N   UNL     1       4.687   4.486  18.769  0.00  0.00    +0.000 NA
ATOM      2  H   UNL     1       4.638   3.844  19.563  0.00  0.00    +0.000 HD
ENDROOT
BRANCH   1   3
ATOM      3  C   UNL     1       4.163   5.786  19.217  0.00  0.00    +0.000 C 
BRANCH   3   4
ATOM      4  C   UNL     1       3.148   6.310  18.190  0.00  0.00    +0.000 C 
BRANCH   4   8
ATOM      5  C   UNL     1       0.996   9.786  19.569  0.00  0.00    +0.000 A 
ATOM      6  C   UNL     1       1.442   9.711  18.253  0.00  0.00    +0.000 A 
ATOM      7  C   UNL     1       2.133   8.585  17.810  0.00  0.00    +0.000 A 
ATOM      8  C   UNL     1       2.385   7.515  18.681  0.00  0.00    +0.000 A 
ATOM      9  C   UNL     1       1.921   7.592  20.003  0.00  0.00    +0.000 A 
ATOM     10  C   UNL     1       1.230   8.726  20.443  0.00  0.00    +0.000 A 
ENDBRANCH   4   8
ENDBRANCH   3   4
ENDBRANCH   1   3
BRANCH   1  11
ATOM     11  C   UNL     1       3.912   3.959  17.642  0.00  0.00    +0.000 C 
BRANCH  11  12
ATOM     12  C   UNL     1       3.500   2.472  17.824  0.00  0.00    +0.000 C 
ATOM     13  C   UNL     1       3.824   1.874  19.194  0.00  0.00    +0.000 C 
ATOM     14  N   UNL     1       2.868   2.390  20.145  0.00  0.00    +0.000 N 
ATOM     15  N   UNL     1       3.157   2.559  21.441  0.00  0.00    +0.000 NA
ATOM     16  N   UNL     1       2.135   3.213  21.981  0.00  0.00    +0.000 NA
ATOM     17  C   UNL     1       1.215   3.458  20.996  0.00  0.00    +0.000 A 
ATOM     18  C   UNL     1       1.662   2.932  19.810  0.00  0.00    +0.000 A 
ATOM     19  C   UNL     1       1.182   2.958  18.417  0.00  0.00    +0.000 C 
ATOM     20  O   UNL     1       2.095   2.261  17.551  0.00  0.00    +0.000 OA
ENDBRANCH  11  12
ENDBRANCH   1  11
TORSDOF 5
ENDMDL
MODEL 3
REMARK VINA RESULT:      -7.0      3.657      5.433
REMARK  Name = 
REMARK  5 active torsions:
REMARK  status: ('A' for Active; 'I' for Inactive)
REMARK    1  A    between atoms: C_4  and  C_5
REMARK    2  A    between atoms: C_5  and  C_6
REMARK    3  A    between atoms: C_6  and  N_7
REMARK    4  A    between atoms: N_7  and  C_8
REMARK    5  A    between atoms: C_8  and  C_9
REMARK                            x       y       z     vdW  Elec       q    Type
REMARK                         _______ _______ _______ _____ _____    ______ ____
ROOT
ATOM      1  N   UNL     1       7.757   8.076  17.037  0.00  0.00    +0.000 NA
ATOM      2  H   UNL     1       8.472   7.590  16.492  0.00  0.00    +0.000 HD
ENDROOT
BRANCH   1   3
ATOM      3  C   UNL     1       8.423   8.686  18.199  0.00  0.00    +0.000 C 
BRANCH   3   4
ATOM      4  C   UNL     1       8.357  10.216  18.081  0.00  0.00    +0.000 C 
BRANCH   4   8
ATOM      5  C   UNL     1      11.795  12.203  19.768  0.00  0.00    +0.000 A 
ATOM      6  C   UNL     1      10.766  11.757  20.592  0.00  0.00    +0.000 A 
ATOM      7  C   UNL     1       9.659  11.112  20.044  0.00  0.00    +0.000 A 
ATOM      8  C   UNL     1       9.570  10.903  18.660  0.00  0.00    +0.000 A 
ATOM      9  C   UNL     1      10.617  11.343  17.837  0.00  0.00    +0.000 A 
ATOM     10  C   UNL     1      11.725  11.993  18.392  0.00  0.00    +0.000 A 
ENDBRANCH   4   8
ENDBRANCH   3   4
ENDBRANCH   1   3
BRANCH   1  11
ATOM     11  C   UNL     1       6.712   7.136  17.455  0.00  0.00    +0.000 C 
BRANCH  11  12
ATOM     12  C   UNL     1       7.271   5.876  18.171  0.00  0.00    +0.000 C 
ATOM     13  C   UNL     1       6.346   5.266  19.226  0.00  0.00    +0.000 C 
ATOM     14  N   UNL     1       5.287   4.565  18.539  0.00  0.00    +0.000 N 
ATOM     15  N   UNL     1       4.061   4.421  19.057  0.00  0.00    +0.000 NA
ATOM     16  N   UNL     1       3.299   3.899  18.103  0.00  0.00    +0.000 NA
ATOM     17  C   UNL     1       4.069   3.735  16.981  0.00  0.00    +0.000 A 
ATOM     18  C   UNL     1       5.351   4.149  17.241  0.00  0.00    +0.000 A 
ATOM     19  C   UNL     1       6.574   4.309  16.434  0.00  0.00    +0.000 C 
ATOM     20  O   UNL     1       7.645   4.840  17.233  0.00  0.00    +0.000 OA
ENDBRANCH  11  12
ENDBRANCH   1  11
TORSDOF 5
ENDMDL
MODEL 4
REMARK VINA RESULT:      -7.0      1.726      3.135
REMARK  Name = 
REMARK  5 active torsions:
REMARK  status: ('A' for Active; 'I' for Inactive)
REMARK    1  A    between atoms: C_4  and  C_5
REMARK    2  A    between atoms: C_5  and  C_6
REMARK    3  A    between atoms: C_6  and  N_7
REMARK    4  A    between atoms: N_7  and  C_8
REMARK    5  A    between atoms: C_8  and  C_9
REMARK                            x       y       z     vdW  Elec       q    Type
REMARK                         _______ _______ _______ _____ _____    ______ ____
ROOT
ATOM      1  N   UNL     1       4.733   5.168  17.271  0.00  0.00    +0.000 NA
ATOM      2  H   UNL     1       4.040   5.182  16.520  0.00  0.00    +0.000 HD
ENDROOT
BRANCH   1   3
ATOM      3  C   UNL     1       5.892   4.398  16.793  0.00  0.00    +0.000 C 
BRANCH   3   4
ATOM      4  C   UNL     1       6.769   5.292  15.904  0.00  0.00    +0.000 C 
BRANCH   4   8
ATOM      5  C   UNL     1       6.858   3.946  11.806  0.00  0.00    +0.000 A 
ATOM      6  C   UNL     1       5.946   3.401  12.706  0.00  0.00    +0.000 A 
ATOM      7  C   UNL     1       5.917   3.842  14.027  0.00  0.00    +0.000 A 
ATOM      8  C   UNL     1       6.802   4.837  14.465  0.00  0.00    +0.000 A 
ATOM      9  C   UNL     1       7.710   5.391  13.550  0.00  0.00    +0.000 A 
ATOM     10  C   UNL     1       7.736   4.943  12.225  0.00  0.00    +0.000 A 
ENDBRANCH   4   8
ENDBRANCH   3   4
ENDBRANCH   1   3
BRANCH   1  11
ATOM     11  C   UNL     1       4.157   4.570  18.480  0.00  0.00    +0.000 C 
BRANCH  11  12
ATOM     12  C   UNL     1       4.157   3.017  18.454  0.00  0.00    +0.000 C 
ATOM     13  C   UNL     1       4.287   2.347  19.824  0.00  0.00    +0.000 C 
ATOM     14  N   UNL     1       3.018   2.465  20.502  0.00  0.00    +0.000 N 
ATOM     15  N   UNL     1       2.914   2.529  21.835  0.00  0.00    +0.000 NA
ATOM     16  N   UNL     1       1.647   2.816  22.109  0.00  0.00    +0.000 NA
ATOM     17  C   UNL     1       0.970   2.942  20.923  0.00  0.00    +0.000 A 
ATOM     18  C   UNL     1       1.830   2.714  19.879  0.00  0.00    +0.000 A 
ATOM     19  C   UNL     1       1.726   2.799  18.411  0.00  0.00    +0.000 C 
ATOM     20  O   UNL     1       2.986   2.485  17.792  0.00  0.00    +0.000 OA
ENDBRANCH  11  12
ENDBRANCH   1  11
TORSDOF 5
ENDMDL
MODEL 5
REMARK VINA RESULT:      -7.0      1.705      3.234
REMARK  Name = 
REMARK  5 active torsions:
REMARK  status: ('A' for Active; 'I' for Inactive)
REMARK    1  A    between atoms: C_4  and  C_5
REMARK    2  A    between atoms: C_5  and  C_6
REMARK    3  A    between atoms: C_6  and  N_7
REMARK    4  A    between atoms: N_7  and  C_8
REMARK    5  A    between atoms: C_8  and  C_9
REMARK                            x       y       z     vdW  Elec       q    Type
REMARK                         _______ _______ _______ _____ _____    ______ ____
ROOT
ATOM      1  N   UNL     1       4.949   4.638  17.589  0.00  0.00    +0.000 NA
ATOM      2  H   UNL     1       5.251   5.106  18.446  0.00  0.00    +0.000 HD
ENDROOT
BRANCH   1   3
ATOM      3  C   UNL     1       5.129   5.586  16.478  0.00  0.00    +0.000 C 
BRANCH   3   4
ATOM      4  C   UNL     1       6.556   5.459  15.923  0.00  0.00    +0.000 C 
BRANCH   4   8
ATOM      5  C   UNL     1       6.677   3.824  11.932  0.00  0.00    +0.000 A 
ATOM      6  C   UNL     1       7.646   4.732  12.350  0.00  0.00    +0.000 A 
ATOM      7  C   UNL     1       7.606   5.255  13.641  0.00  0.00    +0.000 A 
ATOM      8  C   UNL     1       6.594   4.872  14.533  0.00  0.00    +0.000 A 
ATOM      9  C   UNL     1       5.629   3.947  14.109  0.00  0.00    +0.000 A 
ATOM     10  C   UNL     1       5.672   3.427  12.811  0.00  0.00    +0.000 A 
ENDBRANCH   4   8
ENDBRANCH   3   4
ENDBRANCH   1   3
BRANCH   1  11
ATOM     11  C   UNL     1       3.550   4.215  17.707  0.00  0.00    +0.000 C 
BRANCH  11  12
ATOM     12  C   UNL     1       3.382   2.674  17.806  0.00  0.00    +0.000 C 
ATOM     13  C   UNL     1       3.886   2.051  19.110  0.00  0.00    +0.000 C 
ATOM     14  N   UNL     1       2.930   2.351  20.148  0.00  0.00    +0.000 N 
ATOM     15  N   UNL     1       3.276   2.483  21.434  0.00  0.00    +0.000 NA
ATOM     16  N   UNL     1       2.206   2.935  22.078  0.00  0.00    +0.000 NA
ATOM     17  C   UNL     1       1.194   3.093  21.167  0.00  0.00    +0.000 A 
ATOM     18  C   UNL     1       1.635   2.718  19.923  0.00  0.00    +0.000 A 
ATOM     19  C   UNL     1       1.063   2.754  18.565  0.00  0.00    +0.000 C 
ATOM     20  O   UNL     1       2.011   2.263  17.600  0.00  0.00    +0.000 OA
ENDBRANCH  11  12
ENDBRANCH   1  11
TORSDOF 5
ENDMDL
MODEL 6
REMARK VINA RESULT:      -6.9      2.428      4.150
REMARK  Name = 
REMARK  5 active torsions:
REMARK  status: ('A' for Active; 'I' for Inactive)
REMARK    1  A    between atoms: C_4  and  C_5
REMARK    2  A    between atoms: C_5  and  C_6
REMARK    3  A    between atoms: C_6  and  N_7
REMARK    4  A    between atoms: N_7  and  C_8
REMARK    5  A    between atoms: C_8  and  C_9
REMARK                            x       y       z     vdW  Elec       q    Type
REMARK                         _______ _______ _______ _____ _____    ______ ____
ROOT
ATOM      1  N   UNL     1       5.865   6.163  17.359  0.00  0.00    +0.000 NA
ATOM      2  H   UNL     1       5.290   6.782  17.935  0.00  0.00    +0.000 HD
ENDROOT
BRANCH   1   3
ATOM      3  C   UNL     1       5.182   5.999  16.066  0.00  0.00    +0.000 C 
BRANCH   3   4
ATOM      4  C   UNL     1       5.269   4.530  15.625  0.00  0.00    +0.000 C 
BRANCH   4   8
ATOM      5  C   UNL     1       7.205   4.086  11.794  0.00  0.00    +0.000 A 
ATOM      6  C   UNL     1       7.744   4.930  12.762  0.00  0.00    +0.000 A 
ATOM      7  C   UNL     1       7.118   5.068  13.999  0.00  0.00    +0.000 A 
ATOM      8  C   UNL     1       5.943   4.358  14.285  0.00  0.00    +0.000 A 
ATOM      9  C   UNL     1       5.413   3.499  13.311  0.00  0.00    +0.000 A 
ATOM     10  C   UNL     1       6.044   3.367  12.069  0.00  0.00    +0.000 A 
ENDBRANCH   4   8
ENDBRANCH   3   4
ENDBRANCH   1   3
BRANCH   1  11
ATOM     11  C   UNL     1       6.050   4.873  18.032  0.00  0.00    +0.000 C 
BRANCH  11  12
ATOM     12  C   UNL     1       5.324   4.787  19.402  0.00  0.00    +0.000 C 
ATOM     13  C   UNL     1       3.952   5.463  19.451  0.00  0.00    +0.000 C 
ATOM     14  N   UNL     1       3.012   4.618  18.754  0.00  0.00    +0.000 N 
ATOM     15  N   UNL     1       1.939   5.102  18.117  0.00  0.00    +0.000 NA
ATOM     16  N   UNL     1       1.404   4.093  17.440  0.00  0.00    +0.000 NA
ATOM     17  C   UNL     1       2.172   2.978  17.657  0.00  0.00    +0.000 A 
ATOM     18  C   UNL     1       3.205   3.291  18.502  0.00  0.00    +0.000 A 
ATOM     19  C   UNL     1       4.384   2.568  19.013  0.00  0.00    +0.000 C 
ATOM     20  O   UNL     1       5.179   3.421  19.855  0.00  0.00    +0.000 OA
ENDBRANCH  11  12
ENDBRANCH   1  11
TORSDOF 5
ENDMDL
MODEL 7
REMARK VINA RESULT:      -6.9      2.024      3.382
REMARK  Name = 
REMARK  5 active torsions:
REMARK  status: ('A' for Active; 'I' for Inactive)
REMARK    1  A    between atoms: C_4  and  C_5
REMARK    2  A    between atoms: C_5  and  C_6
REMARK    3  A    between atoms: C_6  and  N_7
REMARK    4  A    between atoms: N_7  and  C_8
REMARK    5  A    between atoms: C_8  and  C_9
REMARK                            x       y       z     vdW  Elec       q    Type
REMARK                         _______ _______ _______ _____ _____    ______ ____
ROOT
ATOM      1  N   UNL     1       2.001   5.361  19.894  0.00  0.00    +0.000 NA
ATOM      2  H   UNL     1       1.852   4.577  19.255  0.00  0.00    +0.000 HD
ENDROOT
BRANCH   1   3
ATOM      3  C   UNL     1       3.014   6.241  19.288  0.00  0.00    +0.000 C 
BRANCH   3   4
ATOM      4  C   UNL     1       3.264   5.807  17.836  0.00  0.00    +0.000 C 
BRANCH   4   8
ATOM      5  C   UNL     1       7.356   4.618  17.156  0.00  0.00    +0.000 A 
ATOM      6  C   UNL     1       6.951   5.059  18.412  0.00  0.00    +0.000 A 
ATOM      7  C   UNL     1       5.628   5.439  18.629  0.00  0.00    +0.000 A 
ATOM      8  C   UNL     1       4.690   5.378  17.589  0.00  0.00    +0.000 A 
ATOM      9  C   UNL     1       5.102   4.920  16.329  0.00  0.00    +0.000 A 
ATOM     10  C   UNL     1       6.432   4.543  16.115  0.00  0.00    +0.000 A 
ENDBRANCH   4   8
ENDBRANCH   3   4
ENDBRANCH   1   3
BRANCH   1  11
ATOM     11  C   UNL     1       2.438   4.871  21.205  0.00  0.00    +0.000 C 
BRANCH  11  12
ATOM     12  C   UNL     1       1.911   3.446  21.533  0.00  0.00    +0.000 C 
ATOM     13  C   UNL     1       0.988   2.839  20.474  0.00  0.00    +0.000 C 
ATOM     14  N   UNL     1       1.801   2.422  19.358  0.00  0.00    +0.000 N 
ATOM     15  N   UNL     1       1.344   2.396  18.100  0.00  0.00    +0.000 NA
ATOM     16  N   UNL     1       2.387   2.148  17.316  0.00  0.00    +0.000 NA
ATOM     17  C   UNL     1       3.500   2.034  18.108  0.00  0.00    +0.000 A 
ATOM     18  C   UNL     1       3.146   2.199  19.422  0.00  0.00    +0.000 A 
ATOM     19  C   UNL     1       3.887   2.284  20.694  0.00  0.00    +0.000 C 
ATOM     20  O   UNL     1       2.987   2.516  21.792  0.00  0.00    +0.000 OA
ENDBRANCH  11  12
ENDBRANCH   1  11
TORSDOF 5
ENDMDL
MODEL 8
REMARK VINA RESULT:      -6.9      2.689      3.781
REMARK  Name = 
REMARK  5 active torsions:
REMARK  status: ('A' for Active; 'I' for Inactive)
REMARK    1  A    between atoms: C_4  and  C_5
REMARK    2  A    between atoms: C_5  and  C_6
REMARK    3  A    between atoms: C_6  and  N_7
REMARK    4  A    between atoms: N_7  and  C_8
REMARK    5  A    between atoms: C_8  and  C_9
REMARK                            x       y       z     vdW  Elec       q    Type
REMARK                         _______ _______ _______ _____ _____    ______ ____
ROOT
ATOM      1  N   UNL     1       4.789   4.265  18.748  0.00  0.00    +0.000 NA
ATOM      2  H   UNL     1       4.371   3.923  19.616  0.00  0.00    +0.000 HD
ENDROOT
BRANCH   1   3
ATOM      3  C   UNL     1       4.723   5.735  18.773  0.00  0.00    +0.000 C 
BRANCH   3   4
ATOM      4  C   UNL     1       3.570   6.211  17.877  0.00  0.00    +0.000 C 
BRANCH   4   8
ATOM      5  C   UNL     1       1.070   9.161  19.793  0.00  0.00    +0.000 A 
ATOM      6  C   UNL     1       1.504   8.041  20.498  0.00  0.00    +0.000 A 
ATOM      7  C   UNL     1       2.314   7.093  19.877  0.00  0.00    +0.000 A 
ATOM      8  C   UNL     1       2.704   7.255  18.540  0.00  0.00    +0.000 A 
ATOM      9  C   UNL     1       2.274   8.392  17.840  0.00  0.00    +0.000 A 
ATOM     10  C   UNL     1       1.458   9.340  18.467  0.00  0.00    +0.000 A 
ENDBRANCH   4   8
ENDBRANCH   3   4
ENDBRANCH   1   3
BRANCH   1  11
ATOM     11  C   UNL     1       4.071   3.719  17.591  0.00  0.00    +0.000 C 
BRANCH  11  12
ATOM     12  C   UNL     1       3.503   2.295  17.838  0.00  0.00    +0.000 C 
ATOM     13  C   UNL     1       3.750   1.735  19.241  0.00  0.00    +0.000 C 
ATOM     14  N   UNL     1       2.844   2.394  20.151  0.00  0.00    +0.000 N 
ATOM     15  N   UNL     1       3.135   2.596  21.442  0.00  0.00    +0.000 NA
ATOM     16  N   UNL     1       2.182   3.379  21.934  0.00  0.00    +0.000 NA
ATOM     17  C   UNL     1       1.302   3.669  20.924  0.00  0.00    +0.000 A 
ATOM     18  C   UNL     1       1.704   3.042  19.772  0.00  0.00    +0.000 A 
ATOM     19  C   UNL     1       1.244   3.048  18.372  0.00  0.00    +0.000 C 
ATOM     20  O   UNL     1       2.087   2.218  17.555  0.00  0.00    +0.000 OA
ENDBRANCH  11  12
ENDBRANCH   1  11
TORSDOF 5
ENDMDL
MODEL 9
REMARK VINA RESULT:      -6.8      1.321      1.666
REMARK  Name = 
REMARK  5 active torsions:
REMARK  status: ('A' for Active; 'I' for Inactive)
REMARK    1  A    between atoms: C_4  and  C_5
REMARK    2  A    between atoms: C_5  and  C_6
REMARK    3  A    between atoms: C_6  and  N_7
REMARK    4  A    between atoms: N_7  and  C_8
REMARK    5  A    between atoms: C_8  and  C_9
REMARK                            x       y       z     vdW  Elec       q    Type
REMARK                         _______ _______ _______ _____ _____    ______ ____
ROOT
ATOM      1  N   UNL     1       4.370   4.396  16.619  0.00  0.00    +0.000 NA
ATOM      2  H   UNL     1       3.783   4.769  15.870  0.00  0.00    +0.000 HD
ENDROOT
BRANCH   1   3
ATOM      3  C   UNL     1       5.426   3.584  15.994  0.00  0.00    +0.000 C 
BRANCH   3   4
ATOM      4  C   UNL     1       6.584   4.496  15.564  0.00  0.00    +0.000 C 
BRANCH   4   8
ATOM      5  C   UNL     1       8.071   6.897  18.826  0.00  0.00    +0.000 A 
ATOM      6  C   UNL     1       8.009   5.511  18.943  0.00  0.00    +0.000 A 
ATOM      7  C   UNL     1       7.532   4.739  17.886  0.00  0.00    +0.000 A 
ATOM      8  C   UNL     1       7.113   5.346  16.694  0.00  0.00    +0.000 A 
ATOM      9  C   UNL     1       7.190   6.741  16.578  0.00  0.00    +0.000 A 
ATOM     10  C   UNL     1       7.667   7.512  17.644  0.00  0.00    +0.000 A 
ENDBRANCH   4   8
ENDBRANCH   3   4
ENDBRANCH   1   3
BRANCH   1  11
ATOM     11  C   UNL     1       3.561   3.596  17.545  0.00  0.00    +0.000 C 
BRANCH  11  12
ATOM     12  C   UNL     1       2.098   4.101  17.674  0.00  0.00    +0.000 C 
ATOM     13  C   UNL     1       1.168   3.192  18.481  0.00  0.00    +0.000 C 
ATOM     14  N   UNL     1       1.485   3.359  19.880  0.00  0.00    +0.000 N 
ATOM     15  N   UNL     1       1.318   2.381  20.780  0.00  0.00    +0.000 NA
ATOM     16  N   UNL     1       1.872   2.801  21.911  0.00  0.00    +0.000 NA
ATOM     17  C   UNL     1       2.396   4.049  21.694  0.00  0.00    +0.000 A 
ATOM     18  C   UNL     1       2.153   4.429  20.398  0.00  0.00    +0.000 A 
ATOM     19  C   UNL     1       2.542   5.580  19.564  0.00  0.00    +0.000 C 
ATOM     20  O   UNL     1       2.031   5.436  18.227  0.00  0.00    +0.000 OA
ENDBRANCH  11  12
ENDBRANCH   1  11
TORSDOF 5
ENDMDL
