MODEL 1
REMARK VINA RESULT:      -8.1      0.000      0.000
REMARK  Name = 
REMARK  2 active torsions:
REMARK  status: ('A' for Active; 'I' for Inactive)
REMARK    1  A    between atoms: C_1  and  C_2
REMARK    2  A    between atoms: N_15  and  N_16
REMARK                            x       y       z     vdW  Elec       q    Type
REMARK                         _______ _______ _______ _____ _____    ______ ____
ROOT
ATOM      1  C   UNL     1       7.487   7.690  17.337  0.00  0.00    +0.000 C 
ATOM      2  C   UNL     1       6.527   6.536  17.306  0.00  0.00    +0.000 A 
ATOM      3  N   UNL     1       5.534   6.496  18.135  0.00  0.00    +0.000 NA
ATOM      4  N   UNL     1       4.664   5.422  18.094  0.00  0.00    +0.000 N 
ATOM      5  C   UNL     1       3.622   5.460  19.027  0.00  0.00    +0.000 A 
ATOM      6  O   UNL     1       3.441   6.350  19.856  0.00  0.00    +0.000 OA
ATOM      7  C   UNL     1       2.685   4.324  18.983  0.00  0.00    +0.000 A 
ATOM      8  C   UNL     1       1.610   4.244  19.880  0.00  0.00    +0.000 A 
ATOM      9  C   UNL     1       0.736   3.162  19.814  0.00  0.00    +0.000 A 
ATOM     10  C   UNL     1       0.934   2.169  18.855  0.00  0.00    +0.000 A 
ATOM     11  C   UNL     1       2.011   2.255  17.968  0.00  0.00    +0.000 A 
ATOM     12  C   UNL     1       2.901   3.333  18.028  0.00  0.00    +0.000 A 
ATOM     13  N   UNL     1       3.982   3.364  17.138  0.00  0.00    +0.000 NA
ATOM     14  C   UNL     1       4.809   4.363  17.210  0.00  0.00    +0.000 A 
ATOM     15  N   UNL     1       5.905   4.399  16.356  0.00  0.00    +0.000 N 
ATOM     16  C   UNL     1       6.785   5.466  16.283  0.00  0.00    +0.000 A 
ATOM     17  O   UNL     1       7.684   5.610  15.466  0.00  0.00    +0.000 OA
ENDROOT
BRANCH  15  18
ATOM     18  N   UNL     1       6.146   3.277  15.494  0.00  0.00    +0.000 N 
ATOM     19  H   UNL     1       5.252   2.787  15.392  0.00  0.00    +0.000 HD
ATOM     20  H   UNL     1       6.402   3.641  14.574  0.00  0.00    +0.000 HD
ENDBRANCH  15  18
TORSDOF 1
ENDMDL
MODEL 2
REMARK VINA RESULT:      -8.1      1.915      2.729
REMARK  Name = 
REMARK  2 active torsions:
REMARK  status: ('A' for Active; 'I' for Inactive)
REMARK    1  A    between atoms: C_1  and  C_2
REMARK    2  A    between atoms: N_15  and  N_16
REMARK                            x       y       z     vdW  Elec       q    Type
REMARK                         _______ _______ _______ _____ _____    ______ ____
ROOT
ATOM      1  C   UNL     1       6.286   4.329  14.220  0.00  0.00    +0.000 C 
ATOM      2  C   UNL     1       5.830   4.247  15.648  0.00  0.00    +0.000 A 
ATOM      3  N   UNL     1       4.598   3.961  15.920  0.00  0.00    +0.000 NA
ATOM      4  N   UNL     1       4.196   3.895  17.241  0.00  0.00    +0.000 N 
ATOM      5  C   UNL     1       2.847   3.582  17.442  0.00  0.00    +0.000 A 
ATOM      6  O   UNL     1       2.024   3.378  16.551  0.00  0.00    +0.000 OA
ATOM      7  C   UNL     1       2.414   3.500  18.847  0.00  0.00    +0.000 A 
ATOM      8  C   UNL     1       1.081   3.210  19.173  0.00  0.00    +0.000 A 
ATOM      9  C   UNL     1       0.698   3.133  20.510  0.00  0.00    +0.000 A 
ATOM     10  C   UNL     1       1.643   3.343  21.514  0.00  0.00    +0.000 A 
ATOM     11  C   UNL     1       2.969   3.636  21.180  0.00  0.00    +0.000 A 
ATOM     12  C   UNL     1       3.365   3.722  19.841  0.00  0.00    +0.000 A 
ATOM     13  N   UNL     1       4.696   4.047  19.553  0.00  0.00    +0.000 NA
ATOM     14  C   UNL     1       5.052   4.136  18.306  0.00  0.00    +0.000 A 
ATOM     15  N   UNL     1       6.361   4.485  17.997  0.00  0.00    +0.000 N 
ATOM     16  C   UNL     1       6.864   4.508  16.708  0.00  0.00    +0.000 A 
ATOM     17  O   UNL     1       8.033   4.678  16.387  0.00  0.00    +0.000 OA
ENDROOT
BRANCH  15  18
ATOM     18  N   UNL     1       7.251   4.839  19.065  0.00  0.00    +0.000 N 
ATOM     19  H   UNL     1       7.872   4.036  19.210  0.00  0.00    +0.000 HD
ATOM     20  H   UNL     1       7.829   5.618  18.744  0.00  0.00    +0.000 HD
ENDBRANCH  15  18
TORSDOF 1
ENDMDL
MODEL 3
REMARK VINA RESULT:      -7.5      1.787      3.032
REMARK  Name = 
REMARK  2 active torsions:
REMARK  status: ('A' for Active; 'I' for Inactive)
REMARK    1  A    between atoms: C_1  and  C_2
REMARK    2  A    between atoms: N_15  and  N_16
REMARK                            x       y       z     vdW  Elec       q    Type
REMARK                         _______ _______ _______ _____ _____    ______ ____
ROOT
ATOM      1  C   UNL     1       6.321   3.639  13.618  0.00  0.00    +0.000 C 
ATOM      2  C   UNL     1       5.808   4.229  14.899  0.00  0.00    +0.000 A 
ATOM      3  N   UNL     1       4.740   3.751  15.452  0.00  0.00    +0.000 NA
ATOM      4  N   UNL     1       4.280   4.311  16.629  0.00  0.00    +0.000 N 
ATOM      5  C   UNL     1       3.118   3.734  17.153  0.00  0.00    +0.000 A 
ATOM      6  O   UNL     1       2.498   2.799  16.649  0.00  0.00    +0.000 OA
ATOM      7  C   UNL     1       2.628   4.319  18.413  0.00  0.00    +0.000 A 
ATOM      8  C   UNL     1       1.464   3.834  19.026  0.00  0.00    +0.000 A 
ATOM      9  C   UNL     1       1.024   4.402  20.219  0.00  0.00    +0.000 A 
ATOM     10  C   UNL     1       1.747   5.445  20.797  0.00  0.00    +0.000 A 
ATOM     11  C   UNL     1       2.904   5.925  20.177  0.00  0.00    +0.000 A 
ATOM     12  C   UNL     1       3.353   5.368  18.975  0.00  0.00    +0.000 A 
ATOM     13  N   UNL     1       4.501   5.899  18.374  0.00  0.00    +0.000 NA
ATOM     14  C   UNL     1       4.903   5.383  17.252  0.00  0.00    +0.000 A 
ATOM     15  N   UNL     1       6.023   5.914  16.623  0.00  0.00    +0.000 N 
ATOM     16  C   UNL     1       6.590   5.373  15.482  0.00  0.00    +0.000 A 
ATOM     17  O   UNL     1       7.644   5.715  14.962  0.00  0.00    +0.000 OA
ENDROOT
BRANCH  15  18
ATOM     18  N   UNL     1       6.639   7.084  17.182  0.00  0.00    +0.000 N 
ATOM     19  H   UNL     1       6.615   7.805  16.455  0.00  0.00    +0.000 HD
ATOM     20  H   UNL     1       6.050   7.407  17.953  0.00  0.00    +0.000 HD
ENDBRANCH  15  18
TORSDOF 1
ENDMDL
MODEL 4
REMARK VINA RESULT:      -7.1      2.206      5.544
REMARK  Name = 
REMARK  2 active torsions:
REMARK  status: ('A' for Active; 'I' for Inactive)
REMARK    1  A    between atoms: C_1  and  C_2
REMARK    2  A    between atoms: N_15  and  N_16
REMARK                            x       y       z     vdW  Elec       q    Type
REMARK                         _______ _______ _______ _____ _____    ______ ____
ROOT
ATOM      1  C   UNL     1       0.571   2.939  18.581  0.00  0.00    +0.000 C 
ATOM      2  C   UNL     1       2.010   3.322  18.768  0.00  0.00    +0.000 A 
ATOM      3  N   UNL     1       2.468   4.406  18.228  0.00  0.00    +0.000 NA
ATOM      4  N   UNL     1       3.798   4.739  18.406  0.00  0.00    +0.000 N 
ATOM      5  C   UNL     1       4.206   5.925  17.785  0.00  0.00    +0.000 A 
ATOM      6  O   UNL     1       3.487   6.658  17.109  0.00  0.00    +0.000 OA
ATOM      7  C   UNL     1       5.620   6.291  17.979  0.00  0.00    +0.000 A 
ATOM      8  C   UNL     1       6.148   7.450  17.392  0.00  0.00    +0.000 A 
ATOM      9  C   UNL     1       7.487   7.777  17.596  0.00  0.00    +0.000 A 
ATOM     10  C   UNL     1       8.289   6.952  18.384  0.00  0.00    +0.000 A 
ATOM     11  C   UNL     1       7.755   5.797  18.962  0.00  0.00    +0.000 A 
ATOM     12  C   UNL     1       6.414   5.453  18.760  0.00  0.00    +0.000 A 
ATOM     13  N   UNL     1       5.928   4.272  19.334  0.00  0.00    +0.000 NA
ATOM     14  C   UNL     1       4.684   3.956  19.131  0.00  0.00    +0.000 A 
ATOM     15  N   UNL     1       4.188   2.774  19.668  0.00  0.00    +0.000 N 
ATOM     16  C   UNL     1       2.858   2.398  19.596  0.00  0.00    +0.000 A 
ATOM     17  O   UNL     1       2.342   1.441  20.157  0.00  0.00    +0.000 OA
ENDROOT
BRANCH  15  18
ATOM     18  N   UNL     1       5.095   1.888  20.341  0.00  0.00    +0.000 N 
ATOM     19  H   UNL     1       4.861   0.939  20.034  0.00  0.00    +0.000 HD
ATOM     20  H   UNL     1       6.038   2.094  20.005  0.00  0.00    +0.000 HD
ENDBRANCH  15  18
TORSDOF 1
ENDMDL
MODEL 5
REMARK VINA RESULT:      -7.0      2.067      3.124
REMARK  Name = 
REMARK  2 active torsions:
REMARK  status: ('A' for Active; 'I' for Inactive)
REMARK    1  A    between atoms: C_1  and  C_2
REMARK    2  A    between atoms: N_15  and  N_16
REMARK                            x       y       z     vdW  Elec       q    Type
REMARK                         _______ _______ _______ _____ _____    ______ ____
ROOT
ATOM      1  C   UNL     1       6.076   4.030  14.262  0.00  0.00    +0.000 C 
ATOM      2  C   UNL     1       5.330   4.368  15.520  0.00  0.00    +0.000 A 
ATOM      3  N   UNL     1       4.845   3.423  16.261  0.00  0.00    +0.000 NA
ATOM      4  N   UNL     1       4.157   3.754  17.413  0.00  0.00    +0.000 N 
ATOM      5  C   UNL     1       3.666   2.671  18.149  0.00  0.00    +0.000 A 
ATOM      6  O   UNL     1       3.795   1.486  17.845  0.00  0.00    +0.000 OA
ATOM      7  C   UNL     1       2.939   3.016  19.384  0.00  0.00    +0.000 A 
ATOM      8  C   UNL     1       2.388   2.015  20.197  0.00  0.00    +0.000 A 
ATOM      9  C   UNL     1       1.710   2.368  21.362  0.00  0.00    +0.000 A 
ATOM     10  C   UNL     1       1.589   3.713  21.711  0.00  0.00    +0.000 A 
ATOM     11  C   UNL     1       2.138   4.704  20.893  0.00  0.00    +0.000 A 
ATOM     12  C   UNL     1       2.815   4.364  19.717  0.00  0.00    +0.000 A 
ATOM     13  N   UNL     1       3.324   5.390  18.912  0.00  0.00    +0.000 NA
ATOM     14  C   UNL     1       3.942   5.064  17.817  0.00  0.00    +0.000 A 
ATOM     15  N   UNL     1       4.430   6.068  16.988  0.00  0.00    +0.000 N 
ATOM     16  C   UNL     1       5.188   5.826  15.855  0.00  0.00    +0.000 A 
ATOM     17  O   UNL     1       5.751   6.665  15.165  0.00  0.00    +0.000 OA
ENDROOT
BRANCH  15  18
ATOM     18  N   UNL     1       4.144   7.435  17.318  0.00  0.00    +0.000 N 
ATOM     19  H   UNL     1       4.181   7.964  16.442  0.00  0.00    +0.000 HD
ATOM     20  H   UNL     1       3.182   7.478  17.661  0.00  0.00    +0.000 HD
ENDBRANCH  15  18
TORSDOF 1
ENDMDL
MODEL 6
REMARK VINA RESULT:      -6.7      1.810      2.112
REMARK  Name = 
REMARK  2 active torsions:
REMARK  status: ('A' for Active; 'I' for Inactive)
REMARK    1  A    between atoms: C_1  and  C_2
REMARK    2  A    between atoms: N_15  and  N_16
REMARK                            x       y       z     vdW  Elec       q    Type
REMARK                         _______ _______ _______ _____ _____    ______ ____
ROOT
ATOM      1  C   UNL     1       5.256   7.059  14.915  0.00  0.00    +0.000 C 
ATOM      2  C   UNL     1       5.166   6.143  16.101  0.00  0.00    +0.000 A 
ATOM      3  N   UNL     1       4.020   5.910  16.654  0.00  0.00    +0.000 NA
ATOM      4  N   UNL     1       3.957   5.068  17.749  0.00  0.00    +0.000 N 
ATOM      5  C   UNL     1       2.679   4.876  18.284  0.00  0.00    +0.000 A 
ATOM      6  O   UNL     1       1.646   5.395  17.865  0.00  0.00    +0.000 OA
ATOM      7  C   UNL     1       2.603   3.971  19.445  0.00  0.00    +0.000 A 
ATOM      8  C   UNL     1       1.378   3.714  20.077  0.00  0.00    +0.000 A 
ATOM      9  C   UNL     1       1.333   2.851  21.170  0.00  0.00    +0.000 A 
ATOM     10  C   UNL     1       2.506   2.248  21.624  0.00  0.00    +0.000 A 
ATOM     11  C   UNL     1       3.723   2.514  20.991  0.00  0.00    +0.000 A 
ATOM     12  C   UNL     1       3.783   3.384  19.897  0.00  0.00    +0.000 A 
ATOM     13  N   UNL     1       5.028   3.644  19.311  0.00  0.00    +0.000 NA
ATOM     14  C   UNL     1       5.075   4.462  18.303  0.00  0.00    +0.000 A 
ATOM     15  N   UNL     1       6.304   4.756  17.725  0.00  0.00    +0.000 N 
ATOM     16  C   UNL     1       6.450   5.532  16.588  0.00  0.00    +0.000 A 
ATOM     17  O   UNL     1       7.485   5.717  15.962  0.00  0.00    +0.000 OA
ENDROOT
BRANCH  15  18
ATOM     18  N   UNL     1       7.495   4.228  18.327  0.00  0.00    +0.000 N 
ATOM     19  H   UNL     1       8.011   3.744  17.587  0.00  0.00    +0.000 HD
ATOM     20  H   UNL     1       8.067   5.019  18.631  0.00  0.00    +0.000 HD
ENDBRANCH  15  18
TORSDOF 1
ENDMDL
MODEL 7
REMARK VINA RESULT:      -6.6      3.631      5.951
REMARK  Name = 
REMARK  2 active torsions:
REMARK  status: ('A' for Active; 'I' for Inactive)
REMARK    1  A    between atoms: C_1  and  C_2
REMARK    2  A    between atoms: N_15  and  N_16
REMARK                            x       y       z     vdW  Elec       q    Type
REMARK                         _______ _______ _______ _____ _____    ______ ____
ROOT
ATOM      1  C   UNL     1      -0.354   8.994  22.099  0.00  0.00    +0.000 C 
ATOM      2  C   UNL     1       0.556   8.681  20.946  0.00  0.00    +0.000 A 
ATOM      3  N   UNL     1       1.197   7.558  20.913  0.00  0.00    +0.000 NA
ATOM      4  N   UNL     1       2.034   7.289  19.846  0.00  0.00    +0.000 N 
ATOM      5  C   UNL     1       2.688   6.054  19.894  0.00  0.00    +0.000 A 
ATOM      6  O   UNL     1       2.577   5.224  20.795  0.00  0.00    +0.000 OA
ATOM      7  C   UNL     1       3.574   5.757  18.755  0.00  0.00    +0.000 A 
ATOM      8  C   UNL     1       4.295   4.555  18.699  0.00  0.00    +0.000 A 
ATOM      9  C   UNL     1       5.123   4.297  17.609  0.00  0.00    +0.000 A 
ATOM     10  C   UNL     1       5.224   5.233  16.580  0.00  0.00    +0.000 A 
ATOM     11  C   UNL     1       4.505   6.430  16.646  0.00  0.00    +0.000 A 
ATOM     12  C   UNL     1       3.676   6.705  17.738  0.00  0.00    +0.000 A 
ATOM     13  N   UNL     1       2.996   7.928  17.776  0.00  0.00    +0.000 NA
ATOM     14  C   UNL     1       2.238   8.179  18.801  0.00  0.00    +0.000 A 
ATOM     15  N   UNL     1       1.577   9.399  18.873  0.00  0.00    +0.000 N 
ATOM     16  C   UNL     1       0.669   9.722  19.868  0.00  0.00    +0.000 A 
ATOM     17  O   UNL     1      -0.036  10.721  19.912  0.00  0.00    +0.000 OA
ENDROOT
BRANCH  15  18
ATOM     18  N   UNL     1       1.836  10.386  17.864  0.00  0.00    +0.000 N 
ATOM     19  H   UNL     1       1.836   9.895  16.965  0.00  0.00    +0.000 HD
ATOM     20  H   UNL     1       1.049  11.038  17.856  0.00  0.00    +0.000 HD
ENDBRANCH  15  18
TORSDOF 1
ENDMDL
MODEL 8
REMARK VINA RESULT:      -6.6      4.098      5.580
REMARK  Name = 
REMARK  2 active torsions:
REMARK  status: ('A' for Active; 'I' for Inactive)
REMARK    1  A    between atoms: C_1  and  C_2
REMARK    2  A    between atoms: N_15  and  N_16
REMARK                            x       y       z     vdW  Elec       q    Type
REMARK                         _______ _______ _______ _____ _____    ______ ____
ROOT
ATOM      1  C   UNL     1       4.601   5.180  16.708  0.00  0.00    +0.000 C 
ATOM      2  C   UNL     1       3.754   5.777  17.794  0.00  0.00    +0.000 A 
ATOM      3  N   UNL     1       3.262   6.965  17.654  0.00  0.00    +0.000 NA
ATOM      4  N   UNL     1       2.488   7.500  18.667  0.00  0.00    +0.000 N 
ATOM      5  C   UNL     1       2.000   8.790  18.431  0.00  0.00    +0.000 A 
ATOM      6  O   UNL     1       2.214   9.458  17.420  0.00  0.00    +0.000 OA
ATOM      7  C   UNL     1       1.167   9.362  19.503  0.00  0.00    +0.000 A 
ATOM      8  C   UNL     1       0.634  10.654  19.386  0.00  0.00    +0.000 A 
ATOM      9  C   UNL     1      -0.154  11.170  20.412  0.00  0.00    +0.000 A 
ATOM     10  C   UNL     1      -0.411  10.397  21.544  0.00  0.00    +0.000 A 
ATOM     11  C   UNL     1       0.128   9.112  21.653  0.00  0.00    +0.000 A 
ATOM     12  C   UNL     1       0.927   8.584  20.634  0.00  0.00    +0.000 A 
ATOM     13  N   UNL     1       1.469   7.303  20.798  0.00  0.00    +0.000 NA
ATOM     14  C   UNL     1       2.220   6.827  19.850  0.00  0.00    +0.000 A 
ATOM     15  N   UNL     1       2.792   5.570  20.005  0.00  0.00    +0.000 N 
ATOM     16  C   UNL     1       3.521   4.932  19.016  0.00  0.00    +0.000 A 
ATOM     17  O   UNL     1       3.934   3.781  19.046  0.00  0.00    +0.000 OA
ENDROOT
BRANCH  15  18
ATOM     18  N   UNL     1       2.620   4.882  21.253  0.00  0.00    +0.000 N 
ATOM     19  H   UNL     1       2.009   4.081  21.067  0.00  0.00    +0.000 HD
ATOM     20  H   UNL     1       3.531   4.514  21.533  0.00  0.00    +0.000 HD
ENDBRANCH  15  18
TORSDOF 1
ENDMDL
MODEL 9
REMARK VINA RESULT:      -6.6      3.167      4.928
REMARK  Name = 
REMARK  2 active torsions:
REMARK  status: ('A' for Active; 'I' for Inactive)
REMARK    1  A    between atoms: C_1  and  C_2
REMARK    2  A    between atoms: N_15  and  N_16
REMARK                            x       y       z     vdW  Elec       q    Type
REMARK                         _______ _______ _______ _____ _____    ______ ____
ROOT
ATOM      1  C   UNL     1       5.002   3.018  11.504  0.00  0.00    +0.000 C 
ATOM      2  C   UNL     1       5.675   3.659  12.683  0.00  0.00    +0.000 A 
ATOM      3  N   UNL     1       5.149   3.564  13.862  0.00  0.00    +0.000 NA
ATOM      4  N   UNL     1       5.781   4.165  14.934  0.00  0.00    +0.000 N 
ATOM      5  C   UNL     1       5.141   4.013  16.169  0.00  0.00    +0.000 A 
ATOM      6  O   UNL     1       4.086   3.408  16.354  0.00  0.00    +0.000 OA
ATOM      7  C   UNL     1       5.814   4.644  17.317  0.00  0.00    +0.000 A 
ATOM      8  C   UNL     1       5.259   4.572  18.603  0.00  0.00    +0.000 A 
ATOM      9  C   UNL     1       5.919   5.172  19.674  0.00  0.00    +0.000 A 
ATOM     10  C   UNL     1       7.126   5.836  19.459  0.00  0.00    +0.000 A 
ATOM     11  C   UNL     1       7.670   5.906  18.172  0.00  0.00    +0.000 A 
ATOM     12  C   UNL     1       7.015   5.314  17.088  0.00  0.00    +0.000 A 
ATOM     13  N   UNL     1       7.580   5.433  15.813  0.00  0.00    +0.000 NA
ATOM     14  C   UNL     1       6.959   4.889  14.810  0.00  0.00    +0.000 A 
ATOM     15  N   UNL     1       7.487   5.020  13.532  0.00  0.00    +0.000 N 
ATOM     16  C   UNL     1       6.958   4.394  12.415  0.00  0.00    +0.000 A 
ATOM     17  O   UNL     1       7.452   4.366  11.296  0.00  0.00    +0.000 OA
ENDROOT
BRANCH  15  18
ATOM     18  N   UNL     1       8.649   5.842  13.346  0.00  0.00    +0.000 N 
ATOM     19  H   UNL     1       8.336   6.691  12.867  0.00  0.00    +0.000 HD
ATOM     20  H   UNL     1       8.985   6.119  14.271  0.00  0.00    +0.000 HD
ENDBRANCH  15  18
TORSDOF 1
ENDMDL
