MODEL 1
REMARK VINA RESULT:      -7.8      0.000      0.000
REMARK  Name = 
REMARK  8 active torsions:
REMARK  status: ('A' for Active; 'I' for Inactive)
REMARK    1  A    between atoms: C_1  and  C_2
REMARK    2  A    between atoms: C_5  and  C_6
REMARK    3  A    between atoms: C_6  and  C_8
REMARK    4  A    between atoms: C_8  and  C_9
REMARK    5  A    between atoms: C_8  and  N_16
REMARK    6  A    between atoms: C_12  and  C_13
REMARK    7  A    between atoms: C_20  and  C_21
REMARK    8  A    between atoms: C_20  and  C_22
REMARK                            x       y       z     vdW  Elec       q    Type
REMARK                         _______ _______ _______ _____ _____    ______ ____
ROOT
ATOM      1  C   UNL     1      -0.798  12.079  20.389  0.00  0.00    +0.000 C 
ENDROOT
BRANCH   1   2
ATOM      2  N   UNL     1      -1.714  11.999  21.532  0.00  0.00    +0.000 N 
ATOM      3  C   UNL     1      -2.763  12.897  21.621  0.00  0.00    +0.000 C 
ATOM      4  O   UNL     1      -2.632  14.081  21.322  0.00  0.00    +0.000 OA
ATOM      5  N   UNL     1      -4.003  12.384  22.060  0.00  0.00    +0.000 N 
ATOM      6  C   UNL     1      -5.132  13.496  22.729  0.00  0.00    +0.000 C 
ATOM      7  C   UNL     1      -5.673  12.851  24.016  0.00  0.00    +0.000 C 
ATOM      8  C   UNL     1      -1.293  11.333  22.900  0.00  0.00    +0.000 C 
ATOM      9  O   UNL     1      -0.188  10.709  22.949  0.00  0.00    +0.000 OA
ATOM     10  H   UNL     1      -3.964  11.496  22.533  0.00  0.00    +0.000 HD
BRANCH   6  11
ATOM     11  C   UNL     1      -5.922  13.034  21.374  0.00  0.00    +0.000 A 
ATOM     12  C   UNL     1      -6.815  11.949  21.412  0.00  0.00    +0.000 A 
ATOM     13  C   UNL     1      -7.544  11.566  20.277  0.00  0.00    +0.000 A 
ATOM     14  C   UNL     1      -7.397  12.249  19.072  0.00  0.00    +0.000 A 
ATOM     15  C   UNL     1      -6.567  13.360  19.014  0.00  0.00    +0.000 A 
ATOM     16  C   UNL     1      -5.891  13.782  20.166  0.00  0.00    +0.000 A 
ENDBRANCH   6  11
ENDBRANCH   1   2
BRANCH   1  17
ATOM     17  C   UNL     1      -1.518  11.598  19.140  0.00  0.00    +0.000 A 
ATOM     18  C   UNL     1      -1.537  12.316  17.944  0.00  0.00    +0.000 A 
ATOM     19  C   UNL     1      -2.008  11.717  16.772  0.00  0.00    +0.000 A 
ATOM     20  C   UNL     1      -2.472  10.394  16.782  0.00  0.00    +0.000 A 
ATOM     21  C   UNL     1      -2.817   9.697  15.500  0.00  0.00    +0.000 C 
ATOM     22  C   UNL     1      -2.496   9.690  17.986  0.00  0.00    +0.000 A 
ATOM     23  C   UNL     1      -2.034  10.287  19.155  0.00  0.00    +0.000 A 
ENDBRANCH   1  17
BRANCH   1  24
ATOM     24  C   UNL     1       0.636  11.563  20.621  0.00  0.00    +0.000 C 
ATOM     25  O   UNL     1       1.454  12.136  21.342  0.00  0.00    +0.000 OA
BRANCH  24  30
ATOM     26  C   UNL     1       2.812   6.796  18.061  0.00  0.00    +0.000 C 
ATOM     27  C   UNL     1       2.130   8.001  18.663  0.00  0.00    +0.000 A 
ATOM     28  C   UNL     1       2.023   9.195  17.941  0.00  0.00    +0.000 A 
ATOM     29  C   UNL     1       1.497  10.347  18.541  0.00  0.00    +0.000 A 
ATOM     30  C   UNL     1       1.085  10.332  19.880  0.00  0.00    +0.000 A 
ATOM     31  C   UNL     1       1.135   9.114  20.582  0.00  0.00    +0.000 A 
ATOM     32  C   UNL     1       1.669   7.959  19.977  0.00  0.00    +0.000 A 
ENDBRANCH  24  30
ENDBRANCH   1  24
TORSDOF 5
ENDMDL
MODEL 2
REMARK VINA RESULT:      -7.8      2.991      5.438
REMARK  Name = 
REMARK  8 active torsions:
REMARK  status: ('A' for Active; 'I' for Inactive)
REMARK    1  A    between atoms: C_1  and  C_2
REMARK    2  A    between atoms: C_5  and  C_6
REMARK    3  A    between atoms: C_6  and  C_8
REMARK    4  A    between atoms: C_8  and  C_9
REMARK    5  A    between atoms: C_8  and  N_16
REMARK    6  A    between atoms: C_12  and  C_13
REMARK    7  A    between atoms: C_20  and  C_21
REMARK    8  A    between atoms: C_20  and  C_22
REMARK                            x       y       z     vdW  Elec       q    Type
REMARK                         _______ _______ _______ _____ _____    ______ ____
ROOT
ATOM      1  C   UNL     1      -0.118  11.183  19.569  0.00  0.00    +0.000 C 
ENDROOT
BRANCH   1   2
ATOM      2  N   UNL     1      -0.245  12.448  20.299  0.00  0.00    +0.000 N 
ATOM      3  C   UNL     1       0.894  13.179  20.590  0.00  0.00    +0.000 C 
ATOM      4  O   UNL     1       1.939  12.638  20.945  0.00  0.00    +0.000 OA
ATOM      5  N   UNL     1       0.805  14.580  20.444  0.00  0.00    +0.000 N 
ATOM      6  C   UNL     1       1.935  15.543  21.313  0.00  0.00    +0.000 C 
ATOM      7  C   UNL     1       1.131  16.679  21.968  0.00  0.00    +0.000 C 
ATOM      8  C   UNL     1      -1.488  12.766  21.219  0.00  0.00    +0.000 C 
ATOM      9  O   UNL     1      -2.475  11.966  21.191  0.00  0.00    +0.000 OA
ATOM     10  H   UNL     1      -0.128  14.956  20.417  0.00  0.00    +0.000 HD
BRANCH   6  11
ATOM     11  C   UNL     1       2.386  15.854  19.773  0.00  0.00    +0.000 A 
ATOM     12  C   UNL     1       1.755  16.878  19.044  0.00  0.00    +0.000 A 
ATOM     13  C   UNL     1       2.158  17.200  17.740  0.00  0.00    +0.000 A 
ATOM     14  C   UNL     1       3.196  16.506  17.125  0.00  0.00    +0.000 A 
ATOM     15  C   UNL     1       3.880  15.528  17.835  0.00  0.00    +0.000 A 
ATOM     16  C   UNL     1       3.520  15.255  19.160  0.00  0.00    +0.000 A 
ENDBRANCH   6  11
ENDBRANCH   1   2
BRANCH   1  17
ATOM     17  C   UNL     1      -1.244  11.079  18.554  0.00  0.00    +0.000 A 
ATOM     18  C   UNL     1      -1.479  12.043  17.572  0.00  0.00    +0.000 A 
ATOM     19  C   UNL     1      -2.371  11.778  16.528  0.00  0.00    +0.000 A 
ATOM     20  C   UNL     1      -3.042  10.550  16.455  0.00  0.00    +0.000 A 
ATOM     21  C   UNL     1      -3.865  10.200  15.251  0.00  0.00    +0.000 C 
ATOM     22  C   UNL     1      -2.843   9.604  17.460  0.00  0.00    +0.000 A 
ATOM     23  C   UNL     1      -1.961   9.868  18.505  0.00  0.00    +0.000 A 
ENDBRANCH   1  17
BRANCH   1  24
ATOM     24  C   UNL     1       0.190   9.931  20.414  0.00  0.00    +0.000 C 
ATOM     25  O   UNL     1      -0.267   9.746  21.544  0.00  0.00    +0.000 OA
BRANCH  24  30
ATOM     26  C   UNL     1       3.517   5.838  17.927  0.00  0.00    +0.000 C 
ATOM     27  C   UNL     1       2.769   6.944  18.630  0.00  0.00    +0.000 A 
ATOM     28  C   UNL     1       2.332   6.783  19.950  0.00  0.00    +0.000 A 
ATOM     29  C   UNL     1       1.537   7.761  20.563  0.00  0.00    +0.000 A 
ATOM     30  C   UNL     1       1.148   8.909  19.862  0.00  0.00    +0.000 A 
ATOM     31  C   UNL     1       1.641   9.096  18.558  0.00  0.00    +0.000 A 
ATOM     32  C   UNL     1       2.437   8.110  17.943  0.00  0.00    +0.000 A 
ENDBRANCH  24  30
ENDBRANCH   1  24
TORSDOF 5
ENDMDL
MODEL 3
REMARK VINA RESULT:      -7.8      0.535      1.017
REMARK  Name = 
REMARK  8 active torsions:
REMARK  status: ('A' for Active; 'I' for Inactive)
REMARK    1  A    between atoms: C_1  and  C_2
REMARK    2  A    between atoms: C_5  and  C_6
REMARK    3  A    between atoms: C_6  and  C_8
REMARK    4  A    between atoms: C_8  and  C_9
REMARK    5  A    between atoms: C_8  and  N_16
REMARK    6  A    between atoms: C_12  and  C_13
REMARK    7  A    between atoms: C_20  and  C_21
REMARK    8  A    between atoms: C_20  and  C_22
REMARK                            x       y       z     vdW  Elec       q    Type
REMARK                         _______ _______ _______ _____ _____    ______ ____
ROOT
ATOM      1  C   UNL     1      -0.631  11.811  20.159  0.00  0.00    +0.000 C 
ENDROOT
BRANCH   1   2
ATOM      2  N   UNL     1      -1.596  11.855  21.261  0.00  0.00    +0.000 N 
ATOM      3  C   UNL     1      -2.660  12.738  21.194  0.00  0.00    +0.000 C 
ATOM      4  O   UNL     1      -2.529  13.879  20.758  0.00  0.00    +0.000 OA
ATOM      5  N   UNL     1      -3.911  12.261  21.638  0.00  0.00    +0.000 N 
ATOM      6  C   UNL     1      -5.083  13.427  22.116  0.00  0.00    +0.000 C 
ATOM      7  C   UNL     1      -5.674  12.934  23.448  0.00  0.00    +0.000 C 
ATOM      8  C   UNL     1      -1.231  11.368  22.718  0.00  0.00    +0.000 C 
ATOM      9  O   UNL     1      -0.121  10.773  22.891  0.00  0.00    +0.000 OA
ATOM     10  H   UNL     1      -3.883  11.439  22.217  0.00  0.00    +0.000 HD
BRANCH   6  11
ATOM     11  C   UNL     1      -5.805  12.790  20.795  0.00  0.00    +0.000 A 
ATOM     12  C   UNL     1      -6.759  11.767  20.934  0.00  0.00    +0.000 A 
ATOM     13  C   UNL     1      -7.431  11.240  19.822  0.00  0.00    +0.000 A 
ATOM     14  C   UNL     1      -7.164  11.714  18.540  0.00  0.00    +0.000 A 
ATOM     15  C   UNL     1      -6.269  12.761  18.371  0.00  0.00    +0.000 A 
ATOM     16  C   UNL     1      -5.650  13.332  19.489  0.00  0.00    +0.000 A 
ENDBRANCH   6  11
ENDBRANCH   1   2
BRANCH   1  17
ATOM     17  C   UNL     1      -1.317  11.261  18.919  0.00  0.00    +0.000 A 
ATOM     18  C   UNL     1      -2.045  10.070  18.912  0.00  0.00    +0.000 A 
ATOM     19  C   UNL     1      -2.844   9.741  17.813  0.00  0.00    +0.000 A 
ATOM     20  C   UNL     1      -2.922  10.596  16.705  0.00  0.00    +0.000 A 
ATOM     21  C   UNL     1      -3.905  10.330  15.605  0.00  0.00    +0.000 C 
ATOM     22  C   UNL     1      -2.161  11.764  16.691  0.00  0.00    +0.000 A 
ATOM     23  C   UNL     1      -1.358  12.090  17.781  0.00  0.00    +0.000 A 
ENDBRANCH   1  17
BRANCH   1  24
ATOM     24  C   UNL     1       0.770  11.261  20.494  0.00  0.00    +0.000 C 
ATOM     25  O   UNL     1       1.559  11.831  21.249  0.00  0.00    +0.000 OA
BRANCH  24  30
ATOM     26  C   UNL     1       2.980   6.390  18.172  0.00  0.00    +0.000 C 
ATOM     27  C   UNL     1       2.290   7.617  18.716  0.00  0.00    +0.000 A 
ATOM     28  C   UNL     1       2.160   8.768  17.932  0.00  0.00    +0.000 A 
ATOM     29  C   UNL     1       1.625   9.945  18.474  0.00  0.00    +0.000 A 
ATOM     30  C   UNL     1       1.227   9.997  19.816  0.00  0.00    +0.000 A 
ATOM     31  C   UNL     1       1.300   8.821  20.582  0.00  0.00    +0.000 A 
ATOM     32  C   UNL     1       1.843   7.640  20.035  0.00  0.00    +0.000 A 
ENDBRANCH  24  30
ENDBRANCH   1  24
TORSDOF 5
ENDMDL
MODEL 4
REMARK VINA RESULT:      -7.7      2.787      7.597
REMARK  Name = 
REMARK  8 active torsions:
REMARK  status: ('A' for Active; 'I' for Inactive)
REMARK    1  A    between atoms: C_1  and  C_2
REMARK    2  A    between atoms: C_5  and  C_6
REMARK    3  A    between atoms: C_6  and  C_8
REMARK    4  A    between atoms: C_8  and  C_9
REMARK    5  A    between atoms: C_8  and  N_16
REMARK    6  A    between atoms: C_12  and  C_13
REMARK    7  A    between atoms: C_20  and  C_21
REMARK    8  A    between atoms: C_20  and  C_22
REMARK                            x       y       z     vdW  Elec       q    Type
REMARK                         _______ _______ _______ _____ _____    ______ ____
ROOT
ATOM      1  C   UNL     1       0.185  10.022  19.881  0.00  0.00    +0.000 C 
ENDROOT
BRANCH   1   2
ATOM      2  N   UNL     1       1.316   9.465  19.133  0.00  0.00    +0.000 N 
ATOM      3  C   UNL     1       2.010   8.388  19.657  0.00  0.00    +0.000 C 
ATOM      4  O   UNL     1       2.270   8.305  20.855  0.00  0.00    +0.000 OA
ATOM      5  N   UNL     1       2.395   7.378  18.750  0.00  0.00    +0.000 N 
ATOM      6  C   UNL     1       3.705   6.359  19.204  0.00  0.00    +0.000 C 
ATOM      7  C   UNL     1       4.629   6.261  17.978  0.00  0.00    +0.000 C 
ATOM      8  C   UNL     1       2.114  10.311  18.064  0.00  0.00    +0.000 C 
ATOM      9  O   UNL     1       1.655  11.449  17.735  0.00  0.00    +0.000 OA
ATOM     10  H   UNL     1       2.389   7.640  17.778  0.00  0.00    +0.000 HD
BRANCH   6  11
ATOM     11  C   UNL     1       2.472   5.286  19.191  0.00  0.00    +0.000 A 
ATOM     12  C   UNL     1       2.106   4.644  17.996  0.00  0.00    +0.000 A 
ATOM     13  C   UNL     1       1.086   3.681  17.968  0.00  0.00    +0.000 A 
ATOM     14  C   UNL     1       0.401   3.338  19.130  0.00  0.00    +0.000 A 
ATOM     15  C   UNL     1       0.774   3.910  20.338  0.00  0.00    +0.000 A 
ATOM     16  C   UNL     1       1.837   4.821  20.375  0.00  0.00    +0.000 A 
ENDBRANCH   6  11
ENDBRANCH   1   2
BRANCH   1  17
ATOM     17  C   UNL     1      -0.981  10.238  18.932  0.00  0.00    +0.000 A 
ATOM     18  C   UNL     1      -1.867  11.312  19.040  0.00  0.00    +0.000 A 
ATOM     19  C   UNL     1      -2.767  11.588  18.006  0.00  0.00    +0.000 A 
ATOM     20  C   UNL     1      -2.797  10.791  16.853  0.00  0.00    +0.000 A 
ATOM     21  C   UNL     1      -3.638  11.184  15.676  0.00  0.00    +0.000 C 
ATOM     22  C   UNL     1      -1.944   9.691  16.764  0.00  0.00    +0.000 A 
ATOM     23  C   UNL     1      -1.053   9.410  17.795  0.00  0.00    +0.000 A 
ENDBRANCH   1  17
BRANCH   1  24
ATOM     24  C   UNL     1       0.510  11.157  20.872  0.00  0.00    +0.000 C 
ATOM     25  O   UNL     1       1.639  11.629  21.017  0.00  0.00    +0.000 OA
BRANCH  24  30
ATOM     26  C   UNL     1      -4.084  12.812  24.061  0.00  0.00    +0.000 C 
ATOM     27  C   UNL     1      -2.817  12.451  23.324  0.00  0.00    +0.000 A 
ATOM     28  C   UNL     1      -2.255  13.336  22.396  0.00  0.00    +0.000 A 
ATOM     29  C   UNL     1      -1.147  12.955  21.627  0.00  0.00    +0.000 A 
ATOM     30  C   UNL     1      -0.592  11.675  21.758  0.00  0.00    +0.000 A 
ATOM     31  C   UNL     1      -1.120  10.813  22.735  0.00  0.00    +0.000 A 
ATOM     32  C   UNL     1      -2.237  11.197  23.504  0.00  0.00    +0.000 A 
ENDBRANCH  24  30
ENDBRANCH   1  24
TORSDOF 5
ENDMDL
MODEL 5
REMARK VINA RESULT:      -7.6      1.899      4.275
REMARK  Name = 
REMARK  8 active torsions:
REMARK  status: ('A' for Active; 'I' for Inactive)
REMARK    1  A    between atoms: C_1  and  C_2
REMARK    2  A    between atoms: C_5  and  C_6
REMARK    3  A    between atoms: C_6  and  C_8
REMARK    4  A    between atoms: C_8  and  C_9
REMARK    5  A    between atoms: C_8  and  N_16
REMARK    6  A    between atoms: C_12  and  C_13
REMARK    7  A    between atoms: C_20  and  C_21
REMARK    8  A    between atoms: C_20  and  C_22
REMARK                            x       y       z     vdW  Elec       q    Type
REMARK                         _______ _______ _______ _____ _____    ______ ____
ROOT
ATOM      1  C   UNL     1      -0.898  11.519  20.479  0.00  0.00    +0.000 C 
ENDROOT
BRANCH   1   2
ATOM      2  N   UNL     1      -1.418  11.888  19.159  0.00  0.00    +0.000 N 
ATOM      3  C   UNL     1      -2.395  11.101  18.574  0.00  0.00    +0.000 C 
ATOM      4  O   UNL     1      -2.368   9.875  18.642  0.00  0.00    +0.000 OA
ATOM      5  N   UNL     1      -3.437  11.776  17.902  0.00  0.00    +0.000 N 
ATOM      6  C   UNL     1      -4.313  10.900  16.708  0.00  0.00    +0.000 C 
ATOM      7  C   UNL     1      -4.429  11.823  15.484  0.00  0.00    +0.000 C 
ATOM      8  C   UNL     1      -0.595  12.781  18.151  0.00  0.00    +0.000 C 
ATOM      9  O   UNL     1       0.476  13.324  18.567  0.00  0.00    +0.000 OA
ATOM     10  H   UNL     1      -3.249  12.734  17.660  0.00  0.00    +0.000 HD
BRANCH   6  11
ATOM     11  C   UNL     1      -5.477  11.138  17.830  0.00  0.00    +0.000 A 
ATOM     12  C   UNL     1      -6.181  12.354  17.872  0.00  0.00    +0.000 A 
ATOM     13  C   UNL     1      -7.220  12.564  18.791  0.00  0.00    +0.000 A 
ATOM     14  C   UNL     1      -7.580  11.569  19.696  0.00  0.00    +0.000 A 
ATOM     15  C   UNL     1      -6.945  10.336  19.646  0.00  0.00    +0.000 A 
ATOM     16  C   UNL     1      -5.954  10.105  18.683  0.00  0.00    +0.000 A 
ENDBRANCH   6  11
ENDBRANCH   1   2
BRANCH   1  17
ATOM     17  C   UNL     1      -1.451  12.481  21.518  0.00  0.00    +0.000 A 
ATOM     18  C   UNL     1      -1.632  13.844  21.278  0.00  0.00    +0.000 A 
ATOM     19  C   UNL     1      -2.361  14.626  22.180  0.00  0.00    +0.000 A 
ATOM     20  C   UNL     1      -2.912  14.055  23.336  0.00  0.00    +0.000 A 
ATOM     21  C   UNL     1      -3.832  14.850  24.214  0.00  0.00    +0.000 C 
ATOM     22  C   UNL     1      -2.693  12.704  23.600  0.00  0.00    +0.000 A 
ATOM     23  C   UNL     1      -1.962  11.926  22.707  0.00  0.00    +0.000 A 
ENDBRANCH   1  17
BRANCH   1  24
ATOM     24  C   UNL     1       0.605  11.184  20.556  0.00  0.00    +0.000 C 
ATOM     25  O   UNL     1       1.433  11.905  21.115  0.00  0.00    +0.000 OA
BRANCH  24  30
ATOM     26  C   UNL     1       2.987   6.452  18.118  0.00  0.00    +0.000 C 
ATOM     27  C   UNL     1       2.251   7.634  18.701  0.00  0.00    +0.000 A 
ATOM     28  C   UNL     1       1.978   8.761  17.918  0.00  0.00    +0.000 A 
ATOM     29  C   UNL     1       1.400   9.904  18.488  0.00  0.00    +0.000 A 
ATOM     30  C   UNL     1       1.102   9.947  19.856  0.00  0.00    +0.000 A 
ATOM     31  C   UNL     1       1.319   8.790  20.626  0.00  0.00    +0.000 A 
ATOM     32  C   UNL     1       1.904   7.645  20.050  0.00  0.00    +0.000 A 
ENDBRANCH  24  30
ENDBRANCH   1  24
TORSDOF 5
ENDMDL
MODEL 6
REMARK VINA RESULT:      -7.5      2.577      4.380
REMARK  Name = 
REMARK  8 active torsions:
REMARK  status: ('A' for Active; 'I' for Inactive)
REMARK    1  A    between atoms: C_1  and  C_2
REMARK    2  A    between atoms: C_5  and  C_6
REMARK    3  A    between atoms: C_6  and  C_8
REMARK    4  A    between atoms: C_8  and  C_9
REMARK    5  A    between atoms: C_8  and  N_16
REMARK    6  A    between atoms: C_12  and  C_13
REMARK    7  A    between atoms: C_20  and  C_21
REMARK    8  A    between atoms: C_20  and  C_22
REMARK                            x       y       z     vdW  Elec       q    Type
REMARK                         _______ _______ _______ _____ _____    ______ ____
ROOT
ATOM      1  C   UNL     1      -1.073  13.260  20.765  0.00  0.00    +0.000 C 
ENDROOT
BRANCH   1   2
ATOM      2  N   UNL     1      -2.087  12.856  21.743  0.00  0.00    +0.000 N 
ATOM      3  C   UNL     1      -3.276  13.560  21.815  0.00  0.00    +0.000 C 
ATOM      4  O   UNL     1      -3.312  14.784  21.714  0.00  0.00    +0.000 OA
ATOM      5  N   UNL     1      -4.453  12.803  21.996  0.00  0.00    +0.000 N 
ATOM      6  C   UNL     1      -5.823  13.608  22.656  0.00  0.00    +0.000 C 
ATOM      7  C   UNL     1      -6.392  12.684  23.746  0.00  0.00    +0.000 C 
ATOM      8  C   UNL     1      -1.720  12.040  23.044  0.00  0.00    +0.000 C 
ATOM      9  O   UNL     1      -0.538  11.587  23.155  0.00  0.00    +0.000 OA
ATOM     10  H   UNL     1      -4.319  11.865  22.335  0.00  0.00    +0.000 HD
BRANCH   6  11
ATOM     11  C   UNL     1      -6.362  13.268  21.151  0.00  0.00    +0.000 A 
ATOM     12  C   UNL     1      -6.911  12.005  20.865  0.00  0.00    +0.000 A 
ATOM     13  C   UNL     1      -7.428  11.705  19.597  0.00  0.00    +0.000 A 
ATOM     14  C   UNL     1      -7.407  12.654  18.578  0.00  0.00    +0.000 A 
ATOM     15  C   UNL     1      -6.926  13.929  18.841  0.00  0.00    +0.000 A 
ATOM     16  C   UNL     1      -6.471  14.247  20.126  0.00  0.00    +0.000 A 
ENDBRANCH   6  11
ENDBRANCH   1   2
BRANCH   1  17
ATOM     17  C   UNL     1      -0.469  12.017  20.132  0.00  0.00    +0.000 A 
ATOM     18  C   UNL     1      -1.227  11.051  19.469  0.00  0.00    +0.000 A 
ATOM     19  C   UNL     1      -0.595  10.062  18.708  0.00  0.00    +0.000 A 
ATOM     20  C   UNL     1       0.803  10.024  18.605  0.00  0.00    +0.000 A 
ATOM     21  C   UNL     1       1.471   9.073  17.658  0.00  0.00    +0.000 C 
ATOM     22  C   UNL     1       1.563  10.961  19.304  0.00  0.00    +0.000 A 
ATOM     23  C   UNL     1       0.937  11.942  20.068  0.00  0.00    +0.000 A 
ENDBRANCH   1  17
BRANCH   1  24
ATOM     24  C   UNL     1      -0.101  14.373  21.203  0.00  0.00    +0.000 C 
ATOM     25  O   UNL     1       0.373  14.452  22.338  0.00  0.00    +0.000 OA
BRANCH  24  30
ATOM     26  C   UNL     1       1.129  18.222  16.998  0.00  0.00    +0.000 C 
ATOM     27  C   UNL     1       0.803  17.331  18.172  0.00  0.00    +0.000 A 
ATOM     28  C   UNL     1       1.811  16.900  19.041  0.00  0.00    +0.000 A 
ATOM     29  C   UNL     1       1.530  15.980  20.060  0.00  0.00    +0.000 A 
ATOM     30  C   UNL     1       0.239  15.460  20.218  0.00  0.00    +0.000 A 
ATOM     31  C   UNL     1      -0.784  15.943  19.383  0.00  0.00    +0.000 A 
ATOM     32  C   UNL     1      -0.497  16.865  18.356  0.00  0.00    +0.000 A 
ENDBRANCH  24  30
ENDBRANCH   1  24
TORSDOF 5
ENDMDL
MODEL 7
REMARK VINA RESULT:      -7.5      2.179      3.534
REMARK  Name = 
REMARK  8 active torsions:
REMARK  status: ('A' for Active; 'I' for Inactive)
REMARK    1  A    between atoms: C_1  and  C_2
REMARK    2  A    between atoms: C_5  and  C_6
REMARK    3  A    between atoms: C_6  and  C_8
REMARK    4  A    between atoms: C_8  and  C_9
REMARK    5  A    between atoms: C_8  and  N_16
REMARK    6  A    between atoms: C_12  and  C_13
REMARK    7  A    between atoms: C_20  and  C_21
REMARK    8  A    between atoms: C_20  and  C_22
REMARK                            x       y       z     vdW  Elec       q    Type
REMARK                         _______ _______ _______ _____ _____    ______ ____
ROOT
ATOM      1  C   UNL     1      -1.117  12.904  21.012  0.00  0.00    +0.000 C 
ENDROOT
BRANCH   1   2
ATOM      2  N   UNL     1      -2.216  12.506  21.897  0.00  0.00    +0.000 N 
ATOM      3  C   UNL     1      -3.383  13.249  21.903  0.00  0.00    +0.000 C 
ATOM      4  O   UNL     1      -3.372  14.476  21.841  0.00  0.00    +0.000 OA
ATOM      5  N   UNL     1      -4.595  12.529  21.969  0.00  0.00    +0.000 N 
ATOM      6  C   UNL     1      -5.984  13.362  22.551  0.00  0.00    +0.000 C 
ATOM      7  C   UNL     1      -6.665  12.425  23.563  0.00  0.00    +0.000 C 
ATOM      8  C   UNL     1      -1.977  11.637  23.194  0.00  0.00    +0.000 C 
ATOM      9  O   UNL     1      -0.823  11.139  23.379  0.00  0.00    +0.000 OA
ATOM     10  H   UNL     1      -4.519  11.577  22.285  0.00  0.00    +0.000 HD
BRANCH   6  11
ATOM     11  C   UNL     1      -6.418  13.087  20.999  0.00  0.00    +0.000 A 
ATOM     12  C   UNL     1      -6.949  11.841  20.623  0.00  0.00    +0.000 A 
ATOM     13  C   UNL     1      -7.377  11.597  19.310  0.00  0.00    +0.000 A 
ATOM     14  C   UNL     1      -7.282  12.587  18.335  0.00  0.00    +0.000 A 
ATOM     15  C   UNL     1      -6.816  13.847  18.684  0.00  0.00    +0.000 A 
ATOM     16  C   UNL     1      -6.452  14.109  20.011  0.00  0.00    +0.000 A 
ENDBRANCH   6  11
ENDBRANCH   1   2
BRANCH   1  17
ATOM     17  C   UNL     1      -0.647  11.691  20.227  0.00  0.00    +0.000 A 
ATOM     18  C   UNL     1      -1.222  11.291  19.020  0.00  0.00    +0.000 A 
ATOM     19  C   UNL     1      -0.598  10.319  18.232  0.00  0.00    +0.000 A 
ATOM     20  C   UNL     1       0.607   9.731  18.643  0.00  0.00    +0.000 A 
ATOM     21  C   UNL     1       1.362   8.818  17.725  0.00  0.00    +0.000 C 
ATOM     22  C   UNL     1       1.159  10.097  19.870  0.00  0.00    +0.000 A 
ATOM     23  C   UNL     1       0.535  11.058  20.660  0.00  0.00    +0.000 A 
ENDBRANCH   1  17
BRANCH   1  24
ATOM     24  C   UNL     1      -0.034  13.811  21.628  0.00  0.00    +0.000 C 
ATOM     25  O   UNL     1      -0.064  14.208  22.794  0.00  0.00    +0.000 OA
BRANCH  24  30
ATOM     26  C   UNL     1       4.146  15.312  17.849  0.00  0.00    +0.000 C 
ATOM     27  C   UNL     1       3.093  15.038  18.895  0.00  0.00    +0.000 A 
ATOM     28  C   UNL     1       3.433  14.422  20.104  0.00  0.00    +0.000 A 
ATOM     29  C   UNL     1       2.440  14.060  21.025  0.00  0.00    +0.000 A 
ATOM     30  C   UNL     1       1.087  14.292  20.746  0.00  0.00    +0.000 A 
ATOM     31  C   UNL     1       0.755  14.968  19.558  0.00  0.00    +0.000 A 
ATOM     32  C   UNL     1       1.755  15.326  18.632  0.00  0.00    +0.000 A 
ENDBRANCH  24  30
ENDBRANCH   1  24
TORSDOF 5
ENDMDL
MODEL 8
REMARK VINA RESULT:      -7.5      3.083      5.341
REMARK  Name = 
REMARK  8 active torsions:
REMARK  status: ('A' for Active; 'I' for Inactive)
REMARK    1  A    between atoms: C_1  and  C_2
REMARK    2  A    between atoms: C_5  and  C_6
REMARK    3  A    between atoms: C_6  and  C_8
REMARK    4  A    between atoms: C_8  and  C_9
REMARK    5  A    between atoms: C_8  and  N_16
REMARK    6  A    between atoms: C_12  and  C_13
REMARK    7  A    between atoms: C_20  and  C_21
REMARK    8  A    between atoms: C_20  and  C_22
REMARK                            x       y       z     vdW  Elec       q    Type
REMARK                         _______ _______ _______ _____ _____    ______ ____
ROOT
ATOM      1  C   UNL     1       0.284  11.372  19.726  0.00  0.00    +0.000 C 
ENDROOT
BRANCH   1   2
ATOM      2  N   UNL     1       0.121  12.589  20.528  0.00  0.00    +0.000 N 
ATOM      3  C   UNL     1       1.218  13.401  20.755  0.00  0.00    +0.000 C 
ATOM      4  O   UNL     1       2.331  12.938  20.991  0.00  0.00    +0.000 OA
ATOM      5  N   UNL     1       1.001  14.794  20.689  0.00  0.00    +0.000 N 
ATOM      6  C   UNL     1       2.123  15.813  21.505  0.00  0.00    +0.000 C 
ATOM      7  C   UNL     1       1.291  16.846  22.284  0.00  0.00    +0.000 C 
ATOM      8  C   UNL     1      -1.056  12.758  21.567  0.00  0.00    +0.000 C 
ATOM      9  O   UNL     1      -1.972  11.878  21.584  0.00  0.00    +0.000 OA
ATOM     10  H   UNL     1       0.042  15.090  20.763  0.00  0.00    +0.000 HD
BRANCH   6  11
ATOM     11  C   UNL     1       2.404  16.229  19.949  0.00  0.00    +0.000 A 
ATOM     12  C   UNL     1       3.507  15.692  19.262  0.00  0.00    +0.000 A 
ATOM     13  C   UNL     1       3.741  15.991  17.912  0.00  0.00    +0.000 A 
ATOM     14  C   UNL     1       2.886  16.839  17.213  0.00  0.00    +0.000 A 
ATOM     15  C   UNL     1       1.756  17.341  17.843  0.00  0.00    +0.000 A 
ATOM     16  C   UNL     1       1.488  16.987  19.171  0.00  0.00    +0.000 A 
ENDBRANCH   6  11
ENDBRANCH   1   2
BRANCH   1  17
ATOM     17  C   UNL     1      -0.900  11.235  18.783  0.00  0.00    +0.000 A 
ATOM     18  C   UNL     1      -1.229  12.194  17.823  0.00  0.00    +0.000 A 
ATOM     19  C   UNL     1      -2.175  11.904  16.836  0.00  0.00    +0.000 A 
ATOM     20  C   UNL     1      -2.809  10.653  16.799  0.00  0.00    +0.000 A 
ATOM     21  C   UNL     1      -3.694  10.281  15.647  0.00  0.00    +0.000 C 
ATOM     22  C   UNL     1      -2.515   9.711  17.784  0.00  0.00    +0.000 A 
ATOM     23  C   UNL     1      -1.579  10.001  18.773  0.00  0.00    +0.000 A 
ENDBRANCH   1  17
BRANCH   1  24
ATOM     24  C   UNL     1       0.736  10.107  20.482  0.00  0.00    +0.000 C 
ATOM     25  O   UNL     1       0.624   9.969  21.701  0.00  0.00    +0.000 OA
BRANCH  24  30
ATOM     26  C   UNL     1       3.770   5.914  17.793  0.00  0.00    +0.000 C 
ATOM     27  C   UNL     1       2.875   6.953  18.425  0.00  0.00    +0.000 A 
ATOM     28  C   UNL     1       2.573   8.140  17.749  0.00  0.00    +0.000 A 
ATOM     29  C   UNL     1       1.840   9.154  18.379  0.00  0.00    +0.000 A 
ATOM     30  C   UNL     1       1.410   9.008  19.704  0.00  0.00    +0.000 A 
ATOM     31  C   UNL     1       1.661   7.789  20.358  0.00  0.00    +0.000 A 
ATOM     32  C   UNL     1       2.402   6.772  19.723  0.00  0.00    +0.000 A 
ENDBRANCH  24  30
ENDBRANCH   1  24
TORSDOF 5
ENDMDL
MODEL 9
REMARK VINA RESULT:      -7.4      2.772      7.689
REMARK  Name = 
REMARK  8 active torsions:
REMARK  status: ('A' for Active; 'I' for Inactive)
REMARK    1  A    between atoms: C_1  and  C_2
REMARK    2  A    between atoms: C_5  and  C_6
REMARK    3  A    between atoms: C_6  and  C_8
REMARK    4  A    between atoms: C_8  and  C_9
REMARK    5  A    between atoms: C_8  and  N_16
REMARK    6  A    between atoms: C_12  and  C_13
REMARK    7  A    between atoms: C_20  and  C_21
REMARK    8  A    between atoms: C_20  and  C_22
REMARK                            x       y       z     vdW  Elec       q    Type
REMARK                         _______ _______ _______ _____ _____    ______ ____
ROOT
ATOM      1  C   UNL     1       0.191  10.016  19.810  0.00  0.00    +0.000 C 
ENDROOT
BRANCH   1   2
ATOM      2  N   UNL     1       1.338   9.446  19.096  0.00  0.00    +0.000 N 
ATOM      3  C   UNL     1       2.007   8.365  19.644  0.00  0.00    +0.000 C 
ATOM      4  O   UNL     1       2.231   8.285  20.849  0.00  0.00    +0.000 OA
ATOM      5  N   UNL     1       2.408   7.348  18.753  0.00  0.00    +0.000 N 
ATOM      6  C   UNL     1       3.696   6.319  19.248  0.00  0.00    +0.000 C 
ATOM      7  C   UNL     1       4.654   6.208  18.049  0.00  0.00    +0.000 C 
ATOM      8  C   UNL     1       2.173  10.280  18.048  0.00  0.00    +0.000 C 
ATOM      9  O   UNL     1       1.734  11.421  17.701  0.00  0.00    +0.000 OA
ATOM     10  H   UNL     1       2.433   7.606  17.780  0.00  0.00    +0.000 HD
BRANCH   6  11
ATOM     11  C   UNL     1       2.454   5.258  19.204  0.00  0.00    +0.000 A 
ATOM     12  C   UNL     1       2.100   4.633  17.996  0.00  0.00    +0.000 A 
ATOM     13  C   UNL     1       1.073   3.679  17.942  0.00  0.00    +0.000 A 
ATOM     14  C   UNL     1       0.367   3.328  19.090  0.00  0.00    +0.000 A 
ATOM     15  C   UNL     1       0.728   3.882  20.310  0.00  0.00    +0.000 A 
ATOM     16  C   UNL     1       1.798   4.783  20.373  0.00  0.00    +0.000 A 
ENDBRANCH   6  11
ENDBRANCH   1   2
BRANCH   1  17
ATOM     17  C   UNL     1      -0.896  10.363  18.807  0.00  0.00    +0.000 A 
ATOM     18  C   UNL     1      -1.357   9.469  17.838  0.00  0.00    +0.000 A 
ATOM     19  C   UNL     1      -2.513   9.760  17.107  0.00  0.00    +0.000 A 
ATOM     20  C   UNL     1      -3.220  10.950  17.331  0.00  0.00    +0.000 A 
ATOM     21  C   UNL     1      -4.547  11.184  16.673  0.00  0.00    +0.000 C 
ATOM     22  C   UNL     1      -2.736  11.864  18.266  0.00  0.00    +0.000 A 
ATOM     23  C   UNL     1      -1.581  11.580  18.990  0.00  0.00    +0.000 A 
ENDBRANCH   1  17
BRANCH   1  24
ATOM     24  C   UNL     1       0.510  11.062  20.897  0.00  0.00    +0.000 C 
ATOM     25  O   UNL     1       1.655  11.420  21.179  0.00  0.00    +0.000 OA
BRANCH  24  30
ATOM     26  C   UNL     1      -3.533  13.554  24.281  0.00  0.00    +0.000 C 
ATOM     27  C   UNL     1      -2.588  12.866  23.326  0.00  0.00    +0.000 A 
ATOM     28  C   UNL     1      -2.315  11.500  23.455  0.00  0.00    +0.000 A 
ATOM     29  C   UNL     1      -1.350  10.885  22.645  0.00  0.00    +0.000 A 
ATOM     30  C   UNL     1      -0.628  11.629  21.703  0.00  0.00    +0.000 A 
ATOM     31  C   UNL     1      -0.951  12.987  21.533  0.00  0.00    +0.000 A 
ATOM     32  C   UNL     1      -1.918  13.603  22.353  0.00  0.00    +0.000 A 
ENDBRANCH  24  30
ENDBRANCH   1  24
TORSDOF 5
ENDMDL
