MODEL 1
REMARK VINA RESULT:      -8.8      0.000      0.000
REMARK  Name = 
REMARK  11 active torsions:
REMARK  status: ('A' for Active; 'I' for Inactive)
REMARK    1  A    between atoms: C_1  and  O_2
REMARK    2  A    between atoms: O_2  and  C_3
REMARK    3  A    between atoms: C_8  and  C_9
REMARK    4  A    between atoms: N_11  and  C_12
REMARK    5  A    between atoms: C_15  and  O_16
REMARK    6  A    between atoms: O_16  and  C_17
REMARK    7  A    between atoms: C_17  and  C_18
REMARK    8  A    between atoms: N_20  and  C_21
REMARK    9  A    between atoms: C_21  and  C_22
REMARK   10  A    between atoms: C_21  and  C_23
REMARK   11  A    between atoms: C_26  and  C_27
REMARK                            x       y       z     vdW  Elec       q    Type
REMARK                         _______ _______ _______ _____ _____    ______ ____
ROOT
ATOM      1  C   UNL     1       3.932   4.821  18.574  0.00  0.00    +0.000 A 
ATOM      2  N   UNL     1       3.617   3.884  19.504  0.00  0.00    +0.000 NA
ATOM      3  N   UNL     1       2.708   4.502  20.296  0.00  0.00    +0.000 N 
ATOM      4  C   UNL     1       2.242   3.843  21.486  0.00  0.00    +0.000 C 
ATOM      5  C   UNL     1       2.417   5.778  19.897  0.00  0.00    +0.000 A 
ATOM      6  N   UNL     1       1.587   6.659  20.501  0.00  0.00    +0.000 NA
ATOM      7  C   UNL     1       1.548   7.862  19.883  0.00  0.00    +0.000 A 
ATOM      8  C   UNL     1       2.286   8.220  18.755  0.00  0.00    +0.000 A 
ATOM      9  C   UNL     1       3.115   7.269  18.171  0.00  0.00    +0.000 A 
ATOM     10  C   UNL     1       3.184   6.005  18.769  0.00  0.00    +0.000 A 
ENDROOT
BRANCH   1  16
ATOM     11  C   UNL     1       6.357   4.676  17.913  0.00  0.00    +0.000 A 
ATOM     12  C   UNL     1       7.306   4.453  16.922  0.00  0.00    +0.000 A 
ATOM     13  C   UNL     1       6.934   4.213  15.603  0.00  0.00    +0.000 A 
ATOM     14  C   UNL     1       5.590   4.120  15.286  0.00  0.00    +0.000 A 
ATOM     15  C   UNL     1       4.625   4.272  16.276  0.00  0.00    +0.000 A 
ATOM     16  C   UNL     1       4.991   4.575  17.603  0.00  0.00    +0.000 A 
BRANCH  11  18
ATOM     17  C   UNL     1       7.998   5.788  19.207  0.00  0.00    +0.000 C 
ATOM     18  O   UNL     1       6.796   5.004  19.179  0.00  0.00    +0.000 OA
ENDBRANCH  11  18
ENDBRANCH   1  16
BRANCH   7  19
ATOM     19  O   UNL     1       0.774   8.854  20.464  0.00  0.00    +0.000 OA
BRANCH  19  20
ATOM     20  C   UNL     1       0.431   8.559  21.820  0.00  0.00    +0.000 C 
BRANCH  20  21
ATOM     21  C   UNL     1       0.021   9.832  22.570  0.00  0.00    +0.000 C 
ATOM     22  O   UNL     1       0.077   9.904  23.813  0.00  0.00    +0.000 OA
ATOM     23  N   UNL     1      -0.276  10.914  21.773  0.00  0.00    +0.000 N 
ATOM     24  H   UNL     1      -0.460  10.731  20.789  0.00  0.00    +0.000 HD
BRANCH  23  25
ATOM     25  C   UNL     1      -0.687  12.192  22.347  0.00  0.00    +0.000 C 
ATOM     26  C   UNL     1       0.079  13.351  21.709  0.00  0.00    +0.000 C 
BRANCH  25  27
ATOM     27  C   UNL     1      -2.190  12.405  22.217  0.00  0.00    +0.000 A 
ATOM     28  C   UNL     1      -2.776  12.654  20.966  0.00  0.00    +0.000 A 
ATOM     29  C   UNL     1      -4.146  12.924  20.859  0.00  0.00    +0.000 A 
ATOM     30  C   UNL     1      -4.961  12.928  21.994  0.00  0.00    +0.000 A 
ATOM     31  C   UNL     1      -6.427  13.234  21.894  0.00  0.00    +0.000 C 
ATOM     32  C   UNL     1      -4.388  12.646  23.239  0.00  0.00    +0.000 A 
ATOM     33  C   UNL     1      -3.021  12.384  23.348  0.00  0.00    +0.000 A 
ENDBRANCH  25  27
ENDBRANCH  23  25
ENDBRANCH  20  21
ENDBRANCH  19  20
ENDBRANCH   7  19
TORSDOF 7
ENDMDL
MODEL 2
REMARK VINA RESULT:      -8.6      1.654      2.194
REMARK  Name = 
REMARK  11 active torsions:
REMARK  status: ('A' for Active; 'I' for Inactive)
REMARK    1  A    between atoms: C_1  and  O_2
REMARK    2  A    between atoms: O_2  and  C_3
REMARK    3  A    between atoms: C_8  and  C_9
REMARK    4  A    between atoms: N_11  and  C_12
REMARK    5  A    between atoms: C_15  and  O_16
REMARK    6  A    between atoms: O_16  and  C_17
REMARK    7  A    between atoms: C_17  and  C_18
REMARK    8  A    between atoms: N_20  and  C_21
REMARK    9  A    between atoms: C_21  and  C_22
REMARK   10  A    between atoms: C_21  and  C_23
REMARK   11  A    between atoms: C_26  and  C_27
REMARK                            x       y       z     vdW  Elec       q    Type
REMARK                         _______ _______ _______ _____ _____    ______ ____
ROOT
ATOM      1  C   UNL     1       4.031   4.561  18.508  0.00  0.00    +0.000 A 
ATOM      2  N   UNL     1       3.836   3.440  19.248  0.00  0.00    +0.000 NA
ATOM      3  N   UNL     1       2.923   3.816  20.175  0.00  0.00    +0.000 N 
ATOM      4  C   UNL     1       2.569   2.904  21.230  0.00  0.00    +0.000 C 
ATOM      5  C   UNL     1       2.514   5.114  20.041  0.00  0.00    +0.000 A 
ATOM      6  N   UNL     1       1.649   5.790  20.832  0.00  0.00    +0.000 NA
ATOM      7  C   UNL     1       1.485   7.080  20.462  0.00  0.00    +0.000 A 
ATOM      8  C   UNL     1       2.137   7.708  19.400  0.00  0.00    +0.000 A 
ATOM      9  C   UNL     1       3.007   6.961  18.615  0.00  0.00    +0.000 A 
ATOM     10  C   UNL     1       3.204   5.617  18.953  0.00  0.00    +0.000 A 
ENDROOT
BRANCH   1  16
ATOM     11  C   UNL     1       6.275   5.277  17.621  0.00  0.00    +0.000 A 
ATOM     12  C   UNL     1       7.190   5.287  16.573  0.00  0.00    +0.000 A 
ATOM     13  C   UNL     1       6.891   4.707  15.345  0.00  0.00    +0.000 A 
ATOM     14  C   UNL     1       5.689   4.041  15.186  0.00  0.00    +0.000 A 
ATOM     15  C   UNL     1       4.788   3.960  16.243  0.00  0.00    +0.000 A 
ATOM     16  C   UNL     1       5.056   4.596  17.472  0.00  0.00    +0.000 A 
BRANCH  11  18
ATOM     17  C   UNL     1       7.929   5.714  19.258  0.00  0.00    +0.000 C 
ATOM     18  O   UNL     1       6.597   5.954  18.778  0.00  0.00    +0.000 OA
ENDBRANCH  11  18
ENDBRANCH   1  16
BRANCH   7  19
ATOM     19  O   UNL     1       0.666   7.873  21.249  0.00  0.00    +0.000 OA
BRANCH  19  20
ATOM     20  C   UNL     1       1.373   8.954  21.862  0.00  0.00    +0.000 C 
BRANCH  20  21
ATOM     21  C   UNL     1       0.623  10.277  21.670  0.00  0.00    +0.000 C 
ATOM     22  O   UNL     1      -0.037  10.793  22.593  0.00  0.00    +0.000 OA
ATOM     23  N   UNL     1       0.843  10.907  20.466  0.00  0.00    +0.000 N 
ATOM     24  H   UNL     1       1.249  10.352  19.716  0.00  0.00    +0.000 HD
BRANCH  23  25
ATOM     25  C   UNL     1       0.192  12.173  20.140  0.00  0.00    +0.000 C 
ATOM     26  C   UNL     1       1.102  13.052  19.281  0.00  0.00    +0.000 C 
BRANCH  25  27
ATOM     27  C   UNL     1      -1.148  11.951  19.450  0.00  0.00    +0.000 A 
ATOM     28  C   UNL     1      -2.327  12.499  19.976  0.00  0.00    +0.000 A 
ATOM     29  C   UNL     1      -3.567  12.231  19.384  0.00  0.00    +0.000 A 
ATOM     30  C   UNL     1      -3.652  11.429  18.243  0.00  0.00    +0.000 A 
ATOM     31  C   UNL     1      -4.976  11.118  17.610  0.00  0.00    +0.000 C 
ATOM     32  C   UNL     1      -2.475  10.907  17.694  0.00  0.00    +0.000 A 
ATOM     33  C   UNL     1      -1.238  11.169  18.288  0.00  0.00    +0.000 A 
ENDBRANCH  25  27
ENDBRANCH  23  25
ENDBRANCH  20  21
ENDBRANCH  19  20
ENDBRANCH   7  19
TORSDOF 7
ENDMDL
MODEL 3
REMARK VINA RESULT:      -8.6      1.725      2.034
REMARK  Name = 
REMARK  11 active torsions:
REMARK  status: ('A' for Active; 'I' for Inactive)
REMARK    1  A    between atoms: C_1  and  O_2
REMARK    2  A    between atoms: O_2  and  C_3
REMARK    3  A    between atoms: C_8  and  C_9
REMARK    4  A    between atoms: N_11  and  C_12
REMARK    5  A    between atoms: C_15  and  O_16
REMARK    6  A    between atoms: O_16  and  C_17
REMARK    7  A    between atoms: C_17  and  C_18
REMARK    8  A    between atoms: N_20  and  C_21
REMARK    9  A    between atoms: C_21  and  C_22
REMARK   10  A    between atoms: C_21  and  C_23
REMARK   11  A    between atoms: C_26  and  C_27
REMARK                            x       y       z     vdW  Elec       q    Type
REMARK                         _______ _______ _______ _____ _____    ______ ____
ROOT
ATOM      1  C   UNL     1       3.880   4.892  18.650  0.00  0.00    +0.000 A 
ATOM      2  N   UNL     1       3.621   3.928  19.570  0.00  0.00    +0.000 NA
ATOM      3  N   UNL     1       2.701   4.495  20.387  0.00  0.00    +0.000 N 
ATOM      4  C   UNL     1       2.285   3.799  21.575  0.00  0.00    +0.000 C 
ATOM      5  C   UNL     1       2.349   5.763  20.013  0.00  0.00    +0.000 A 
ATOM      6  N   UNL     1       1.493   6.599  20.645  0.00  0.00    +0.000 NA
ATOM      7  C   UNL     1       1.392   7.808  20.047  0.00  0.00    +0.000 A 
ATOM      8  C   UNL     1       2.094   8.213  18.913  0.00  0.00    +0.000 A 
ATOM      9  C   UNL     1       2.952   7.308  18.299  0.00  0.00    +0.000 A 
ATOM     10  C   UNL     1       3.086   6.039  18.876  0.00  0.00    +0.000 A 
ENDROOT
BRANCH   1  16
ATOM     11  C   UNL     1       6.298   4.717  17.975  0.00  0.00    +0.000 A 
ATOM     12  C   UNL     1       7.240   4.561  16.964  0.00  0.00    +0.000 A 
ATOM     13  C   UNL     1       6.863   4.476  15.628  0.00  0.00    +0.000 A 
ATOM     14  C   UNL     1       5.518   4.472  15.305  0.00  0.00    +0.000 A 
ATOM     15  C   UNL     1       4.556   4.559  16.306  0.00  0.00    +0.000 A 
ATOM     16  C   UNL     1       4.930   4.705  17.657  0.00  0.00    +0.000 A 
BRANCH  11  18
ATOM     17  C   UNL     1       7.821   5.834  19.402  0.00  0.00    +0.000 C 
ATOM     18  O   UNL     1       6.746   4.892  19.267  0.00  0.00    +0.000 OA
ENDBRANCH  11  18
ENDBRANCH   1  16
BRANCH   7  19
ATOM     19  O   UNL     1       0.587   8.757  20.657  0.00  0.00    +0.000 OA
BRANCH  19  20
ATOM     20  C   UNL     1       1.338   9.842  21.207  0.00  0.00    +0.000 C 
BRANCH  20  21
ATOM     21  C   UNL     1       0.652  11.183  20.920  0.00  0.00    +0.000 C 
ATOM     22  O   UNL     1       1.026  12.237  21.470  0.00  0.00    +0.000 OA
ATOM     23  N   UNL     1      -0.299  11.156  19.926  0.00  0.00    +0.000 N 
ATOM     24  H   UNL     1      -0.660  10.245  19.651  0.00  0.00    +0.000 HD
BRANCH  23  25
ATOM     25  C   UNL     1      -1.039  12.357  19.548  0.00  0.00    +0.000 C 
ATOM     26  C   UNL     1      -0.363  13.071  18.377  0.00  0.00    +0.000 C 
BRANCH  25  27
ATOM     27  C   UNL     1      -2.491  12.036  19.217  0.00  0.00    +0.000 A 
ATOM     28  C   UNL     1      -2.817  11.229  18.117  0.00  0.00    +0.000 A 
ATOM     29  C   UNL     1      -4.154  10.998  17.770  0.00  0.00    +0.000 A 
ATOM     30  C   UNL     1      -5.191  11.549  18.527  0.00  0.00    +0.000 A 
ATOM     31  C   UNL     1      -6.627  11.324  18.155  0.00  0.00    +0.000 C 
ATOM     32  C   UNL     1      -4.872  12.327  19.645  0.00  0.00    +0.000 A 
ATOM     33  C   UNL     1      -3.538  12.564  19.988  0.00  0.00    +0.000 A 
ENDBRANCH  25  27
ENDBRANCH  23  25
ENDBRANCH  20  21
ENDBRANCH  19  20
ENDBRANCH   7  19
TORSDOF 7
ENDMDL
MODEL 4
REMARK VINA RESULT:      -8.5      2.273      2.879
REMARK  Name = 
REMARK  11 active torsions:
REMARK  status: ('A' for Active; 'I' for Inactive)
REMARK    1  A    between atoms: C_1  and  O_2
REMARK    2  A    between atoms: O_2  and  C_3
REMARK    3  A    between atoms: C_8  and  C_9
REMARK    4  A    between atoms: N_11  and  C_12
REMARK    5  A    between atoms: C_15  and  O_16
REMARK    6  A    between atoms: O_16  and  C_17
REMARK    7  A    between atoms: C_17  and  C_18
REMARK    8  A    between atoms: N_20  and  C_21
REMARK    9  A    between atoms: C_21  and  C_22
REMARK   10  A    between atoms: C_21  and  C_23
REMARK   11  A    between atoms: C_26  and  C_27
REMARK                            x       y       z     vdW  Elec       q    Type
REMARK                         _______ _______ _______ _____ _____    ______ ____
ROOT
ATOM      1  C   UNL     1       4.083   4.451  18.488  0.00  0.00    +0.000 A 
ATOM      2  N   UNL     1       3.892   3.341  19.245  0.00  0.00    +0.000 NA
ATOM      3  N   UNL     1       2.984   3.729  20.172  0.00  0.00    +0.000 N 
ATOM      4  C   UNL     1       2.637   2.832  21.242  0.00  0.00    +0.000 C 
ATOM      5  C   UNL     1       2.575   5.026  20.023  0.00  0.00    +0.000 A 
ATOM      6  N   UNL     1       1.715   5.712  20.810  0.00  0.00    +0.000 NA
ATOM      7  C   UNL     1       1.550   6.998  20.423  0.00  0.00    +0.000 A 
ATOM      8  C   UNL     1       2.195   7.611  19.350  0.00  0.00    +0.000 A 
ATOM      9  C   UNL     1       3.060   6.853  18.569  0.00  0.00    +0.000 A 
ATOM     10  C   UNL     1       3.259   5.513  18.924  0.00  0.00    +0.000 A 
ENDROOT
BRANCH   1  16
ATOM     11  C   UNL     1       6.475   4.583  17.717  0.00  0.00    +0.000 A 
ATOM     12  C   UNL     1       7.383   4.625  16.664  0.00  0.00    +0.000 A 
ATOM     13  C   UNL     1       6.957   4.643  15.341  0.00  0.00    +0.000 A 
ATOM     14  C   UNL     1       5.605   4.542  15.064  0.00  0.00    +0.000 A 
ATOM     15  C   UNL     1       4.684   4.431  16.101  0.00  0.00    +0.000 A 
ATOM     16  C   UNL     1       5.102   4.472  17.446  0.00  0.00    +0.000 A 
BRANCH  11  18
ATOM     17  C   UNL     1       7.741   5.842  19.272  0.00  0.00    +0.000 C 
ATOM     18  O   UNL     1       6.962   4.666  19.005  0.00  0.00    +0.000 OA
ENDBRANCH  11  18
ENDBRANCH   1  16
BRANCH   7  19
ATOM     19  O   UNL     1       0.736   7.801  21.205  0.00  0.00    +0.000 OA
BRANCH  19  20
ATOM     20  C   UNL     1       1.426   8.938  21.728  0.00  0.00    +0.000 C 
BRANCH  20  21
ATOM     21  C   UNL     1       0.749  10.241  21.288  0.00  0.00    +0.000 C 
ATOM     22  O   UNL     1       1.366  11.324  21.270  0.00  0.00    +0.000 OA
ATOM     23  N   UNL     1      -0.527  10.101  20.792  0.00  0.00    +0.000 N 
ATOM     24  H   UNL     1      -1.013   9.231  20.994  0.00  0.00    +0.000 HD
BRANCH  23  25
ATOM     25  C   UNL     1      -1.299  11.256  20.339  0.00  0.00    +0.000 C 
ATOM     26  C   UNL     1      -0.461  12.533  20.401  0.00  0.00    +0.000 C 
BRANCH  25  27
ATOM     27  C   UNL     1      -1.851  11.042  18.936  0.00  0.00    +0.000 A 
ATOM     28  C   UNL     1      -2.972  11.756  18.488  0.00  0.00    +0.000 A 
ATOM     29  C   UNL     1      -3.524  11.504  17.225  0.00  0.00    +0.000 A 
ATOM     30  C   UNL     1      -2.954  10.551  16.377  0.00  0.00    +0.000 A 
ATOM     31  C   UNL     1      -3.547  10.258  15.031  0.00  0.00    +0.000 C 
ATOM     32  C   UNL     1      -1.815   9.860  16.806  0.00  0.00    +0.000 A 
ATOM     33  C   UNL     1      -1.268  10.106  18.067  0.00  0.00    +0.000 A 
ENDBRANCH  25  27
ENDBRANCH  23  25
ENDBRANCH  20  21
ENDBRANCH  19  20
ENDBRANCH   7  19
TORSDOF 7
ENDMDL
MODEL 5
REMARK VINA RESULT:      -8.4      3.104      3.928
REMARK  Name = 
REMARK  11 active torsions:
REMARK  status: ('A' for Active; 'I' for Inactive)
REMARK    1  A    between atoms: C_1  and  O_2
REMARK    2  A    between atoms: O_2  and  C_3
REMARK    3  A    between atoms: C_8  and  C_9
REMARK    4  A    between atoms: N_11  and  C_12
REMARK    5  A    between atoms: C_15  and  O_16
REMARK    6  A    between atoms: O_16  and  C_17
REMARK    7  A    between atoms: C_17  and  C_18
REMARK    8  A    between atoms: N_20  and  C_21
REMARK    9  A    between atoms: C_21  and  C_22
REMARK   10  A    between atoms: C_21  and  C_23
REMARK   11  A    between atoms: C_26  and  C_27
REMARK                            x       y       z     vdW  Elec       q    Type
REMARK                         _______ _______ _______ _____ _____    ______ ____
ROOT
ATOM      1  C   UNL     1       3.942   5.212  18.158  0.00  0.00    +0.000 A 
ATOM      2  N   UNL     1       3.600   4.329  19.131  0.00  0.00    +0.000 NA
ATOM      3  N   UNL     1       2.740   5.023  19.914  0.00  0.00    +0.000 N 
ATOM      4  C   UNL     1       2.268   4.435  21.139  0.00  0.00    +0.000 C 
ATOM      5  C   UNL     1       2.505   6.295  19.470  0.00  0.00    +0.000 A 
ATOM      6  N   UNL     1       1.733   7.240  20.054  0.00  0.00    +0.000 NA
ATOM      7  C   UNL     1       1.740   8.418  19.390  0.00  0.00    +0.000 A 
ATOM      8  C   UNL     1       2.471   8.694  18.235  0.00  0.00    +0.000 A 
ATOM      9  C   UNL     1       3.239   7.680  17.673  0.00  0.00    +0.000 A 
ATOM     10  C   UNL     1       3.258   6.439  18.319  0.00  0.00    +0.000 A 
ENDROOT
BRANCH   1  16
ATOM     11  C   UNL     1       6.334   4.802  17.489  0.00  0.00    +0.000 A 
ATOM     12  C   UNL     1       7.252   4.502  16.489  0.00  0.00    +0.000 A 
ATOM     13  C   UNL     1       6.857   4.354  15.164  0.00  0.00    +0.000 A 
ATOM     14  C   UNL     1       5.514   4.433  14.845  0.00  0.00    +0.000 A 
ATOM     15  C   UNL     1       4.570   4.664  15.841  0.00  0.00    +0.000 A 
ATOM     16  C   UNL     1       4.966   4.875  17.177  0.00  0.00    +0.000 A 
BRANCH  11  18
ATOM     17  C   UNL     1       7.798   6.064  18.855  0.00  0.00    +0.000 C 
ATOM     18  O   UNL     1       6.805   5.031  18.764  0.00  0.00    +0.000 OA
ENDBRANCH  11  18
ENDBRANCH   1  16
BRANCH   7  19
ATOM     19  O   UNL     1       1.028   9.469  19.945  0.00  0.00    +0.000 OA
BRANCH  19  20
ATOM     20  C   UNL     1       1.027  10.632  19.113  0.00  0.00    +0.000 C 
BRANCH  20  21
ATOM     21  C   UNL     1       1.324  11.893  19.933  0.00  0.00    +0.000 C 
ATOM     22  O   UNL     1       1.176  11.916  21.170  0.00  0.00    +0.000 OA
ATOM     23  N   UNL     1       1.884  12.933  19.228  0.00  0.00    +0.000 N 
ATOM     24  H   UNL     1       1.816  12.900  18.214  0.00  0.00    +0.000 HD
BRANCH  23  25
ATOM     25  C   UNL     1       2.216  14.200  19.876  0.00  0.00    +0.000 C 
ATOM     26  C   UNL     1       3.730  14.398  19.948  0.00  0.00    +0.000 C 
BRANCH  25  27
ATOM     27  C   UNL     1       1.552  15.377  19.173  0.00  0.00    +0.000 A 
ATOM     28  C   UNL     1       0.154  15.488  19.122  0.00  0.00    +0.000 A 
ATOM     29  C   UNL     1      -0.455  16.530  18.411  0.00  0.00    +0.000 A 
ATOM     30  C   UNL     1       0.318  17.493  17.757  0.00  0.00    +0.000 A 
ATOM     31  C   UNL     1      -0.323  18.603  16.978  0.00  0.00    +0.000 C 
ATOM     32  C   UNL     1       1.712  17.406  17.835  0.00  0.00    +0.000 A 
ATOM     33  C   UNL     1       2.321  16.364  18.538  0.00  0.00    +0.000 A 
ENDBRANCH  25  27
ENDBRANCH  23  25
ENDBRANCH  20  21
ENDBRANCH  19  20
ENDBRANCH   7  19
TORSDOF 7
ENDMDL
MODEL 6
REMARK VINA RESULT:      -8.2      1.556      2.282
REMARK  Name = 
REMARK  11 active torsions:
REMARK  status: ('A' for Active; 'I' for Inactive)
REMARK    1  A    between atoms: C_1  and  O_2
REMARK    2  A    between atoms: O_2  and  C_3
REMARK    3  A    between atoms: C_8  and  C_9
REMARK    4  A    between atoms: N_11  and  C_12
REMARK    5  A    between atoms: C_15  and  O_16
REMARK    6  A    between atoms: O_16  and  C_17
REMARK    7  A    between atoms: C_17  and  C_18
REMARK    8  A    between atoms: N_20  and  C_21
REMARK    9  A    between atoms: C_21  and  C_22
REMARK   10  A    between atoms: C_21  and  C_23
REMARK   11  A    between atoms: C_26  and  C_27
REMARK                            x       y       z     vdW  Elec       q    Type
REMARK                         _______ _______ _______ _____ _____    ______ ____
ROOT
ATOM      1  C   UNL     1       4.081   5.474  18.085  0.00  0.00    +0.000 A 
ATOM      2  N   UNL     1       3.794   4.659  19.132  0.00  0.00    +0.000 NA
ATOM      3  N   UNL     1       2.904   5.369  19.865  0.00  0.00    +0.000 N 
ATOM      4  C   UNL     1       2.472   4.862  21.140  0.00  0.00    +0.000 C 
ATOM      5  C   UNL     1       2.597   6.586  19.319  0.00  0.00    +0.000 A 
ATOM      6  N   UNL     1       1.780   7.534  19.831  0.00  0.00    +0.000 NA
ATOM      7  C   UNL     1       1.719   8.651  19.071  0.00  0.00    +0.000 A 
ATOM      8  C   UNL     1       2.426   8.867  17.889  0.00  0.00    +0.000 A 
ATOM      9  C   UNL     1       3.244   7.852  17.404  0.00  0.00    +0.000 A 
ATOM     10  C   UNL     1       3.334   6.672  18.152  0.00  0.00    +0.000 A 
ENDROOT
BRANCH   1  16
ATOM     11  C   UNL     1       6.427   5.609  17.181  0.00  0.00    +0.000 A 
ATOM     12  C   UNL     1       7.348   5.236  16.209  0.00  0.00    +0.000 A 
ATOM     13  C   UNL     1       6.978   4.442  15.128  0.00  0.00    +0.000 A 
ATOM     14  C   UNL     1       5.687   3.952  15.059  0.00  0.00    +0.000 A 
ATOM     15  C   UNL     1       4.767   4.258  16.057  0.00  0.00    +0.000 A 
ATOM     16  C   UNL     1       5.115   5.110  17.124  0.00  0.00    +0.000 A 
BRANCH  11  18
ATOM     17  C   UNL     1       7.741   5.904  19.129  0.00  0.00    +0.000 C 
ATOM     18  O   UNL     1       6.836   6.477  18.172  0.00  0.00    +0.000 OA
ENDBRANCH  11  18
ENDBRANCH   1  16
BRANCH   7  19
ATOM     19  O   UNL     1       0.957   9.706  19.545  0.00  0.00    +0.000 OA
BRANCH  19  20
ATOM     20  C   UNL     1       1.396  10.971  19.042  0.00  0.00    +0.000 C 
BRANCH  20  21
ATOM     21  C   UNL     1       0.246  11.985  19.031  0.00  0.00    +0.000 C 
ATOM     22  O   UNL     1       0.410  13.152  18.627  0.00  0.00    +0.000 OA
ATOM     23  N   UNL     1      -0.988  11.477  19.367  0.00  0.00    +0.000 N 
ATOM     24  H   UNL     1      -1.009  10.577  19.839  0.00  0.00    +0.000 HD
BRANCH  23  25
ATOM     25  C   UNL     1      -2.176  12.327  19.405  0.00  0.00    +0.000 C 
ATOM     26  C   UNL     1      -3.246  11.816  18.441  0.00  0.00    +0.000 C 
BRANCH  25  27
ATOM     27  C   UNL     1      -2.734  12.442  20.818  0.00  0.00    +0.000 A 
ATOM     28  C   UNL     1      -1.946  12.117  21.932  0.00  0.00    +0.000 A 
ATOM     29  C   UNL     1      -2.484  12.151  23.224  0.00  0.00    +0.000 A 
ATOM     30  C   UNL     1      -3.812  12.532  23.432  0.00  0.00    +0.000 A 
ATOM     31  C   UNL     1      -4.406  12.554  24.809  0.00  0.00    +0.000 C 
ATOM     32  C   UNL     1      -4.593  12.890  22.327  0.00  0.00    +0.000 A 
ATOM     33  C   UNL     1      -4.059  12.850  21.037  0.00  0.00    +0.000 A 
ENDBRANCH  25  27
ENDBRANCH  23  25
ENDBRANCH  20  21
ENDBRANCH  19  20
ENDBRANCH   7  19
TORSDOF 7
ENDMDL
MODEL 7
REMARK VINA RESULT:      -8.1      1.673      2.829
REMARK  Name = 
REMARK  11 active torsions:
REMARK  status: ('A' for Active; 'I' for Inactive)
REMARK    1  A    between atoms: C_1  and  O_2
REMARK    2  A    between atoms: O_2  and  C_3
REMARK    3  A    between atoms: C_8  and  C_9
REMARK    4  A    between atoms: N_11  and  C_12
REMARK    5  A    between atoms: C_15  and  O_16
REMARK    6  A    between atoms: O_16  and  C_17
REMARK    7  A    between atoms: C_17  and  C_18
REMARK    8  A    between atoms: N_20  and  C_21
REMARK    9  A    between atoms: C_21  and  C_22
REMARK   10  A    between atoms: C_21  and  C_23
REMARK   11  A    between atoms: C_26  and  C_27
REMARK                            x       y       z     vdW  Elec       q    Type
REMARK                         _______ _______ _______ _____ _____    ______ ____
ROOT
ATOM      1  C   UNL     1       3.976   4.288  18.508  0.00  0.00    +0.000 A 
ATOM      2  N   UNL     1       3.652   3.134  19.146  0.00  0.00    +0.000 NA
ATOM      3  N   UNL     1       2.717   3.512  20.051  0.00  0.00    +0.000 N 
ATOM      4  C   UNL     1       2.233   2.556  21.010  0.00  0.00    +0.000 C 
ATOM      5  C   UNL     1       2.419   4.846  20.000  0.00  0.00    +0.000 A 
ATOM      6  N   UNL     1       1.564   5.528  20.795  0.00  0.00    +0.000 NA
ATOM      7  C   UNL     1       1.522   6.852  20.520  0.00  0.00    +0.000 A 
ATOM      8  C   UNL     1       2.281   7.503  19.548  0.00  0.00    +0.000 A 
ATOM      9  C   UNL     1       3.135   6.748  18.752  0.00  0.00    +0.000 A 
ATOM     10  C   UNL     1       3.208   5.371  18.992  0.00  0.00    +0.000 A 
ENDROOT
BRANCH   1  16
ATOM     11  C   UNL     1       6.396   4.575  17.878  0.00  0.00    +0.000 A 
ATOM     12  C   UNL     1       7.367   4.614  16.884  0.00  0.00    +0.000 A 
ATOM     13  C   UNL     1       7.034   4.486  15.540  0.00  0.00    +0.000 A 
ATOM     14  C   UNL     1       5.719   4.239  15.190  0.00  0.00    +0.000 A 
ATOM     15  C   UNL     1       4.741   4.129  16.173  0.00  0.00    +0.000 A 
ATOM     16  C   UNL     1       5.059   4.317  17.534  0.00  0.00    +0.000 A 
BRANCH  11  18
ATOM     17  C   UNL     1       7.875   5.727  19.324  0.00  0.00    +0.000 C 
ATOM     18  O   UNL     1       6.782   4.806  19.182  0.00  0.00    +0.000 OA
ENDBRANCH  11  18
ENDBRANCH   1  16
BRANCH   7  19
ATOM     19  O   UNL     1       0.722   7.647  21.325  0.00  0.00    +0.000 OA
BRANCH  19  20
ATOM     20  C   UNL     1       1.233   8.975  21.466  0.00  0.00    +0.000 C 
BRANCH  20  21
ATOM     21  C   UNL     1       0.181  10.013  21.059  0.00  0.00    +0.000 C 
ATOM     22  O   UNL     1      -0.455   9.914  19.991  0.00  0.00    +0.000 OA
ATOM     23  N   UNL     1      -0.100  10.969  22.008  0.00  0.00    +0.000 N 
ATOM     24  H   UNL     1       0.567  11.082  22.768  0.00  0.00    +0.000 HD
BRANCH  23  25
ATOM     25  C   UNL     1      -1.077  12.025  21.760  0.00  0.00    +0.000 C 
ATOM     26  C   UNL     1      -1.683  12.530  23.069  0.00  0.00    +0.000 C 
BRANCH  25  27
ATOM     27  C   UNL     1      -0.467  13.176  20.970  0.00  0.00    +0.000 A 
ATOM     28  C   UNL     1      -0.954  13.513  19.698  0.00  0.00    +0.000 A 
ATOM     29  C   UNL     1      -0.343  14.522  18.942  0.00  0.00    +0.000 A 
ATOM     30  C   UNL     1       0.751  15.227  19.450  0.00  0.00    +0.000 A 
ATOM     31  C   UNL     1       1.426  16.297  18.642  0.00  0.00    +0.000 C 
ATOM     32  C   UNL     1       1.219  14.918  20.731  0.00  0.00    +0.000 A 
ATOM     33  C   UNL     1       0.614  13.908  21.483  0.00  0.00    +0.000 A 
ENDBRANCH  25  27
ENDBRANCH  23  25
ENDBRANCH  20  21
ENDBRANCH  19  20
ENDBRANCH   7  19
TORSDOF 7
ENDMDL
MODEL 8
REMARK VINA RESULT:      -8.1      1.015      1.353
REMARK  Name = 
REMARK  11 active torsions:
REMARK  status: ('A' for Active; 'I' for Inactive)
REMARK    1  A    between atoms: C_1  and  O_2
REMARK    2  A    between atoms: O_2  and  C_3
REMARK    3  A    between atoms: C_8  and  C_9
REMARK    4  A    between atoms: N_11  and  C_12
REMARK    5  A    between atoms: C_15  and  O_16
REMARK    6  A    between atoms: O_16  and  C_17
REMARK    7  A    between atoms: C_17  and  C_18
REMARK    8  A    between atoms: N_20  and  C_21
REMARK    9  A    between atoms: C_21  and  C_22
REMARK   10  A    between atoms: C_21  and  C_23
REMARK   11  A    between atoms: C_26  and  C_27
REMARK                            x       y       z     vdW  Elec       q    Type
REMARK                         _______ _______ _______ _____ _____    ______ ____
ROOT
ATOM      1  C   UNL     1       4.017   4.791  18.318  0.00  0.00    +0.000 A 
ATOM      2  N   UNL     1       3.833   3.699  19.104  0.00  0.00    +0.000 NA
ATOM      3  N   UNL     1       2.965   4.122  20.054  0.00  0.00    +0.000 N 
ATOM      4  C   UNL     1       2.640   3.252  21.152  0.00  0.00    +0.000 C 
ATOM      5  C   UNL     1       2.574   5.423  19.893  0.00  0.00    +0.000 A 
ATOM      6  N   UNL     1       1.754   6.140  20.696  0.00  0.00    +0.000 NA
ATOM      7  C   UNL     1       1.598   7.420  20.289  0.00  0.00    +0.000 A 
ATOM      8  C   UNL     1       2.215   8.001  19.182  0.00  0.00    +0.000 A 
ATOM      9  C   UNL     1       3.039   7.212  18.386  0.00  0.00    +0.000 A 
ATOM     10  C   UNL     1       3.227   5.876  18.762  0.00  0.00    +0.000 A 
ENDROOT
BRANCH   1  16
ATOM     11  C   UNL     1       6.210   5.481  17.294  0.00  0.00    +0.000 A 
ATOM     12  C   UNL     1       7.082   5.435  16.212  0.00  0.00    +0.000 A 
ATOM     13  C   UNL     1       6.744   4.770  15.038  0.00  0.00    +0.000 A 
ATOM     14  C   UNL     1       5.549   4.077  14.973  0.00  0.00    +0.000 A 
ATOM     15  C   UNL     1       4.693   4.053  16.069  0.00  0.00    +0.000 A 
ATOM     16  C   UNL     1       4.999   4.773  17.241  0.00  0.00    +0.000 A 
BRANCH  11  18
ATOM     17  C   UNL     1       7.592   5.657  19.209  0.00  0.00    +0.000 C 
ATOM     18  O   UNL     1       6.566   6.239  18.390  0.00  0.00    +0.000 OA
ENDBRANCH  11  18
ENDBRANCH   1  16
BRANCH   7  19
ATOM     19  O   UNL     1       0.826   8.253  21.082  0.00  0.00    +0.000 OA
BRANCH  19  20
ATOM     20  C   UNL     1       0.148   9.259  20.326  0.00  0.00    +0.000 C 
BRANCH  20  21
ATOM     21  C   UNL     1       0.122  10.591  21.084  0.00  0.00    +0.000 C 
ATOM     22  O   UNL     1       1.145  11.053  21.626  0.00  0.00    +0.000 OA
ATOM     23  N   UNL     1      -1.061  11.289  21.006  0.00  0.00    +0.000 N 
ATOM     24  H   UNL     1      -1.884  10.778  20.696  0.00  0.00    +0.000 HD
BRANCH  23  25
ATOM     25  C   UNL     1      -1.235  12.571  21.683  0.00  0.00    +0.000 C 
ATOM     26  C   UNL     1      -0.964  13.735  20.729  0.00  0.00    +0.000 C 
BRANCH  25  27
ATOM     27  C   UNL     1      -2.622  12.693  22.300  0.00  0.00    +0.000 A 
ATOM     28  C   UNL     1      -2.809  12.542  23.683  0.00  0.00    +0.000 A 
ATOM     29  C   UNL     1      -4.094  12.579  24.239  0.00  0.00    +0.000 A 
ATOM     30  C   UNL     1      -5.214  12.790  23.430  0.00  0.00    +0.000 A 
ATOM     31  C   UNL     1      -6.597  12.814  24.011  0.00  0.00    +0.000 C 
ATOM     32  C   UNL     1      -5.029  12.976  22.055  0.00  0.00    +0.000 A 
ATOM     33  C   UNL     1      -3.749  12.932  21.499  0.00  0.00    +0.000 A 
ENDBRANCH  25  27
ENDBRANCH  23  25
ENDBRANCH  20  21
ENDBRANCH  19  20
ENDBRANCH   7  19
TORSDOF 7
ENDMDL
MODEL 9
REMARK VINA RESULT:      -8.1      2.575      3.112
REMARK  Name = 
REMARK  11 active torsions:
REMARK  status: ('A' for Active; 'I' for Inactive)
REMARK    1  A    between atoms: C_1  and  O_2
REMARK    2  A    between atoms: O_2  and  C_3
REMARK    3  A    between atoms: C_8  and  C_9
REMARK    4  A    between atoms: N_11  and  C_12
REMARK    5  A    between atoms: C_15  and  O_16
REMARK    6  A    between atoms: O_16  and  C_17
REMARK    7  A    between atoms: C_17  and  C_18
REMARK    8  A    between atoms: N_20  and  C_21
REMARK    9  A    between atoms: C_21  and  C_22
REMARK   10  A    between atoms: C_21  and  C_23
REMARK   11  A    between atoms: C_26  and  C_27
REMARK                            x       y       z     vdW  Elec       q    Type
REMARK                         _______ _______ _______ _____ _____    ______ ____
ROOT
ATOM      1  C   UNL     1       4.420   4.445  18.049  0.00  0.00    +0.000 A 
ATOM      2  N   UNL     1       4.418   3.286  18.755  0.00  0.00    +0.000 NA
ATOM      3  N   UNL     1       3.570   3.532  19.782  0.00  0.00    +0.000 N 
ATOM      4  C   UNL     1       3.421   2.553  20.826  0.00  0.00    +0.000 C 
ATOM      5  C   UNL     1       3.018   4.783  19.745  0.00  0.00    +0.000 A 
ATOM      6  N   UNL     1       2.173   5.335  20.645  0.00  0.00    +0.000 NA
ATOM      7  C   UNL     1       1.840   6.612  20.349  0.00  0.00    +0.000 A 
ATOM      8  C   UNL     1       2.312   7.341  19.257  0.00  0.00    +0.000 A 
ATOM      9  C   UNL     1       3.171   6.717  18.359  0.00  0.00    +0.000 A 
ATOM     10  C   UNL     1       3.538   5.392  18.618  0.00  0.00    +0.000 A 
ENDROOT
BRANCH   1  16
ATOM     11  C   UNL     1       6.406   5.521  16.937  0.00  0.00    +0.000 A 
ATOM     12  C   UNL     1       7.207   5.655  15.808  0.00  0.00    +0.000 A 
ATOM     13  C   UNL     1       6.914   4.979  14.628  0.00  0.00    +0.000 A 
ATOM     14  C   UNL     1       5.848   4.099  14.599  0.00  0.00    +0.000 A 
ATOM     15  C   UNL     1       5.074   3.900  15.738  0.00  0.00    +0.000 A 
ATOM     16  C   UNL     1       5.326   4.624  16.920  0.00  0.00    +0.000 A 
BRANCH  11  18
ATOM     17  C   UNL     1       7.702   5.742  18.906  0.00  0.00    +0.000 C 
ATOM     18  O   UNL     1       6.697   6.294  18.041  0.00  0.00    +0.000 OA
ENDBRANCH  11  18
ENDBRANCH   1  16
BRANCH   7  19
ATOM     19  O   UNL     1       1.028   7.286  21.246  0.00  0.00    +0.000 OA
BRANCH  19  20
ATOM     20  C   UNL     1       1.308   8.688  21.294  0.00  0.00    +0.000 C 
BRANCH  20  21
ATOM     21  C   UNL     1       0.025   9.509  21.118  0.00  0.00    +0.000 C 
ATOM     22  O   UNL     1      -0.927   9.410  21.917  0.00  0.00    +0.000 OA
ATOM     23  N   UNL     1       0.060  10.444  20.110  0.00  0.00    +0.000 N 
ATOM     24  H   UNL     1       0.791  10.348  19.409  0.00  0.00    +0.000 HD
BRANCH  23  25
ATOM     25  C   UNL     1      -1.091  11.296  19.821  0.00  0.00    +0.000 C 
ATOM     26  C   UNL     1      -0.712  12.774  19.900  0.00  0.00    +0.000 C 
BRANCH  25  27
ATOM     27  C   UNL     1      -1.702  10.968  18.465  0.00  0.00    +0.000 A 
ATOM     28  C   UNL     1      -1.781  11.941  17.457  0.00  0.00    +0.000 A 
ATOM     29  C   UNL     1      -2.410  11.660  16.238  0.00  0.00    +0.000 A 
ATOM     30  C   UNL     1      -2.954  10.396  15.993  0.00  0.00    +0.000 A 
ATOM     31  C   UNL     1      -3.647  10.089  14.698  0.00  0.00    +0.000 C 
ATOM     32  C   UNL     1      -2.847   9.412  16.981  0.00  0.00    +0.000 A 
ATOM     33  C   UNL     1      -2.226   9.693  18.200  0.00  0.00    +0.000 A 
ENDBRANCH  25  27
ENDBRANCH  23  25
ENDBRANCH  20  21
ENDBRANCH  19  20
ENDBRANCH   7  19
TORSDOF 7
ENDMDL
