MODEL 1
REMARK VINA RESULT:      -7.9      0.000      0.000
REMARK  Name = 
REMARK  6 active torsions:
REMARK  status: ('A' for Active; 'I' for Inactive)
REMARK    1  A    between atoms: C_1  and  C_2
REMARK    2  A    between atoms: C_7  and  C_8
REMARK    3  A    between atoms: C_12  and  S_13
REMARK    4  A    between atoms: S_13  and  N_16
REMARK    5  A    between atoms: N_16  and  C_17
REMARK    6  A    between atoms: C_22  and  C_23
REMARK                            x       y       z     vdW  Elec       q    Type
REMARK                         _______ _______ _______ _____ _____    ______ ____
ROOT
ATOM      1  S   UNL     1       2.401   4.123  20.226  0.00  0.00    +0.000 S 
ATOM      2  O   UNL     1       1.005   4.051  19.841  0.00  0.00    +0.000 OA
ATOM      3  O   UNL     1       2.899   3.140  21.173  0.00  0.00    +0.000 OA
ENDROOT
BRANCH   1  15
ATOM      4  C   UNL     1       1.706   3.105  17.261  0.00  0.00    +0.000 C 
ATOM      5  C   UNL     1       3.068   3.651  17.618  0.00  0.00    +0.000 A 
ATOM      6  N   UNL     1       3.912   3.630  16.532  0.00  0.00    +0.000 NA
ATOM      7  C   UNL     1       5.121   4.040  16.710  0.00  0.00    +0.000 A 
ATOM      8  S   UNL     1       6.329   4.075  15.446  0.00  0.00    +0.000 S 
ATOM      9  C   UNL     1       7.478   4.751  16.543  0.00  0.00    +0.000 A 
ATOM     10  C   UNL     1       6.974   4.927  17.779  0.00  0.00    +0.000 A 
ATOM     11  C   UNL     1       7.746   5.495  18.917  0.00  0.00    +0.000 C 
ATOM     12  N   UNL     1       5.641   4.521  17.886  0.00  0.00    +0.000 N 
ATOM     13  C   UNL     1       4.833   4.616  19.004  0.00  0.00    +0.000 A 
ATOM     14  O   UNL     1       5.169   5.140  20.066  0.00  0.00    +0.000 OA
ATOM     15  C   UNL     1       3.442   4.109  18.833  0.00  0.00    +0.000 A 
ENDBRANCH   1  15
BRANCH   1  16
ATOM     16  N   UNL     1       2.585   5.627  21.021  0.00  0.00    +0.000 N 
ATOM     17  H   UNL     1       3.480   5.679  21.514  0.00  0.00    +0.000 HD
BRANCH  16  18
ATOM     18  C   UNL     1       2.118   6.790  20.349  0.00  0.00    +0.000 A 
ATOM     19  C   UNL     1       2.564   7.060  19.061  0.00  0.00    +0.000 A 
ATOM     20  C   UNL     1       2.175   8.240  18.422  0.00  0.00    +0.000 A 
ATOM     21  C   UNL     1       1.358   9.170  19.078  0.00  0.00    +0.000 A 
ATOM     22 CL   UNL     1       0.979  10.607  18.205  0.00  0.00    +0.000 Cl
ATOM     23  C   UNL     1       0.900   8.913  20.376  0.00  0.00    +0.000 A 
ATOM     24  C   UNL     1       1.280   7.698  20.995  0.00  0.00    +0.000 A 
BRANCH  23  25
ATOM     25  C   UNL     1       0.040   9.854  21.180  0.00  0.00    +0.000 C 
ATOM     26  F   UNL     1      -1.087  10.316  20.584  0.00  0.00    +0.000 F 
ATOM     27  F   UNL     1      -0.369   9.284  22.350  0.00  0.00    +0.000 F 
ATOM     28  F   UNL     1       0.740  10.965  21.550  0.00  0.00    +0.000 F 
ENDBRANCH  23  25
ENDBRANCH  16  18
ENDBRANCH   1  16
TORSDOF 4
ENDMDL
MODEL 2
REMARK VINA RESULT:      -7.7      5.624      7.778
REMARK  Name = 
REMARK  6 active torsions:
REMARK  status: ('A' for Active; 'I' for Inactive)
REMARK    1  A    between atoms: C_1  and  C_2
REMARK    2  A    between atoms: C_7  and  C_8
REMARK    3  A    between atoms: C_12  and  S_13
REMARK    4  A    between atoms: S_13  and  N_16
REMARK    5  A    between atoms: N_16  and  C_17
REMARK    6  A    between atoms: C_22  and  C_23
REMARK                            x       y       z     vdW  Elec       q    Type
REMARK                         _______ _______ _______ _____ _____    ______ ____
ROOT
ATOM      1  S   UNL     1       6.484   6.175  17.849  0.00  0.00    +0.000 S 
ATOM      2  O   UNL     1       6.331   7.300  16.946  0.00  0.00    +0.000 OA
ATOM      3  O   UNL     1       7.369   6.332  18.990  0.00  0.00    +0.000 OA
ENDROOT
BRANCH   1  15
ATOM      4  C   UNL     1       3.627   7.604  17.527  0.00  0.00    +0.000 C 
ATOM      5  C   UNL     1       3.784   6.292  18.259  0.00  0.00    +0.000 A 
ATOM      6  N   UNL     1       2.578   5.846  18.744  0.00  0.00    +0.000 NA
ATOM      7  C   UNL     1       2.577   4.749  19.420  0.00  0.00    +0.000 A 
ATOM      8  S   UNL     1       1.139   4.040  20.117  0.00  0.00    +0.000 S 
ATOM      9  C   UNL     1       2.066   2.712  20.717  0.00  0.00    +0.000 A 
ATOM     10  C   UNL     1       3.373   2.813  20.412  0.00  0.00    +0.000 A 
ATOM     11  C   UNL     1       4.397   1.807  20.802  0.00  0.00    +0.000 C 
ATOM     12  N   UNL     1       3.675   3.967  19.683  0.00  0.00    +0.000 N 
ATOM     13  C   UNL     1       4.911   4.332  19.182  0.00  0.00    +0.000 A 
ATOM     14  O   UNL     1       5.928   3.642  19.261  0.00  0.00    +0.000 OA
ATOM     15  C   UNL     1       4.943   5.618  18.432  0.00  0.00    +0.000 A 
ENDBRANCH   1  15
BRANCH   1  16
ATOM     16  N   UNL     1       7.190   4.926  16.917  0.00  0.00    +0.000 N 
ATOM     17  H   UNL     1       7.491   4.147  17.507  0.00  0.00    +0.000 HD
BRANCH  16  18
ATOM     18  C   UNL     1       6.600   4.627  15.658  0.00  0.00    +0.000 A 
ATOM     19  C   UNL     1       5.350   4.020  15.617  0.00  0.00    +0.000 A 
ATOM     20  C   UNL     1       4.797   3.649  14.389  0.00  0.00    +0.000 A 
ATOM     21  C   UNL     1       5.500   3.860  13.197  0.00  0.00    +0.000 A 
ATOM     22 CL   UNL     1       4.734   3.323  11.749  0.00  0.00    +0.000 Cl
ATOM     23  C   UNL     1       6.760   4.470  13.221  0.00  0.00    +0.000 A 
ATOM     24  C   UNL     1       7.292   4.866  14.472  0.00  0.00    +0.000 A 
BRANCH  23  25
ATOM     25  C   UNL     1       7.612   4.720  12.003  0.00  0.00    +0.000 C 
ATOM     26  F   UNL     1       7.070   5.483  11.021  0.00  0.00    +0.000 F 
ATOM     27  F   UNL     1       8.791   5.323  12.330  0.00  0.00    +0.000 F 
ATOM     28  F   UNL     1       7.966   3.548  11.401  0.00  0.00    +0.000 F 
ENDBRANCH  23  25
ENDBRANCH  16  18
ENDBRANCH   1  16
TORSDOF 4
ENDMDL
MODEL 3
REMARK VINA RESULT:      -7.6      1.649      2.172
REMARK  Name = 
REMARK  6 active torsions:
REMARK  status: ('A' for Active; 'I' for Inactive)
REMARK    1  A    between atoms: C_1  and  C_2
REMARK    2  A    between atoms: C_7  and  C_8
REMARK    3  A    between atoms: C_12  and  S_13
REMARK    4  A    between atoms: S_13  and  N_16
REMARK    5  A    between atoms: N_16  and  C_17
REMARK    6  A    between atoms: C_22  and  C_23
REMARK                            x       y       z     vdW  Elec       q    Type
REMARK                         _______ _______ _______ _____ _____    ______ ____
ROOT
ATOM      1  S   UNL     1       2.165   4.479  20.403  0.00  0.00    +0.000 S 
ATOM      2  O   UNL     1       0.760   4.612  20.066  0.00  0.00    +0.000 OA
ATOM      3  O   UNL     1       2.548   3.420  21.320  0.00  0.00    +0.000 OA
ENDROOT
BRANCH   1  15
ATOM      4  C   UNL     1       1.306   3.334  17.529  0.00  0.00    +0.000 C 
ATOM      5  C   UNL     1       2.704   3.835  17.802  0.00  0.00    +0.000 A 
ATOM      6  N   UNL     1       3.501   3.715  16.689  0.00  0.00    +0.000 NA
ATOM      7  C   UNL     1       4.733   4.077  16.796  0.00  0.00    +0.000 A 
ATOM      8  S   UNL     1       5.890   3.986  15.488  0.00  0.00    +0.000 S 
ATOM      9  C   UNL     1       7.112   4.667  16.501  0.00  0.00    +0.000 A 
ATOM     10  C   UNL     1       6.666   4.934  17.743  0.00  0.00    +0.000 A 
ATOM     11  C   UNL     1       7.507   5.526  18.817  0.00  0.00    +0.000 C 
ATOM     12  N   UNL     1       5.322   4.596  17.923  0.00  0.00    +0.000 N 
ATOM     13  C   UNL     1       4.564   4.791  19.064  0.00  0.00    +0.000 A 
ATOM     14  O   UNL     1       4.966   5.355  20.081  0.00  0.00    +0.000 OA
ATOM     15  C   UNL     1       3.147   4.341  18.975  0.00  0.00    +0.000 A 
ENDBRANCH   1  15
BRANCH   1  16
ATOM     16  N   UNL     1       2.587   5.928  21.208  0.00  0.00    +0.000 N 
ATOM     17  H   UNL     1       3.597   5.991  21.355  0.00  0.00    +0.000 HD
BRANCH  16  18
ATOM     18  C   UNL     1       1.885   7.112  20.849  0.00  0.00    +0.000 A 
ATOM     19  C   UNL     1       0.901   7.607  21.697  0.00  0.00    +0.000 A 
ATOM     20  C   UNL     1       0.151   8.723  21.317  0.00  0.00    +0.000 A 
ATOM     21  C   UNL     1       0.364   9.336  20.077  0.00  0.00    +0.000 A 
ATOM     22 CL   UNL     1      -0.650  10.679  19.701  0.00  0.00    +0.000 Cl
ATOM     23  C   UNL     1       1.351   8.850  19.211  0.00  0.00    +0.000 A 
ATOM     24  C   UNL     1       2.122   7.736  19.626  0.00  0.00    +0.000 A 
BRANCH  23  25
ATOM     25  C   UNL     1       1.644   9.417  17.845  0.00  0.00    +0.000 C 
ATOM     26  F   UNL     1       2.215  10.647  17.801  0.00  0.00    +0.000 F 
ATOM     27  F   UNL     1       2.471   8.601  17.131  0.00  0.00    +0.000 F 
ATOM     28  F   UNL     1       0.507   9.515  17.098  0.00  0.00    +0.000 F 
ENDBRANCH  23  25
ENDBRANCH  16  18
ENDBRANCH   1  16
TORSDOF 4
ENDMDL
MODEL 4
REMARK VINA RESULT:      -7.5      4.380      6.550
REMARK  Name = 
REMARK  6 active torsions:
REMARK  status: ('A' for Active; 'I' for Inactive)
REMARK    1  A    between atoms: C_1  and  C_2
REMARK    2  A    between atoms: C_7  and  C_8
REMARK    3  A    between atoms: C_12  and  S_13
REMARK    4  A    between atoms: S_13  and  N_16
REMARK    5  A    between atoms: N_16  and  C_17
REMARK    6  A    between atoms: C_22  and  C_23
REMARK                            x       y       z     vdW  Elec       q    Type
REMARK                         _______ _______ _______ _____ _____    ______ ____
ROOT
ATOM      1  S   UNL     1       2.442   2.888  18.432  0.00  0.00    +0.000 S 
ATOM      2  O   UNL     1       1.757   1.755  19.025  0.00  0.00    +0.000 OA
ATOM      3  O   UNL     1       2.223   3.155  17.021  0.00  0.00    +0.000 OA
ENDROOT
BRANCH   1  15
ATOM      4  C   UNL     1       1.550   3.175  21.503  0.00  0.00    +0.000 C 
ATOM      5  C   UNL     1       1.744   4.380  20.613  0.00  0.00    +0.000 A 
ATOM      6  N   UNL     1       1.479   5.546  21.291  0.00  0.00    +0.000 NA
ATOM      7  C   UNL     1       1.575   6.651  20.634  0.00  0.00    +0.000 A 
ATOM      8  S   UNL     1       1.267   8.224  21.332  0.00  0.00    +0.000 S 
ATOM      9  C   UNL     1       1.661   8.984  19.832  0.00  0.00    +0.000 A 
ATOM     10  C   UNL     1       1.994   8.098  18.874  0.00  0.00    +0.000 A 
ATOM     11  C   UNL     1       2.379   8.479  17.489  0.00  0.00    +0.000 C 
ATOM     12  N   UNL     1       1.941   6.773  19.316  0.00  0.00    +0.000 N 
ATOM     13  C   UNL     1       2.269   5.643  18.589  0.00  0.00    +0.000 A 
ATOM     14  O   UNL     1       2.720   5.656  17.444  0.00  0.00    +0.000 OA
ATOM     15  C   UNL     1       2.127   4.351  19.317  0.00  0.00    +0.000 A 
ENDBRANCH   1  15
BRANCH   1  16
ATOM     16  N   UNL     1       4.112   2.533  18.555  0.00  0.00    +0.000 N 
ATOM     17  H   UNL     1       4.311   1.576  18.254  0.00  0.00    +0.000 HD
BRANCH  16  18
ATOM     18  C   UNL     1       5.032   3.556  18.195  0.00  0.00    +0.000 A 
ATOM     19  C   UNL     1       5.520   4.412  19.176  0.00  0.00    +0.000 A 
ATOM     20  C   UNL     1       6.362   5.468  18.822  0.00  0.00    +0.000 A 
ATOM     21  C   UNL     1       6.702   5.691  17.482  0.00  0.00    +0.000 A 
ATOM     22 CL   UNL     1       7.714   7.050  17.163  0.00  0.00    +0.000 Cl
ATOM     23  C   UNL     1       6.220   4.838  16.482  0.00  0.00    +0.000 A 
ATOM     24  C   UNL     1       5.392   3.754  16.863  0.00  0.00    +0.000 A 
BRANCH  23  25
ATOM     25  C   UNL     1       6.502   5.001  15.010  0.00  0.00    +0.000 C 
ATOM     26  F   UNL     1       7.767   5.344  14.663  0.00  0.00    +0.000 F 
ATOM     27  F   UNL     1       6.226   3.859  14.317  0.00  0.00    +0.000 F 
ATOM     28  F   UNL     1       5.699   5.957  14.458  0.00  0.00    +0.000 F 
ENDBRANCH  23  25
ENDBRANCH  16  18
ENDBRANCH   1  16
TORSDOF 4
ENDMDL
MODEL 5
REMARK VINA RESULT:      -7.5      1.039      1.072
REMARK  Name = 
REMARK  6 active torsions:
REMARK  status: ('A' for Active; 'I' for Inactive)
REMARK    1  A    between atoms: C_1  and  C_2
REMARK    2  A    between atoms: C_7  and  C_8
REMARK    3  A    between atoms: C_12  and  S_13
REMARK    4  A    between atoms: S_13  and  N_16
REMARK    5  A    between atoms: N_16  and  C_17
REMARK    6  A    between atoms: C_22  and  C_23
REMARK                            x       y       z     vdW  Elec       q    Type
REMARK                         _______ _______ _______ _____ _____    ______ ____
ROOT
ATOM      1  S   UNL     1       2.645   4.743  19.695  0.00  0.00    +0.000 S 
ATOM      2  O   UNL     1       1.235   4.816  19.365  0.00  0.00    +0.000 OA
ATOM      3  O   UNL     1       3.058   3.799  20.719  0.00  0.00    +0.000 OA
ENDROOT
BRANCH   1  15
ATOM      4  C   UNL     1       2.166   2.565  17.385  0.00  0.00    +0.000 C 
ATOM      5  C   UNL     1       3.342   3.513  17.356  0.00  0.00    +0.000 A 
ATOM      6  N   UNL     1       4.130   3.293  16.251  0.00  0.00    +0.000 NA
ATOM      7  C   UNL     1       5.189   4.015  16.122  0.00  0.00    +0.000 A 
ATOM      8  S   UNL     1       6.308   3.866  14.787  0.00  0.00    +0.000 S 
ATOM      9  C   UNL     1       7.265   5.154  15.426  0.00  0.00    +0.000 A 
ATOM     10  C   UNL     1       6.767   5.650  16.574  0.00  0.00    +0.000 A 
ATOM     11  C   UNL     1       7.389   6.765  17.337  0.00  0.00    +0.000 C 
ATOM     12  N   UNL     1       5.595   5.007  16.981  0.00  0.00    +0.000 N 
ATOM     13  C   UNL     1       4.821   5.314  18.086  0.00  0.00    +0.000 A 
ATOM     14  O   UNL     1       5.035   6.257  18.847  0.00  0.00    +0.000 OA
ATOM     15  C   UNL     1       3.613   4.464  18.277  0.00  0.00    +0.000 A 
ENDBRANCH   1  15
BRANCH   1  16
ATOM     16  N   UNL     1       3.051   6.280  20.329  0.00  0.00    +0.000 N 
ATOM     17  H   UNL     1       4.059   6.447  20.280  0.00  0.00    +0.000 HD
BRANCH  16  18
ATOM     18  C   UNL     1       2.175   7.364  20.046  0.00  0.00    +0.000 A 
ATOM     19  C   UNL     1       2.198   7.950  18.786  0.00  0.00    +0.000 A 
ATOM     20  C   UNL     1       1.401   9.065  18.522  0.00  0.00    +0.000 A 
ATOM     21  C   UNL     1       0.593   9.617  19.524  0.00  0.00    +0.000 A 
ATOM     22 CL   UNL     1      -0.315  11.018  19.092  0.00  0.00    +0.000 Cl
ATOM     23  C   UNL     1       0.558   9.040  20.799  0.00  0.00    +0.000 A 
ATOM     24  C   UNL     1       1.351   7.891  21.039  0.00  0.00    +0.000 A 
BRANCH  23  25
ATOM     25  C   UNL     1      -0.254   9.567  21.954  0.00  0.00    +0.000 C 
ATOM     26  F   UNL     1      -1.104  10.590  21.689  0.00  0.00    +0.000 F 
ATOM     27  F   UNL     1      -1.018   8.589  22.518  0.00  0.00    +0.000 F 
ATOM     28  F   UNL     1       0.554  10.014  22.959  0.00  0.00    +0.000 F 
ENDBRANCH  23  25
ENDBRANCH  16  18
ENDBRANCH   1  16
TORSDOF 4
ENDMDL
MODEL 6
REMARK VINA RESULT:      -7.4      5.474      7.839
REMARK  Name = 
REMARK  6 active torsions:
REMARK  status: ('A' for Active; 'I' for Inactive)
REMARK    1  A    between atoms: C_1  and  C_2
REMARK    2  A    between atoms: C_7  and  C_8
REMARK    3  A    between atoms: C_12  and  S_13
REMARK    4  A    between atoms: S_13  and  N_16
REMARK    5  A    between atoms: N_16  and  C_17
REMARK    6  A    between atoms: C_22  and  C_23
REMARK                            x       y       z     vdW  Elec       q    Type
REMARK                         _______ _______ _______ _____ _____    ______ ____
ROOT
ATOM      1  S   UNL     1       5.871   6.127  17.012  0.00  0.00    +0.000 S 
ATOM      2  O   UNL     1       5.384   6.865  15.862  0.00  0.00    +0.000 OA
ATOM      3  O   UNL     1       6.885   6.751  17.844  0.00  0.00    +0.000 OA
ENDROOT
BRANCH   1  15
ATOM      4  C   UNL     1       3.119   7.677  17.591  0.00  0.00    +0.000 C 
ATOM      5  C   UNL     1       3.436   6.348  18.235  0.00  0.00    +0.000 A 
ATOM      6  N   UNL     1       2.419   5.943  19.067  0.00  0.00    +0.000 NA
ATOM      7  C   UNL     1       2.578   4.836  19.707  0.00  0.00    +0.000 A 
ATOM      8  S   UNL     1       1.395   4.175  20.811  0.00  0.00    +0.000 S 
ATOM      9  C   UNL     1       2.403   2.801  21.092  0.00  0.00    +0.000 A 
ATOM     10  C   UNL     1       3.556   2.853  20.399  0.00  0.00    +0.000 A 
ATOM     11  C   UNL     1       4.605   1.800  20.452  0.00  0.00    +0.000 C 
ATOM     12  N   UNL     1       3.668   4.006  19.616  0.00  0.00    +0.000 N 
ATOM     13  C   UNL     1       4.705   4.328  18.759  0.00  0.00    +0.000 A 
ATOM     14  O   UNL     1       5.665   3.596  18.520  0.00  0.00    +0.000 OA
ATOM     15  C   UNL     1       4.561   5.624  18.040  0.00  0.00    +0.000 A 
ENDBRANCH   1  15
BRANCH   1  16
ATOM     16  N   UNL     1       6.625   4.728  16.379  0.00  0.00    +0.000 N 
ATOM     17  H   UNL     1       6.306   3.884  16.860  0.00  0.00    +0.000 HD
BRANCH  16  18
ATOM     18  C   UNL     1       6.825   4.664  14.972  0.00  0.00    +0.000 A 
ATOM     19  C   UNL     1       7.885   5.358  14.400  0.00  0.00    +0.000 A 
ATOM     20  C   UNL     1       8.043   5.367  13.013  0.00  0.00    +0.000 A 
ATOM     21  C   UNL     1       7.128   4.704  12.186  0.00  0.00    +0.000 A 
ATOM     22 CL   UNL     1       7.403   4.821  10.488  0.00  0.00    +0.000 Cl
ATOM     23  C   UNL     1       6.054   4.001  12.746  0.00  0.00    +0.000 A 
ATOM     24  C   UNL     1       5.927   3.978  14.156  0.00  0.00    +0.000 A 
BRANCH  23  25
ATOM     25  C   UNL     1       4.999   3.277  11.949  0.00  0.00    +0.000 C 
ATOM     26  F   UNL     1       4.527   3.904  10.844  0.00  0.00    +0.000 F 
ATOM     27  F   UNL     1       5.441   2.059  11.522  0.00  0.00    +0.000 F 
ATOM     28  F   UNL     1       3.902   3.009  12.715  0.00  0.00    +0.000 F 
ENDBRANCH  23  25
ENDBRANCH  16  18
ENDBRANCH   1  16
TORSDOF 4
ENDMDL
MODEL 7
REMARK VINA RESULT:      -7.2      5.303      7.649
REMARK  Name = 
REMARK  6 active torsions:
REMARK  status: ('A' for Active; 'I' for Inactive)
REMARK    1  A    between atoms: C_1  and  C_2
REMARK    2  A    between atoms: C_7  and  C_8
REMARK    3  A    between atoms: C_12  and  S_13
REMARK    4  A    between atoms: S_13  and  N_16
REMARK    5  A    between atoms: N_16  and  C_17
REMARK    6  A    between atoms: C_22  and  C_23
REMARK                            x       y       z     vdW  Elec       q    Type
REMARK                         _______ _______ _______ _____ _____    ______ ____
ROOT
ATOM      1  S   UNL     1       4.283   3.729  18.379  0.00  0.00    +0.000 S 
ATOM      2  O   UNL     1       5.696   4.006  18.562  0.00  0.00    +0.000 OA
ATOM      3  O   UNL     1       3.808   2.389  18.675  0.00  0.00    +0.000 OA
ENDROOT
BRANCH   1  15
ATOM      4  C   UNL     1       2.741   3.250  21.155  0.00  0.00    +0.000 C 
ATOM      5  C   UNL     1       2.674   4.569  20.423  0.00  0.00    +0.000 A 
ATOM      6  N   UNL     1       1.883   5.471  21.095  0.00  0.00    +0.000 NA
ATOM      7  C   UNL     1       1.714   6.631  20.559  0.00  0.00    +0.000 A 
ATOM      8  S   UNL     1       0.737   7.894  21.268  0.00  0.00    +0.000 S 
ATOM      9  C   UNL     1       1.134   8.955  19.964  0.00  0.00    +0.000 A 
ATOM     10  C   UNL     1       1.946   8.379  19.057  0.00  0.00    +0.000 A 
ATOM     11  C   UNL     1       2.446   9.066  17.837  0.00  0.00    +0.000 C 
ATOM     12  N   UNL     1       2.275   7.060  19.381  0.00  0.00    +0.000 N 
ATOM     13  C   UNL     1       3.122   6.221  18.679  0.00  0.00    +0.000 A 
ATOM     14  O   UNL     1       3.762   6.551  17.682  0.00  0.00    +0.000 OA
ATOM     15  C   UNL     1       3.299   4.860  19.260  0.00  0.00    +0.000 A 
ENDBRANCH   1  15
BRANCH   1  16
ATOM     16  N   UNL     1       3.983   3.940  16.708  0.00  0.00    +0.000 N 
ATOM     17  H   UNL     1       3.115   4.458  16.550  0.00  0.00    +0.000 HD
BRANCH  16  18
ATOM     18  C   UNL     1       5.095   4.220  15.867  0.00  0.00    +0.000 A 
ATOM     19  C   UNL     1       6.110   5.049  16.329  0.00  0.00    +0.000 A 
ATOM     20  C   UNL     1       7.166   5.394  15.483  0.00  0.00    +0.000 A 
ATOM     21  C   UNL     1       7.203   4.931  14.162  0.00  0.00    +0.000 A 
ATOM     22 CL   UNL     1       8.534   5.457  13.201  0.00  0.00    +0.000 Cl
ATOM     23  C   UNL     1       6.189   4.094  13.681  0.00  0.00    +0.000 A 
ATOM     24  C   UNL     1       5.141   3.731  14.562  0.00  0.00    +0.000 A 
BRANCH  23  25
ATOM     25  C   UNL     1       6.117   3.562  12.273  0.00  0.00    +0.000 C 
ATOM     26  F   UNL     1       4.881   3.439  11.726  0.00  0.00    +0.000 F 
ATOM     27  F   UNL     1       6.828   4.339  11.406  0.00  0.00    +0.000 F 
ATOM     28  F   UNL     1       6.680   2.322  12.186  0.00  0.00    +0.000 F 
ENDBRANCH  23  25
ENDBRANCH  16  18
ENDBRANCH   1  16
TORSDOF 4
ENDMDL
MODEL 8
REMARK VINA RESULT:      -7.2      5.048      8.247
REMARK  Name = 
REMARK  6 active torsions:
REMARK  status: ('A' for Active; 'I' for Inactive)
REMARK    1  A    between atoms: C_1  and  C_2
REMARK    2  A    between atoms: C_7  and  C_8
REMARK    3  A    between atoms: C_12  and  S_13
REMARK    4  A    between atoms: S_13  and  N_16
REMARK    5  A    between atoms: N_16  and  C_17
REMARK    6  A    between atoms: C_22  and  C_23
REMARK                            x       y       z     vdW  Elec       q    Type
REMARK                         _______ _______ _______ _____ _____    ______ ____
ROOT
ATOM      1  S   UNL     1       1.410   9.741  18.544  0.00  0.00    +0.000 S 
ATOM      2  O   UNL     1       0.248   9.245  17.829  0.00  0.00    +0.000 OA
ATOM      3  O   UNL     1       2.619  10.000  17.782  0.00  0.00    +0.000 OA
ENDROOT
BRANCH   1  15
ATOM      4  C   UNL     1       2.394  12.747  17.995  0.00  0.00    +0.000 C 
ATOM      5  C   UNL     1       1.496  12.402  19.159  0.00  0.00    +0.000 A 
ATOM      6  N   UNL     1       1.199  13.518  19.905  0.00  0.00    +0.000 NA
ATOM      7  C   UNL     1       0.464  13.357  20.952  0.00  0.00    +0.000 A 
ATOM      8  S   UNL     1      -0.005  14.660  22.018  0.00  0.00    +0.000 S 
ATOM      9  C   UNL     1      -0.917  13.558  22.987  0.00  0.00    +0.000 A 
ATOM     10  C   UNL     1      -0.858  12.294  22.529  0.00  0.00    +0.000 A 
ATOM     11  C   UNL     1      -1.552  11.146  23.171  0.00  0.00    +0.000 C 
ATOM     12  N   UNL     1      -0.071  12.167  21.381  0.00  0.00    +0.000 N 
ATOM     13  C   UNL     1       0.147  11.014  20.649  0.00  0.00    +0.000 A 
ATOM     14  O   UNL     1      -0.383   9.928  20.883  0.00  0.00    +0.000 OA
ATOM     15  C   UNL     1       1.027  11.170  19.457  0.00  0.00    +0.000 A 
ENDBRANCH   1  15
BRANCH   1  16
ATOM     16  N   UNL     1       1.842   8.500  19.640  0.00  0.00    +0.000 N 
ATOM     17  H   UNL     1       1.194   8.461  20.430  0.00  0.00    +0.000 HD
BRANCH  16  18
ATOM     18  C   UNL     1       2.315   7.274  19.098  0.00  0.00    +0.000 A 
ATOM     19  C   UNL     1       3.257   7.297  18.076  0.00  0.00    +0.000 A 
ATOM     20  C   UNL     1       3.669   6.102  17.482  0.00  0.00    +0.000 A 
ATOM     21  C   UNL     1       3.122   4.878  17.888  0.00  0.00    +0.000 A 
ATOM     22 CL   UNL     1       3.677   3.475  17.053  0.00  0.00    +0.000 Cl
ATOM     23  C   UNL     1       2.172   4.837  18.916  0.00  0.00    +0.000 A 
ATOM     24  C   UNL     1       1.789   6.056  19.527  0.00  0.00    +0.000 A 
BRANCH  23  25
ATOM     25  C   UNL     1       1.503   3.581  19.411  0.00  0.00    +0.000 C 
ATOM     26  F   UNL     1       2.311   2.601  19.885  0.00  0.00    +0.000 F 
ATOM     27  F   UNL     1       0.618   3.847  20.415  0.00  0.00    +0.000 F 
ATOM     28  F   UNL     1       0.760   2.998  18.426  0.00  0.00    +0.000 F 
ENDBRANCH  23  25
ENDBRANCH  16  18
ENDBRANCH   1  16
TORSDOF 4
ENDMDL
MODEL 9
REMARK VINA RESULT:      -7.2      5.064      7.950
REMARK  Name = 
REMARK  6 active torsions:
REMARK  status: ('A' for Active; 'I' for Inactive)
REMARK    1  A    between atoms: C_1  and  C_2
REMARK    2  A    between atoms: C_7  and  C_8
REMARK    3  A    between atoms: C_12  and  S_13
REMARK    4  A    between atoms: S_13  and  N_16
REMARK    5  A    between atoms: N_16  and  C_17
REMARK    6  A    between atoms: C_22  and  C_23
REMARK                            x       y       z     vdW  Elec       q    Type
REMARK                         _______ _______ _______ _____ _____    ______ ____
ROOT
ATOM      1  S   UNL     1       0.148   9.086  20.866  0.00  0.00    +0.000 S 
ATOM      2  O   UNL     1      -0.596   8.422  21.920  0.00  0.00    +0.000 OA
ATOM      3  O   UNL     1      -0.286   8.884  19.494  0.00  0.00    +0.000 OA
ENDROOT
BRANCH   1  15
ATOM      4  C   UNL     1      -1.242  10.781  23.212  0.00  0.00    +0.000 C 
ATOM      5  C   UNL     1      -0.370  11.434  22.165  0.00  0.00    +0.000 A 
ATOM      6  N   UNL     1      -0.286  12.791  22.365  0.00  0.00    +0.000 NA
ATOM      7  C   UNL     1       0.403  13.476  21.519  0.00  0.00    +0.000 A 
ATOM      8  S   UNL     1       0.611  15.209  21.613  0.00  0.00    +0.000 S 
ATOM      9  C   UNL     1       1.620  15.180  20.211  0.00  0.00    +0.000 A 
ATOM     10  C   UNL     1       1.777  13.940  19.712  0.00  0.00    +0.000 A 
ATOM     11  C   UNL     1       2.597  13.626  18.511  0.00  0.00    +0.000 C 
ATOM     12  N   UNL     1       1.085  12.968  20.440  0.00  0.00    +0.000 N 
ATOM     13  C   UNL     1       1.084  11.604  20.210  0.00  0.00    +0.000 A 
ATOM     14  O   UNL     1       1.756  11.041  19.346  0.00  0.00    +0.000 OA
ATOM     15  C   UNL     1       0.260  10.797  21.153  0.00  0.00    +0.000 A 
ENDBRANCH   1  15
BRANCH   1  16
ATOM     16  N   UNL     1       1.725   8.425  20.926  0.00  0.00    +0.000 N 
ATOM     17  H   UNL     1       2.095   8.435  21.880  0.00  0.00    +0.000 HD
BRANCH  16  18
ATOM     18  C   UNL     1       1.999   7.293  20.111  0.00  0.00    +0.000 A 
ATOM     19  C   UNL     1       2.516   7.479  18.834  0.00  0.00    +0.000 A 
ATOM     20  C   UNL     1       2.714   6.380  17.996  0.00  0.00    +0.000 A 
ATOM     21  C   UNL     1       2.373   5.089  18.420  0.00  0.00    +0.000 A 
ATOM     22 CL   UNL     1       2.623   3.818  17.283  0.00  0.00    +0.000 Cl
ATOM     23  C   UNL     1       1.851   4.884  19.702  0.00  0.00    +0.000 A 
ATOM     24  C   UNL     1       1.685   6.008  20.549  0.00  0.00    +0.000 A 
BRANCH  23  25
ATOM     25  C   UNL     1       1.427   3.545  20.248  0.00  0.00    +0.000 C 
ATOM     26  F   UNL     1       0.373   2.942  19.644  0.00  0.00    +0.000 F 
ATOM     27  F   UNL     1       2.446   2.639  20.202  0.00  0.00    +0.000 F 
ATOM     28  F   UNL     1       1.090   3.635  21.567  0.00  0.00    +0.000 F 
ENDBRANCH  23  25
ENDBRANCH  16  18
ENDBRANCH   1  16
TORSDOF 4
ENDMDL
