MODEL 1
REMARK VINA RESULT:      -9.0      0.000      0.000
REMARK  Name = 
REMARK  7 active torsions:
REMARK  status: ('A' for Active; 'I' for Inactive)
REMARK    1  A    between atoms: C_1  and  C_2
REMARK    2  A    between atoms: N_4  and  C_5
REMARK    3  A    between atoms: C_8  and  N_9
REMARK    4  A    between atoms: N_13  and  C_14
REMARK    5  A    between atoms: C_19  and  P_20
REMARK    6  A    between atoms: P_20  and  C_21
REMARK    7  A    between atoms: P_20  and  C_22
REMARK                            x       y       z     vdW  Elec       q    Type
REMARK                         _______ _______ _______ _____ _____    ______ ____
ROOT
ATOM      1  N   UNL     1       5.201   6.042  17.704  0.00  0.00    +0.000 N 
ATOM      2  C   UNL     1       4.120   5.648  18.505  0.00  0.00    +0.000 A 
ATOM      3  N   UNL     1       3.489   6.633  19.158  0.00  0.00    +0.000 NA
ATOM      4  C   UNL     1       2.418   6.373  19.959  0.00  0.00    +0.000 A 
ATOM      5  N   UNL     1       1.767   7.461  20.585  0.00  0.00    +0.000 N 
ATOM      6  C   UNL     1       2.024   5.026  20.092  0.00  0.00    +0.000 A 
ATOM      7  C   UNL     1       1.022   4.264  20.779  0.00  0.00    +0.000 A 
ATOM      8  C   UNL     1       1.172   2.942  20.426  0.00  0.00    +0.000 A 
ATOM      9  N   UNL     1       2.225   2.855  19.556  0.00  0.00    +0.000 N 
ATOM     10  C   UNL     1       2.748   4.105  19.356  0.00  0.00    +0.000 A 
ATOM     11  N   UNL     1       3.788   4.353  18.559  0.00  0.00    +0.000 NA
ATOM     12  H   UNL     1       5.162   7.052  17.633  0.00  0.00    +0.000 HD
ATOM     13  H   UNL     1       0.969   7.146  21.127  0.00  0.00    +0.000 HD
ATOM     14  H   UNL     1       2.585   2.024  19.110  0.00  0.00    +0.000 HD
ENDROOT
BRANCH   1  18
ATOM     15  C   UNL     1       6.367   4.074  14.152  0.00  0.00    +0.000 A 
ATOM     16  C   UNL     1       5.636   5.258  14.093  0.00  0.00    +0.000 A 
ATOM     17  C   UNL     1       5.257   5.918  15.262  0.00  0.00    +0.000 A 
ATOM     18  C   UNL     1       5.589   5.403  16.516  0.00  0.00    +0.000 A 
ATOM     19  C   UNL     1       6.375   4.246  16.575  0.00  0.00    +0.000 A 
ATOM     20  C   UNL     1       6.734   3.572  15.402  0.00  0.00    +0.000 A 
BRANCH  15  24
ATOM     21  C   UNL     1       6.557   2.093  10.952  0.00  0.00    +0.000 C 
ATOM     22  C   UNL     1       5.872   2.909  12.010  0.00  0.00    +0.000 C 
ATOM     23  O   UNL     1       4.663   3.104  11.945  0.00  0.00    +0.000 OA
ATOM     24  N   UNL     1       6.736   3.362  12.988  0.00  0.00    +0.000 N 
ATOM     25  H   UNL     1       7.730   3.248  12.831  0.00  0.00    +0.000 HD
ENDBRANCH  15  24
ENDBRANCH   1  18
BRANCH   5  26
ATOM     26  C   UNL     1       1.519   8.707  19.939  0.00  0.00    +0.000 A 
ATOM     27  C   UNL     1       1.720   8.828  18.545  0.00  0.00    +0.000 A 
ATOM     28  C   UNL     1       1.395   9.989  17.848  0.00  0.00    +0.000 A 
ATOM     29  C   UNL     1       0.788  11.033  18.520  0.00  0.00    +0.000 A 
ATOM     30  C   UNL     1       0.548  10.922  19.889  0.00  0.00    +0.000 A 
ATOM     31  C   UNL     1       0.987   9.811  20.647  0.00  0.00    +0.000 A 
BRANCH  31  32
ATOM     32  P   UNL     1       0.678   9.712  22.448  0.00  0.00    +0.000 P 
ATOM     33  C   UNL     1      -0.564  11.305  22.347  0.00  0.00    +0.000 C 
ATOM     34  C   UNL     1      -0.906   8.432  22.190  0.00  0.00    +0.000 C 
ATOM     35  O   UNL     1       0.417   9.626  23.972  0.00  0.00    +0.000 OA
ENDBRANCH  31  32
ENDBRANCH   5  26
TORSDOF 4
ENDMDL
MODEL 2
REMARK VINA RESULT:      -8.4      3.884      6.115
REMARK  Name = 
REMARK  7 active torsions:
REMARK  status: ('A' for Active; 'I' for Inactive)
REMARK    1  A    between atoms: C_1  and  C_2
REMARK    2  A    between atoms: N_4  and  C_5
REMARK    3  A    between atoms: C_8  and  N_9
REMARK    4  A    between atoms: N_13  and  C_14
REMARK    5  A    between atoms: C_19  and  P_20
REMARK    6  A    between atoms: P_20  and  C_21
REMARK    7  A    between atoms: P_20  and  C_22
REMARK                            x       y       z     vdW  Elec       q    Type
REMARK                         _______ _______ _______ _____ _____    ______ ____
ROOT
ATOM      1  N   UNL     1       1.698   9.015  18.385  0.00  0.00    +0.000 N 
ATOM      2  C   UNL     1       0.882   9.581  19.375  0.00  0.00    +0.000 A 
ATOM      3  N   UNL     1      -0.049  10.441  18.941  0.00  0.00    +0.000 NA
ATOM      4  C   UNL     1      -0.907  11.047  19.809  0.00  0.00    +0.000 A 
ATOM      5  N   UNL     1      -1.898  11.908  19.284  0.00  0.00    +0.000 N 
ATOM      6  C   UNL     1      -0.753  10.754  21.179  0.00  0.00    +0.000 A 
ATOM      7  C   UNL     1      -1.360  11.111  22.428  0.00  0.00    +0.000 A 
ATOM      8  C   UNL     1      -0.732  10.404  23.428  0.00  0.00    +0.000 A 
ATOM      9  N   UNL     1       0.238   9.630  22.851  0.00  0.00    +0.000 N 
ATOM     10  C   UNL     1       0.237   9.841  21.498  0.00  0.00    +0.000 A 
ATOM     11  N   UNL     1       1.071   9.233  20.653  0.00  0.00    +0.000 NA
ATOM     12  H   UNL     1       1.274   9.237  17.493  0.00  0.00    +0.000 HD
ATOM     13  H   UNL     1      -2.493  12.272  20.020  0.00  0.00    +0.000 HD
ATOM     14  H   UNL     1       0.870   8.992  23.313  0.00  0.00    +0.000 HD
ENDROOT
BRANCH   1  18
ATOM     15  C   UNL     1       3.320   5.119  18.591  0.00  0.00    +0.000 A 
ATOM     16  C   UNL     1       3.815   6.040  17.671  0.00  0.00    +0.000 A 
ATOM     17  C   UNL     1       3.291   7.331  17.605  0.00  0.00    +0.000 A 
ATOM     18  C   UNL     1       2.252   7.727  18.448  0.00  0.00    +0.000 A 
ATOM     19  C   UNL     1       1.794   6.822  19.414  0.00  0.00    +0.000 A 
ATOM     20  C   UNL     1       2.305   5.519  19.462  0.00  0.00    +0.000 A 
BRANCH  15  24
ATOM     21  C   UNL     1       3.909   1.401  18.425  0.00  0.00    +0.000 C 
ATOM     22  C   UNL     1       3.212   2.686  18.083  0.00  0.00    +0.000 C 
ATOM     23  O   UNL     1       2.219   2.670  17.363  0.00  0.00    +0.000 OA
ATOM     24  N   UNL     1       3.804   3.793  18.660  0.00  0.00    +0.000 N 
ATOM     25  H   UNL     1       4.704   3.669  19.107  0.00  0.00    +0.000 HD
ENDBRANCH  15  24
ENDBRANCH   1  18
BRANCH   5  26
ATOM     26  C   UNL     1      -2.628  11.633  18.090  0.00  0.00    +0.000 A 
ATOM     27  C   UNL     1      -1.942  11.212  16.928  0.00  0.00    +0.000 A 
ATOM     28  C   UNL     1      -2.613  10.832  15.770  0.00  0.00    +0.000 A 
ATOM     29  C   UNL     1      -3.995  10.790  15.772  0.00  0.00    +0.000 A 
ATOM     30  C   UNL     1      -4.692  11.167  16.919  0.00  0.00    +0.000 A 
ATOM     31  C   UNL     1      -4.042  11.684  18.064  0.00  0.00    +0.000 A 
BRANCH  31  32
ATOM     32  P   UNL     1      -4.992  12.194  19.542  0.00  0.00    +0.000 P 
ATOM     33  C   UNL     1      -6.124  13.436  18.416  0.00  0.00    +0.000 C 
ATOM     34  C   UNL     1      -6.358  10.684  19.290  0.00  0.00    +0.000 C 
ATOM     35  O   UNL     1      -5.795  12.626  20.794  0.00  0.00    +0.000 OA
ENDBRANCH  31  32
ENDBRANCH   5  26
TORSDOF 4
ENDMDL
MODEL 3
REMARK VINA RESULT:      -8.3      4.091      6.851
REMARK  Name = 
REMARK  7 active torsions:
REMARK  status: ('A' for Active; 'I' for Inactive)
REMARK    1  A    between atoms: C_1  and  C_2
REMARK    2  A    between atoms: N_4  and  C_5
REMARK    3  A    between atoms: C_8  and  N_9
REMARK    4  A    between atoms: N_13  and  C_14
REMARK    5  A    between atoms: C_19  and  P_20
REMARK    6  A    between atoms: P_20  and  C_21
REMARK    7  A    between atoms: P_20  and  C_22
REMARK                            x       y       z     vdW  Elec       q    Type
REMARK                         _______ _______ _______ _____ _____    ______ ____
ROOT
ATOM      1  N   UNL     1       0.459   9.752  20.209  0.00  0.00    +0.000 N 
ATOM      2  C   UNL     1      -0.648  10.338  19.578  0.00  0.00    +0.000 A 
ATOM      3  N   UNL     1      -0.937  11.590  19.956  0.00  0.00    +0.000 NA
ATOM      4  C   UNL     1      -1.985  12.267  19.406  0.00  0.00    +0.000 A 
ATOM      5  N   UNL     1      -2.210  13.602  19.813  0.00  0.00    +0.000 N 
ATOM      6  C   UNL     1      -2.764  11.584  18.450  0.00  0.00    +0.000 A 
ATOM      7  C   UNL     1      -3.910  11.831  17.625  0.00  0.00    +0.000 A 
ATOM      8  C   UNL     1      -4.133  10.712  16.855  0.00  0.00    +0.000 A 
ATOM      9  N   UNL     1      -3.177   9.785  17.171  0.00  0.00    +0.000 N 
ATOM     10  C   UNL     1      -2.354  10.300  18.137  0.00  0.00    +0.000 A 
ATOM     11  N   UNL     1      -1.321   9.636  18.660  0.00  0.00    +0.000 NA
ATOM     12  H   UNL     1       0.944  10.493  20.700  0.00  0.00    +0.000 HD
ATOM     13  H   UNL     1      -2.994  14.008  19.313  0.00  0.00    +0.000 HD
ATOM     14  H   UNL     1      -3.063   8.863  16.777  0.00  0.00    +0.000 HD
ENDROOT
BRANCH   1  18
ATOM     15  C   UNL     1       3.004   6.885  18.433  0.00  0.00    +0.000 A 
ATOM     16  C   UNL     1       2.680   8.056  17.752  0.00  0.00    +0.000 A 
ATOM     17  C   UNL     1       1.849   9.011  18.337  0.00  0.00    +0.000 A 
ATOM     18  C   UNL     1       1.313   8.812  19.610  0.00  0.00    +0.000 A 
ATOM     19  C   UNL     1       1.686   7.664  20.319  0.00  0.00    +0.000 A 
ATOM     20  C   UNL     1       2.501   6.695  19.721  0.00  0.00    +0.000 A 
BRANCH  15  24
ATOM     21  C   UNL     1       4.514   3.748  16.991  0.00  0.00    +0.000 C 
ATOM     22  C   UNL     1       3.394   4.622  17.474  0.00  0.00    +0.000 C 
ATOM     23  O   UNL     1       2.247   4.187  17.503  0.00  0.00    +0.000 OA
ATOM     24  N   UNL     1       3.816   5.881  17.855  0.00  0.00    +0.000 N 
ATOM     25  H   UNL     1       4.768   6.148  17.637  0.00  0.00    +0.000 HD
ENDBRANCH  15  24
ENDBRANCH   1  18
BRANCH   5  26
ATOM     26  C   UNL     1      -1.165  14.546  20.030  0.00  0.00    +0.000 A 
ATOM     27  C   UNL     1      -0.267  14.853  18.983  0.00  0.00    +0.000 A 
ATOM     28  C   UNL     1       0.706  15.841  19.107  0.00  0.00    +0.000 A 
ATOM     29  C   UNL     1       0.754  16.601  20.261  0.00  0.00    +0.000 A 
ATOM     30  C   UNL     1      -0.146  16.340  21.294  0.00  0.00    +0.000 A 
ATOM     31  C   UNL     1      -1.056  15.258  21.249  0.00  0.00    +0.000 A 
BRANCH  31  32
ATOM     32  P   UNL     1      -2.204  14.928  22.635  0.00  0.00    +0.000 P 
ATOM     33  C   UNL     1      -1.133  13.295  23.164  0.00  0.00    +0.000 C 
ATOM     34  C   UNL     1      -1.112  16.090  23.926  0.00  0.00    +0.000 C 
ATOM     35  O   UNL     1      -3.176  14.649  23.808  0.00  0.00    +0.000 OA
ENDBRANCH  31  32
ENDBRANCH   5  26
TORSDOF 4
ENDMDL
MODEL 4
REMARK VINA RESULT:      -8.3      4.184      6.689
REMARK  Name = 
REMARK  7 active torsions:
REMARK  status: ('A' for Active; 'I' for Inactive)
REMARK    1  A    between atoms: C_1  and  C_2
REMARK    2  A    between atoms: N_4  and  C_5
REMARK    3  A    between atoms: C_8  and  N_9
REMARK    4  A    between atoms: N_13  and  C_14
REMARK    5  A    between atoms: C_19  and  P_20
REMARK    6  A    between atoms: P_20  and  C_21
REMARK    7  A    between atoms: P_20  and  C_22
REMARK                            x       y       z     vdW  Elec       q    Type
REMARK                         _______ _______ _______ _____ _____    ______ ____
ROOT
ATOM      1  N   UNL     1       1.579   9.305  18.467  0.00  0.00    +0.000 N 
ATOM      2  C   UNL     1       0.696   9.963  19.335  0.00  0.00    +0.000 A 
ATOM      3  N   UNL     1      -0.246  10.713  18.748  0.00  0.00    +0.000 NA
ATOM      4  C   UNL     1      -1.167  11.393  19.488  0.00  0.00    +0.000 A 
ATOM      5  N   UNL     1      -2.164  12.129  18.808  0.00  0.00    +0.000 N 
ATOM      6  C   UNL     1      -1.066  11.297  20.891  0.00  0.00    +0.000 A 
ATOM      7  C   UNL     1      -1.744  11.793  22.052  0.00  0.00    +0.000 A 
ATOM      8  C   UNL     1      -1.138  11.258  23.165  0.00  0.00    +0.000 A 
ATOM      9  N   UNL     1      -0.112  10.457  22.741  0.00  0.00    +0.000 N 
ATOM     10  C   UNL     1      -0.058  10.481  21.373  0.00  0.00    +0.000 A 
ATOM     11  N   UNL     1       0.838   9.801  20.655  0.00  0.00    +0.000 NA
ATOM     12  H   UNL     1       1.189   9.383  17.536  0.00  0.00    +0.000 HD
ATOM     13  H   UNL     1      -2.807  12.563  19.462  0.00  0.00    +0.000 HD
ATOM     14  H   UNL     1       0.521   9.917  23.312  0.00  0.00    +0.000 HD
ENDROOT
BRANCH   1  18
ATOM     15  C   UNL     1       3.425   5.583  19.237  0.00  0.00    +0.000 A 
ATOM     16  C   UNL     1       2.471   6.090  20.115  0.00  0.00    +0.000 A 
ATOM     17  C   UNL     1       1.850   7.313  19.861  0.00  0.00    +0.000 A 
ATOM     18  C   UNL     1       2.178   8.063  18.731  0.00  0.00    +0.000 A 
ATOM     19  C   UNL     1       3.092   7.526  17.816  0.00  0.00    +0.000 A 
ATOM     20  C   UNL     1       3.732   6.310  18.085  0.00  0.00    +0.000 A 
BRANCH  15  24
ATOM     21  C   UNL     1       4.487   2.012  19.798  0.00  0.00    +0.000 C 
ATOM     22  C   UNL     1       3.549   3.102  19.367  0.00  0.00    +0.000 C 
ATOM     23  O   UNL     1       2.423   2.819  18.970  0.00  0.00    +0.000 OA
ATOM     24  N   UNL     1       4.098   4.364  19.482  0.00  0.00    +0.000 N 
ATOM     25  H   UNL     1       5.088   4.434  19.683  0.00  0.00    +0.000 HD
ENDBRANCH  15  24
ENDBRANCH   1  18
BRANCH   5  26
ATOM     26  C   UNL     1      -2.827  11.662  17.635  0.00  0.00    +0.000 A 
ATOM     27  C   UNL     1      -2.067  11.199  16.537  0.00  0.00    +0.000 A 
ATOM     28  C   UNL     1      -2.661  10.637  15.410  0.00  0.00    +0.000 A 
ATOM     29  C   UNL     1      -4.030  10.453  15.389  0.00  0.00    +0.000 A 
ATOM     30  C   UNL     1      -4.797  10.870  16.477  0.00  0.00    +0.000 A 
ATOM     31  C   UNL     1      -4.237  11.563  17.575  0.00  0.00    +0.000 A 
BRANCH  31  32
ATOM     32  P   UNL     1      -5.278  12.120  18.974  0.00  0.00    +0.000 P 
ATOM     33  C   UNL     1      -6.418  13.223  17.718  0.00  0.00    +0.000 C 
ATOM     34  C   UNL     1      -6.554  10.526  18.768  0.00  0.00    +0.000 C 
ATOM     35  O   UNL     1      -6.158  12.590  20.158  0.00  0.00    +0.000 OA
ENDBRANCH  31  32
ENDBRANCH   5  26
TORSDOF 4
ENDMDL
MODEL 5
REMARK VINA RESULT:      -8.3      4.399      7.056
REMARK  Name = 
REMARK  7 active torsions:
REMARK  status: ('A' for Active; 'I' for Inactive)
REMARK    1  A    between atoms: C_1  and  C_2
REMARK    2  A    between atoms: N_4  and  C_5
REMARK    3  A    between atoms: C_8  and  N_9
REMARK    4  A    between atoms: N_13  and  C_14
REMARK    5  A    between atoms: C_19  and  P_20
REMARK    6  A    between atoms: P_20  and  C_21
REMARK    7  A    between atoms: P_20  and  C_22
REMARK                            x       y       z     vdW  Elec       q    Type
REMARK                         _______ _______ _______ _____ _____    ______ ____
ROOT
ATOM      1  N   UNL     1       1.052   9.508  20.255  0.00  0.00    +0.000 N 
ATOM      2  C   UNL     1      -0.004  10.160  19.603  0.00  0.00    +0.000 A 
ATOM      3  N   UNL     1       0.041  11.499  19.619  0.00  0.00    +0.000 NA
ATOM      4  C   UNL     1      -0.925  12.243  19.009  0.00  0.00    +0.000 A 
ATOM      5  N   UNL     1      -0.796  13.651  19.021  0.00  0.00    +0.000 N 
ATOM      6  C   UNL     1      -1.984  11.546  18.392  0.00  0.00    +0.000 A 
ATOM      7  C   UNL     1      -3.181  11.841  17.662  0.00  0.00    +0.000 A 
ATOM      8  C   UNL     1      -3.762  10.650  17.290  0.00  0.00    +0.000 A 
ATOM      9  N   UNL     1      -2.977   9.633  17.763  0.00  0.00    +0.000 N 
ATOM     10  C   UNL     1      -1.908  10.165  18.435  0.00  0.00    +0.000 A 
ATOM     11  N   UNL     1      -0.959   9.430  19.015  0.00  0.00    +0.000 NA
ATOM     12  H   UNL     1       1.757  10.208  20.446  0.00  0.00    +0.000 HD
ATOM     13  H   UNL     1      -1.555  14.091  18.512  0.00  0.00    +0.000 HD
ATOM     14  H   UNL     1      -3.125   8.641  17.652  0.00  0.00    +0.000 HD
ENDROOT
BRANCH   1  18
ATOM     15  C   UNL     1       2.590   5.734  19.139  0.00  0.00    +0.000 A 
ATOM     16  C   UNL     1       2.714   6.826  18.283  0.00  0.00    +0.000 A 
ATOM     17  C   UNL     1       2.218   8.077  18.650  0.00  0.00    +0.000 A 
ATOM     18  C   UNL     1       1.575   8.261  19.875  0.00  0.00    +0.000 A 
ATOM     19  C   UNL     1       1.503   7.180  20.761  0.00  0.00    +0.000 A 
ATOM     20  C   UNL     1       1.981   5.920  20.381  0.00  0.00    +0.000 A 
BRANCH  15  24
ATOM     21  C   UNL     1       3.071   2.205  17.910  0.00  0.00    +0.000 C 
ATOM     22  C   UNL     1       2.360   3.522  18.024  0.00  0.00    +0.000 C 
ATOM     23  O   UNL     1       1.274   3.681  17.475  0.00  0.00    +0.000 OA
ATOM     24  N   UNL     1       3.051   4.446  18.783  0.00  0.00    +0.000 N 
ATOM     25  H   UNL     1       4.003   4.223  19.049  0.00  0.00    +0.000 HD
ENDBRANCH  15  24
ENDBRANCH   1  18
BRANCH   5  26
ATOM     26  C   UNL     1       0.443  14.330  18.831  0.00  0.00    +0.000 A 
ATOM     27  C   UNL     1       1.590  13.602  18.442  0.00  0.00    +0.000 A 
ATOM     28  C   UNL     1       2.797  14.227  18.142  0.00  0.00    +0.000 A 
ATOM     29  C   UNL     1       2.864  15.608  18.150  0.00  0.00    +0.000 A 
ATOM     30  C   UNL     1       1.734  16.348  18.497  0.00  0.00    +0.000 A 
ATOM     31  C   UNL     1       0.535  15.739  18.934  0.00  0.00    +0.000 A 
BRANCH  31  32
ATOM     32  P   UNL     1      -0.920  16.743  19.407  0.00  0.00    +0.000 P 
ATOM     33  C   UNL     1       0.272  18.053  20.384  0.00  0.00    +0.000 C 
ATOM     34  C   UNL     1      -0.800  17.873  17.698  0.00  0.00    +0.000 C 
ATOM     35  O   UNL     1      -2.153  17.592  19.806  0.00  0.00    +0.000 OA
ENDBRANCH  31  32
ENDBRANCH   5  26
TORSDOF 4
ENDMDL
MODEL 6
REMARK VINA RESULT:      -8.1      3.818      6.422
REMARK  Name = 
REMARK  7 active torsions:
REMARK  status: ('A' for Active; 'I' for Inactive)
REMARK    1  A    between atoms: C_1  and  C_2
REMARK    2  A    between atoms: N_4  and  C_5
REMARK    3  A    between atoms: C_8  and  N_9
REMARK    4  A    between atoms: N_13  and  C_14
REMARK    5  A    between atoms: C_19  and  P_20
REMARK    6  A    between atoms: P_20  and  C_21
REMARK    7  A    between atoms: P_20  and  C_22
REMARK                            x       y       z     vdW  Elec       q    Type
REMARK                         _______ _______ _______ _____ _____    ______ ____
ROOT
ATOM      1  N   UNL     1       0.755   9.420  19.698  0.00  0.00    +0.000 N 
ATOM      2  C   UNL     1      -0.311  10.032  19.025  0.00  0.00    +0.000 A 
ATOM      3  N   UNL     1      -0.685  11.230  19.495  0.00  0.00    +0.000 NA
ATOM      4  C   UNL     1      -1.703  11.927  18.916  0.00  0.00    +0.000 A 
ATOM      5  N   UNL     1      -2.019  13.206  19.428  0.00  0.00    +0.000 N 
ATOM      6  C   UNL     1      -2.362  11.320  17.827  0.00  0.00    +0.000 A 
ATOM      7  C   UNL     1      -3.436  11.614  16.924  0.00  0.00    +0.000 A 
ATOM      8  C   UNL     1      -3.542  10.574  16.030  0.00  0.00    +0.000 A 
ATOM      9  N   UNL     1      -2.583   9.649  16.344  0.00  0.00    +0.000 N 
ATOM     10  C   UNL     1      -1.874  10.088  17.430  0.00  0.00    +0.000 A 
ATOM     11  N   UNL     1      -0.868   9.407  17.982  0.00  0.00    +0.000 NA
ATOM     12  H   UNL     1       1.163  10.122  20.304  0.00  0.00    +0.000 HD
ATOM     13  H   UNL     1      -2.769  13.636  18.898  0.00  0.00    +0.000 HD
ATOM     14  H   UNL     1      -2.396   8.776  15.874  0.00  0.00    +0.000 HD
ENDROOT
BRANCH   1  18
ATOM     15  C   UNL     1       3.568   6.828  17.903  0.00  0.00    +0.000 A 
ATOM     16  C   UNL     1       3.234   8.035  17.294  0.00  0.00    +0.000 A 
ATOM     17  C   UNL     1       2.314   8.900  17.887  0.00  0.00    +0.000 A 
ATOM     18  C   UNL     1       1.698   8.572  19.095  0.00  0.00    +0.000 A 
ATOM     19  C   UNL     1       2.077   7.388  19.738  0.00  0.00    +0.000 A 
ATOM     20  C   UNL     1       2.983   6.510  19.130  0.00  0.00    +0.000 A 
BRANCH  15  24
ATOM     21  C   UNL     1       6.411   5.050  16.184  0.00  0.00    +0.000 C 
ATOM     22  C   UNL     1       5.740   6.212  16.858  0.00  0.00    +0.000 C 
ATOM     23  O   UNL     1       6.325   7.286  16.952  0.00  0.00    +0.000 OA
ATOM     24  N   UNL     1       4.470   5.914  17.313  0.00  0.00    +0.000 N 
ATOM     25  H   UNL     1       4.177   4.945  17.297  0.00  0.00    +0.000 HD
ENDBRANCH  15  24
ENDBRANCH   1  18
BRANCH   5  26
ATOM     26  C   UNL     1      -1.037  14.155  19.837  0.00  0.00    +0.000 A 
ATOM     27  C   UNL     1      -0.138  14.689  18.886  0.00  0.00    +0.000 A 
ATOM     28  C   UNL     1       0.770  15.693  19.208  0.00  0.00    +0.000 A 
ATOM     29  C   UNL     1       0.749  16.243  20.476  0.00  0.00    +0.000 A 
ATOM     30  C   UNL     1      -0.154  15.755  21.421  0.00  0.00    +0.000 A 
ATOM     31  C   UNL     1      -0.996  14.649  21.163  0.00  0.00    +0.000 A 
BRANCH  31  32
ATOM     32  P   UNL     1      -2.149  14.019  22.436  0.00  0.00    +0.000 P 
ATOM     33  C   UNL     1      -0.953  12.421  22.764  0.00  0.00    +0.000 C 
ATOM     34  C   UNL     1      -1.204  15.062  23.929  0.00  0.00    +0.000 C 
ATOM     35  O   UNL     1      -3.126  13.487  23.514  0.00  0.00    +0.000 OA
ENDBRANCH  31  32
ENDBRANCH   5  26
TORSDOF 4
ENDMDL
MODEL 7
REMARK VINA RESULT:      -8.1      4.194      7.849
REMARK  Name = 
REMARK  7 active torsions:
REMARK  status: ('A' for Active; 'I' for Inactive)
REMARK    1  A    between atoms: C_1  and  C_2
REMARK    2  A    between atoms: N_4  and  C_5
REMARK    3  A    between atoms: C_8  and  N_9
REMARK    4  A    between atoms: N_13  and  C_14
REMARK    5  A    between atoms: C_19  and  P_20
REMARK    6  A    between atoms: P_20  and  C_21
REMARK    7  A    between atoms: P_20  and  C_22
REMARK                            x       y       z     vdW  Elec       q    Type
REMARK                         _______ _______ _______ _____ _____    ______ ____
ROOT
ATOM      1  N   UNL     1       0.008  10.418  18.671  0.00  0.00    +0.000 N 
ATOM      2  C   UNL     1       0.338  11.765  18.881  0.00  0.00    +0.000 A 
ATOM      3  N   UNL     1      -0.665  12.552  19.294  0.00  0.00    +0.000 NA
ATOM      4  C   UNL     1      -0.463  13.877  19.540  0.00  0.00    +0.000 A 
ATOM      5  N   UNL     1      -1.550  14.645  20.018  0.00  0.00    +0.000 N 
ATOM      6  C   UNL     1       0.832  14.386  19.314  0.00  0.00    +0.000 A 
ATOM      7  C   UNL     1       1.526  15.637  19.411  0.00  0.00    +0.000 A 
ATOM      8  C   UNL     1       2.842  15.425  19.070  0.00  0.00    +0.000 A 
ATOM      9  N   UNL     1       2.990  14.100  18.764  0.00  0.00    +0.000 N 
ATOM     10  C   UNL     1       1.782  13.469  18.901  0.00  0.00    +0.000 A 
ATOM     11  N   UNL     1       1.596  12.168  18.672  0.00  0.00    +0.000 NA
ATOM     12  H   UNL     1      -0.910  10.274  19.073  0.00  0.00    +0.000 HD
ATOM     13  H   UNL     1      -1.270  15.604  20.194  0.00  0.00    +0.000 HD
ATOM     14  H   UNL     1       3.835  13.625  18.482  0.00  0.00    +0.000 HD
ENDROOT
BRANCH   1  18
ATOM     15  C   UNL     1       2.628   7.161  19.286  0.00  0.00    +0.000 A 
ATOM     16  C   UNL     1       2.527   7.756  18.031  0.00  0.00    +0.000 A 
ATOM     17  C   UNL     1       1.672   8.838  17.824  0.00  0.00    +0.000 A 
ATOM     18  C   UNL     1       0.889   9.342  18.864  0.00  0.00    +0.000 A 
ATOM     19  C   UNL     1       1.033   8.784  20.139  0.00  0.00    +0.000 A 
ATOM     20  C   UNL     1       1.874   7.682  20.340  0.00  0.00    +0.000 A 
BRANCH  15  24
ATOM     21  C   UNL     1       4.201   3.758  19.662  0.00  0.00    +0.000 C 
ATOM     22  C   UNL     1       3.165   4.734  19.185  0.00  0.00    +0.000 C 
ATOM     23  O   UNL     1       2.183   4.332  18.569  0.00  0.00    +0.000 OA
ATOM     24  N   UNL     1       3.458   6.041  19.521  0.00  0.00    +0.000 N 
ATOM     25  H   UNL     1       4.376   6.238  19.900  0.00  0.00    +0.000 HD
ENDBRANCH  15  24
ENDBRANCH   1  18
BRANCH   5  26
ATOM     26  C   UNL     1      -2.482  14.172  20.987  0.00  0.00    +0.000 A 
ATOM     27  C   UNL     1      -3.631  13.463  20.569  0.00  0.00    +0.000 A 
ATOM     28  C   UNL     1      -4.519  12.890  21.476  0.00  0.00    +0.000 A 
ATOM     29  C   UNL     1      -4.235  12.948  22.828  0.00  0.00    +0.000 A 
ATOM     30  C   UNL     1      -3.088  13.612  23.261  0.00  0.00    +0.000 A 
ATOM     31  C   UNL     1      -2.240  14.316  22.375  0.00  0.00    +0.000 A 
BRANCH  31  32
ATOM     32  P   UNL     1      -0.757  15.199  22.982  0.00  0.00    +0.000 P 
ATOM     33  C   UNL     1      -1.682  16.979  22.721  0.00  0.00    +0.000 C 
ATOM     34  C   UNL     1      -1.406  15.122  24.928  0.00  0.00    +0.000 C 
ATOM     35  O   UNL     1       0.498  15.946  23.497  0.00  0.00    +0.000 OA
ENDBRANCH  31  32
ENDBRANCH   5  26
TORSDOF 4
ENDMDL
MODEL 8
REMARK VINA RESULT:      -8.0      4.084      6.833
REMARK  Name = 
REMARK  7 active torsions:
REMARK  status: ('A' for Active; 'I' for Inactive)
REMARK    1  A    between atoms: C_1  and  C_2
REMARK    2  A    between atoms: N_4  and  C_5
REMARK    3  A    between atoms: C_8  and  N_9
REMARK    4  A    between atoms: N_13  and  C_14
REMARK    5  A    between atoms: C_19  and  P_20
REMARK    6  A    between atoms: P_20  and  C_21
REMARK    7  A    between atoms: P_20  and  C_22
REMARK                            x       y       z     vdW  Elec       q    Type
REMARK                         _______ _______ _______ _____ _____    ______ ____
ROOT
ATOM      1  N   UNL     1       0.634   9.667  20.115  0.00  0.00    +0.000 N 
ATOM      2  C   UNL     1      -0.474  10.250  19.483  0.00  0.00    +0.000 A 
ATOM      3  N   UNL     1      -0.743  11.516  19.830  0.00  0.00    +0.000 NA
ATOM      4  C   UNL     1      -1.789  12.190  19.275  0.00  0.00    +0.000 A 
ATOM      5  N   UNL     1      -1.992  13.539  19.648  0.00  0.00    +0.000 N 
ATOM      6  C   UNL     1      -2.589  11.492  18.348  0.00  0.00    +0.000 A 
ATOM      7  C   UNL     1      -3.743  11.731  17.532  0.00  0.00    +0.000 A 
ATOM      8  C   UNL     1      -3.991  10.595  16.796  0.00  0.00    +0.000 A 
ATOM      9  N   UNL     1      -3.043   9.665  17.126  0.00  0.00    +0.000 N 
ATOM     10  C   UNL     1      -2.199  10.195  18.066  0.00  0.00    +0.000 A 
ATOM     11  N   UNL     1      -1.169   9.532  18.593  0.00  0.00    +0.000 NA
ATOM     12  H   UNL     1       1.135  10.415  20.579  0.00  0.00    +0.000 HD
ATOM     13  H   UNL     1      -2.777  13.942  19.148  0.00  0.00    +0.000 HD
ATOM     14  H   UNL     1      -2.945   8.730  16.756  0.00  0.00    +0.000 HD
ENDROOT
BRANCH   1  18
ATOM     15  C   UNL     1       3.169   6.792  18.337  0.00  0.00    +0.000 A 
ATOM     16  C   UNL     1       2.560   6.532  19.561  0.00  0.00    +0.000 A 
ATOM     17  C   UNL     1       1.713   7.472  20.149  0.00  0.00    +0.000 A 
ATOM     18  C   UNL     1       1.467   8.699  19.531  0.00  0.00    +0.000 A 
ATOM     19  C   UNL     1       2.031   8.938  18.272  0.00  0.00    +0.000 A 
ATOM     20  C   UNL     1       2.900   8.003  17.696  0.00  0.00    +0.000 A 
BRANCH  15  24
ATOM     21  C   UNL     1       5.965   4.447  17.400  0.00  0.00    +0.000 C 
ATOM     22  C   UNL     1       5.156   5.295  18.338  0.00  0.00    +0.000 C 
ATOM     23  O   UNL     1       5.502   5.414  19.509  0.00  0.00    +0.000 OA
ATOM     24  N   UNL     1       4.059   5.876  17.731  0.00  0.00    +0.000 N 
ATOM     25  H   UNL     1       3.816   5.568  16.798  0.00  0.00    +0.000 HD
ENDBRANCH  15  24
ENDBRANCH   1  18
BRANCH   5  26
ATOM     26  C   UNL     1      -0.931  14.475  19.826  0.00  0.00    +0.000 A 
ATOM     27  C   UNL     1      -0.055  14.755  18.753  0.00  0.00    +0.000 A 
ATOM     28  C   UNL     1       0.931  15.735  18.838  0.00  0.00    +0.000 A 
ATOM     29  C   UNL     1       1.013  16.513  19.978  0.00  0.00    +0.000 A 
ATOM     30  C   UNL     1       0.136  16.277  21.036  0.00  0.00    +0.000 A 
ATOM     31  C   UNL     1      -0.786  15.205  21.030  0.00  0.00    +0.000 A 
BRANCH  31  32
ATOM     32  P   UNL     1      -1.905  14.910  22.448  0.00  0.00    +0.000 P 
ATOM     33  C   UNL     1      -0.827  13.286  22.990  0.00  0.00    +0.000 C 
ATOM     34  C   UNL     1      -0.782  16.097  23.689  0.00  0.00    +0.000 C 
ATOM     35  O   UNL     1      -2.852  14.661  23.648  0.00  0.00    +0.000 OA
ENDBRANCH  31  32
ENDBRANCH   5  26
TORSDOF 4
ENDMDL
MODEL 9
REMARK VINA RESULT:      -8.0      5.099      8.503
REMARK  Name = 
REMARK  7 active torsions:
REMARK  status: ('A' for Active; 'I' for Inactive)
REMARK    1  A    between atoms: C_1  and  C_2
REMARK    2  A    between atoms: N_4  and  C_5
REMARK    3  A    between atoms: C_8  and  N_9
REMARK    4  A    between atoms: N_13  and  C_14
REMARK    5  A    between atoms: C_19  and  P_20
REMARK    6  A    between atoms: P_20  and  C_21
REMARK    7  A    between atoms: P_20  and  C_22
REMARK                            x       y       z     vdW  Elec       q    Type
REMARK                         _______ _______ _______ _____ _____    ______ ____
ROOT
ATOM      1  N   UNL     1      -0.666  10.930  18.642  0.00  0.00    +0.000 N 
ATOM      2  C   UNL     1      -1.081  11.885  19.581  0.00  0.00    +0.000 A 
ATOM      3  N   UNL     1      -2.342  12.319  19.452  0.00  0.00    +0.000 NA
ATOM      4  C   UNL     1      -2.860  13.240  20.312  0.00  0.00    +0.000 A 
ATOM      5  N   UNL     1      -4.212  13.623  20.151  0.00  0.00    +0.000 N 
ATOM      6  C   UNL     1      -2.007  13.736  21.319  0.00  0.00    +0.000 A 
ATOM      7  C   UNL     1      -2.060  14.666  22.408  0.00  0.00    +0.000 A 
ATOM      8  C   UNL     1      -0.843  14.644  23.050  0.00  0.00    +0.000 A 
ATOM      9  N   UNL     1      -0.041  13.744  22.402  0.00  0.00    +0.000 N 
ATOM     10  C   UNL     1      -0.733  13.199  21.353  0.00  0.00    +0.000 A 
ATOM     11  N   UNL     1      -0.222  12.287  20.525  0.00  0.00    +0.000 NA
ATOM     12  H   UNL     1      -1.498  10.613  18.158  0.00  0.00    +0.000 HD
ATOM     13  H   UNL     1      -4.491  14.287  20.866  0.00  0.00    +0.000 HD
ATOM     14  H   UNL     1       0.910  13.493  22.631  0.00  0.00    +0.000 HD
ENDROOT
BRANCH   1  18
ATOM     15  C   UNL     1       2.109   7.847  19.445  0.00  0.00    +0.000 A 
ATOM     16  C   UNL     1       2.075   8.454  18.193  0.00  0.00    +0.000 A 
ATOM     17  C   UNL     1       1.168   9.480  17.924  0.00  0.00    +0.000 A 
ATOM     18  C   UNL     1       0.267   9.912  18.898  0.00  0.00    +0.000 A 
ATOM     19  C   UNL     1       0.340   9.344  20.175  0.00  0.00    +0.000 A 
ATOM     20  C   UNL     1       1.234   8.298  20.435  0.00  0.00    +0.000 A 
BRANCH  15  24
ATOM     21  C   UNL     1       3.923   4.566  19.822  0.00  0.00    +0.000 C 
ATOM     22  C   UNL     1       2.900   5.497  19.240  0.00  0.00    +0.000 C 
ATOM     23  O   UNL     1       2.095   5.081  18.413  0.00  0.00    +0.000 OA
ATOM     24  N   UNL     1       2.991   6.782  19.739  0.00  0.00    +0.000 N 
ATOM     25  H   UNL     1       3.798   7.014  20.304  0.00  0.00    +0.000 HD
ENDBRANCH  15  24
ENDBRANCH   1  18
BRANCH   5  26
ATOM     26  C   UNL     1      -5.257  12.708  19.832  0.00  0.00    +0.000 A 
ATOM     27  C   UNL     1      -5.303  12.114  18.550  0.00  0.00    +0.000 A 
ATOM     28  C   UNL     1      -6.239  11.138  18.220  0.00  0.00    +0.000 A 
ATOM     29  C   UNL     1      -7.105  10.675  19.192  0.00  0.00    +0.000 A 
ATOM     30  C   UNL     1      -7.055  11.222  20.474  0.00  0.00    +0.000 A 
ATOM     31  C   UNL     1      -6.207  12.306  20.801  0.00  0.00    +0.000 A 
BRANCH  31  32
ATOM     32  P   UNL     1      -6.186  13.016  22.488  0.00  0.00    +0.000 P 
ATOM     33  C   UNL     1      -7.302  14.585  21.866  0.00  0.00    +0.000 C 
ATOM     34  C   UNL     1      -7.882  11.996  23.029  0.00  0.00    +0.000 C 
ATOM     35  O   UNL     1      -6.168  13.617  23.915  0.00  0.00    +0.000 OA
ENDBRANCH  31  32
ENDBRANCH   5  26
TORSDOF 4
ENDMDL
