MODEL 1
REMARK VINA RESULT:      -8.2      0.000      0.000
REMARK  Name = 
REMARK  7 active torsions:
REMARK  status: ('A' for Active; 'I' for Inactive)
REMARK    1  A    between atoms: C_1  and  O_2
REMARK    2  A    between atoms: O_2  and  C_3
REMARK    3  A    between atoms: C_3  and  C_4
REMARK    4  A    between atoms: C_4  and  C_5
REMARK    5  A    between atoms: C_8  and  C_9
REMARK    6  A    between atoms: C_14  and  C_16
REMARK    7  A    between atoms: C_16  and  C_17
REMARK                            x       y       z     vdW  Elec       q    Type
REMARK                         _______ _______ _______ _____ _____    ______ ____
ROOT
ATOM      1  C   UNL     1       0.938   9.203  20.012  0.00  0.00    +0.000 A 
ATOM      2  C   UNL     1       1.271   9.636  18.742  0.00  0.00    +0.000 A 
ATOM      3  S   UNL     1       2.334   8.511  17.995  0.00  0.00    +0.000 S 
ATOM      4  C   UNL     1       2.232   7.487  19.367  0.00  0.00    +0.000 A 
ATOM      5  N   UNL     1       2.990   6.354  19.203  0.00  0.00    +0.000 N 
ATOM      6  C   UNL     1       2.968   5.207  19.984  0.00  0.00    +0.000 C 
ATOM      7  O   UNL     1       2.234   5.038  20.955  0.00  0.00    +0.000 OA
ATOM      8  N   UNL     1       1.471   7.948  20.355  0.00  0.00    +0.000 NA
ATOM      9  H   UNL     1       3.517   6.320  18.336  0.00  0.00    +0.000 HD
ENDROOT
BRANCH   1  13
ATOM     10  C   UNL     1      -1.594  11.615  22.631  0.00  0.00    +0.000 A 
ATOM     11  C   UNL     1      -0.958  10.477  23.141  0.00  0.00    +0.000 A 
ATOM     12  C   UNL     1      -0.144   9.681  22.287  0.00  0.00    +0.000 A 
ATOM     13  C   UNL     1       0.093  10.020  20.934  0.00  0.00    +0.000 A 
ATOM     14  C   UNL     1      -0.547  11.168  20.458  0.00  0.00    +0.000 A 
ATOM     15  C   UNL     1      -1.365  11.957  21.300  0.00  0.00    +0.000 A 
BRANCH  10  16
ATOM     16  C   UNL     1      -2.505  12.468  23.496  0.00  0.00    +0.000 C 
BRANCH  16  17
ATOM     17  C   UNL     1      -3.586  13.245  22.743  0.00  0.00    +0.000 C 
BRANCH  17  19
ATOM     18  C   UNL     1      -5.337  12.554  21.315  0.00  0.00    +0.000 C 
ATOM     19  O   UNL     1      -4.765  12.448  22.612  0.00  0.00    +0.000 OA
ENDBRANCH  17  19
ENDBRANCH  16  17
ENDBRANCH  10  16
ENDBRANCH   1  13
BRANCH   6  20
ATOM     20  C   UNL     1       3.971   4.081  19.529  0.00  0.00    +0.000 C 
BRANCH  20  21
ATOM     21  C   UNL     1       5.110   4.639  18.703  0.00  0.00    +0.000 A 
ATOM     22  C   UNL     1       6.242   5.177  19.250  0.00  0.00    +0.000 A 
ATOM     23  N   UNL     1       6.691   6.079  18.321  0.00  0.00    +0.000 N 
ATOM     24  C   UNL     1       6.551   5.428  17.116  0.00  0.00    +0.000 A 
ATOM     25  C   UNL     1       7.254   5.635  15.927  0.00  0.00    +0.000 A 
ATOM     26  C   UNL     1       6.938   4.827  14.851  0.00  0.00    +0.000 A 
ATOM     27  C   UNL     1       5.893   3.911  14.969  0.00  0.00    +0.000 A 
ATOM     28  C   UNL     1       5.149   3.750  16.168  0.00  0.00    +0.000 A 
ATOM     29  C   UNL     1       5.498   4.510  17.299  0.00  0.00    +0.000 A 
ATOM     30  H   UNL     1       6.447   7.068  18.363  0.00  0.00    +0.000 HD
ENDBRANCH  20  21
ENDBRANCH   6  20
TORSDOF 6
ENDMDL
MODEL 2
REMARK VINA RESULT:      -8.0      7.741     10.972
REMARK  Name = 
REMARK  7 active torsions:
REMARK  status: ('A' for Active; 'I' for Inactive)
REMARK    1  A    between atoms: C_1  and  O_2
REMARK    2  A    between atoms: O_2  and  C_3
REMARK    3  A    between atoms: C_3  and  C_4
REMARK    4  A    between atoms: C_4  and  C_5
REMARK    5  A    between atoms: C_8  and  C_9
REMARK    6  A    between atoms: C_14  and  C_16
REMARK    7  A    between atoms: C_16  and  C_17
REMARK                            x       y       z     vdW  Elec       q    Type
REMARK                         _______ _______ _______ _____ _____    ______ ____
ROOT
ATOM      1  C   UNL     1       7.153   5.461  16.805  0.00  0.00    +0.000 A 
ATOM      2  C   UNL     1       6.986   4.727  17.965  0.00  0.00    +0.000 A 
ATOM      3  S   UNL     1       7.576   5.614  19.313  0.00  0.00    +0.000 S 
ATOM      4  C   UNL     1       7.950   6.941  18.293  0.00  0.00    +0.000 A 
ATOM      5  N   UNL     1       8.492   7.982  19.003  0.00  0.00    +0.000 N 
ATOM      6  C   UNL     1       8.695   9.284  18.567  0.00  0.00    +0.000 C 
ATOM      7  O   UNL     1       8.397   9.699  17.449  0.00  0.00    +0.000 OA
ATOM      8  N   UNL     1       7.682   6.749  17.004  0.00  0.00    +0.000 NA
ATOM      9  H   UNL     1       8.627   7.794  19.992  0.00  0.00    +0.000 HD
ENDROOT
BRANCH   1  13
ATOM     10  C   UNL     1       6.048   3.865  12.891  0.00  0.00    +0.000 A 
ATOM     11  C   UNL     1       7.241   4.582  13.032  0.00  0.00    +0.000 A 
ATOM     12  C   UNL     1       7.597   5.116  14.303  0.00  0.00    +0.000 A 
ATOM     13  C   UNL     1       6.808   4.911  15.460  0.00  0.00    +0.000 A 
ATOM     14  C   UNL     1       5.629   4.181  15.287  0.00  0.00    +0.000 A 
ATOM     15  C   UNL     1       5.265   3.657  14.026  0.00  0.00    +0.000 A 
BRANCH  10  16
ATOM     16  C   UNL     1       5.607   3.315  11.546  0.00  0.00    +0.000 C 
BRANCH  16  17
ATOM     17  C   UNL     1       4.097   3.165  11.359  0.00  0.00    +0.000 C 
BRANCH  17  19
ATOM     18  C   UNL     1       2.905   3.916   9.462  0.00  0.00    +0.000 C 
ATOM     19  O   UNL     1       3.572   4.295  10.658  0.00  0.00    +0.000 OA
ENDBRANCH  17  19
ENDBRANCH  16  17
ENDBRANCH  10  16
ENDBRANCH   1  13
BRANCH   6  20
ATOM     20  C   UNL     1       9.347  10.243  19.633  0.00  0.00    +0.000 C 
BRANCH  20  21
ATOM     21  C   UNL     1       9.446  11.666  19.128  0.00  0.00    +0.000 A 
ATOM     22  C   UNL     1       8.741  12.706  19.669  0.00  0.00    +0.000 A 
ATOM     23  N   UNL     1       8.594  13.605  18.645  0.00  0.00    +0.000 N 
ATOM     24  C   UNL     1       9.827  13.634  18.034  0.00  0.00    +0.000 A 
ATOM     25  C   UNL     1      10.403  14.661  17.283  0.00  0.00    +0.000 A 
ATOM     26  C   UNL     1      11.677  14.453  16.789  0.00  0.00    +0.000 A 
ATOM     27  C   UNL     1      12.292  13.217  16.988  0.00  0.00    +0.000 A 
ATOM     28  C   UNL     1      11.671  12.160  17.706  0.00  0.00    +0.000 A 
ATOM     29  C   UNL     1      10.404  12.373  18.279  0.00  0.00    +0.000 A 
ATOM     30  H   UNL     1       7.764  13.620  18.052  0.00  0.00    +0.000 HD
ENDBRANCH  20  21
ENDBRANCH   6  20
TORSDOF 6
ENDMDL
MODEL 3
REMARK VINA RESULT:      -7.8      0.976      1.555
REMARK  Name = 
REMARK  7 active torsions:
REMARK  status: ('A' for Active; 'I' for Inactive)
REMARK    1  A    between atoms: C_1  and  O_2
REMARK    2  A    between atoms: O_2  and  C_3
REMARK    3  A    between atoms: C_3  and  C_4
REMARK    4  A    between atoms: C_4  and  C_5
REMARK    5  A    between atoms: C_8  and  C_9
REMARK    6  A    between atoms: C_14  and  C_16
REMARK    7  A    between atoms: C_16  and  C_17
REMARK                            x       y       z     vdW  Elec       q    Type
REMARK                         _______ _______ _______ _____ _____    ______ ____
ROOT
ATOM      1  C   UNL     1       1.034   8.890  20.179  0.00  0.00    +0.000 A 
ATOM      2  C   UNL     1       1.435   9.258  18.908  0.00  0.00    +0.000 A 
ATOM      3  S   UNL     1       2.432   8.036  18.227  0.00  0.00    +0.000 S 
ATOM      4  C   UNL     1       2.216   7.065  19.624  0.00  0.00    +0.000 A 
ATOM      5  N   UNL     1       2.893   5.875  19.517  0.00  0.00    +0.000 N 
ATOM      6  C   UNL     1       2.765   4.758  20.329  0.00  0.00    +0.000 C 
ATOM      7  O   UNL     1       1.993   4.673  21.282  0.00  0.00    +0.000 OA
ATOM      8  N   UNL     1       1.464   7.611  20.575  0.00  0.00    +0.000 NA
ATOM      9  H   UNL     1       3.440   5.776  18.668  0.00  0.00    +0.000 HD
ENDROOT
BRANCH   1  13
ATOM     10  C   UNL     1      -1.380  11.566  22.648  0.00  0.00    +0.000 A 
ATOM     11  C   UNL     1      -0.934  10.352  23.180  0.00  0.00    +0.000 A 
ATOM     12  C   UNL     1      -0.159   9.471  22.374  0.00  0.00    +0.000 A 
ATOM     13  C   UNL     1       0.226   9.794  21.051  0.00  0.00    +0.000 A 
ATOM     14  C   UNL     1      -0.226  11.020  20.554  0.00  0.00    +0.000 A 
ATOM     15  C   UNL     1      -1.004  11.895  21.346  0.00  0.00    +0.000 A 
BRANCH  10  16
ATOM     16  C   UNL     1      -2.245  12.517  23.458  0.00  0.00    +0.000 C 
BRANCH  16  17
ATOM     17  C   UNL     1      -3.370  13.203  22.684  0.00  0.00    +0.000 C 
BRANCH  17  19
ATOM     18  C   UNL     1      -5.257  12.630  21.381  0.00  0.00    +0.000 C 
ATOM     19  O   UNL     1      -4.474  12.310  22.524  0.00  0.00    +0.000 OA
ENDBRANCH  17  19
ENDBRANCH  16  17
ENDBRANCH  10  16
ENDBRANCH   1  13
BRANCH   6  20
ATOM     20  C   UNL     1       3.695   3.548  19.938  0.00  0.00    +0.000 C 
BRANCH  20  21
ATOM     21  C   UNL     1       4.436   3.801  18.643  0.00  0.00    +0.000 A 
ATOM     22  C   UNL     1       3.954   3.432  17.417  0.00  0.00    +0.000 A 
ATOM     23  N   UNL     1       5.067   3.241  16.641  0.00  0.00    +0.000 N 
ATOM     24  C   UNL     1       5.888   4.301  16.953  0.00  0.00    +0.000 A 
ATOM     25  C   UNL     1       6.890   4.886  16.174  0.00  0.00    +0.000 A 
ATOM     26  C   UNL     1       7.566   5.965  16.710  0.00  0.00    +0.000 A 
ATOM     27  C   UNL     1       7.283   6.367  18.015  0.00  0.00    +0.000 A 
ATOM     28  C   UNL     1       6.300   5.728  18.817  0.00  0.00    +0.000 A 
ATOM     29  C   UNL     1       5.549   4.673  18.268  0.00  0.00    +0.000 A 
ATOM     30  H   UNL     1       5.494   2.323  16.521  0.00  0.00    +0.000 HD
ENDBRANCH  20  21
ENDBRANCH   6  20
TORSDOF 6
ENDMDL
MODEL 4
REMARK VINA RESULT:      -7.8      1.144      1.473
REMARK  Name = 
REMARK  7 active torsions:
REMARK  status: ('A' for Active; 'I' for Inactive)
REMARK    1  A    between atoms: C_1  and  O_2
REMARK    2  A    between atoms: O_2  and  C_3
REMARK    3  A    between atoms: C_3  and  C_4
REMARK    4  A    between atoms: C_4  and  C_5
REMARK    5  A    between atoms: C_8  and  C_9
REMARK    6  A    between atoms: C_14  and  C_16
REMARK    7  A    between atoms: C_16  and  C_17
REMARK                            x       y       z     vdW  Elec       q    Type
REMARK                         _______ _______ _______ _____ _____    ______ ____
ROOT
ATOM      1  C   UNL     1       0.879   9.299  19.997  0.00  0.00    +0.000 A 
ATOM      2  C   UNL     1       1.245   9.725  18.733  0.00  0.00    +0.000 A 
ATOM      3  S   UNL     1       2.312   8.587  18.014  0.00  0.00    +0.000 S 
ATOM      4  C   UNL     1       2.169   7.567  19.384  0.00  0.00    +0.000 A 
ATOM      5  N   UNL     1       2.918   6.426  19.240  0.00  0.00    +0.000 N 
ATOM      6  C   UNL     1       2.867   5.281  20.022  0.00  0.00    +0.000 C 
ATOM      7  O   UNL     1       2.109   5.122  20.977  0.00  0.00    +0.000 OA
ATOM      8  N   UNL     1       1.391   8.039  20.355  0.00  0.00    +0.000 NA
ATOM      9  H   UNL     1       3.464   6.384  18.385  0.00  0.00    +0.000 HD
ENDROOT
BRANCH   1  13
ATOM     10  C   UNL     1      -1.691  11.734  22.556  0.00  0.00    +0.000 A 
ATOM     11  C   UNL     1      -0.974  10.668  23.112  0.00  0.00    +0.000 A 
ATOM     12  C   UNL     1      -0.147   9.864  22.278  0.00  0.00    +0.000 A 
ATOM     13  C   UNL     1       0.022  10.126  20.898  0.00  0.00    +0.000 A 
ATOM     14  C   UNL     1      -0.698  11.205  20.377  0.00  0.00    +0.000 A 
ATOM     15  C   UNL     1      -1.529  12.002  21.198  0.00  0.00    +0.000 A 
BRANCH  10  16
ATOM     16  C   UNL     1      -2.618  12.591  23.400  0.00  0.00    +0.000 C 
BRANCH  16  17
ATOM     17  C   UNL     1      -2.142  14.023  23.652  0.00  0.00    +0.000 C 
BRANCH  17  19
ATOM     18  C   UNL     1      -0.318  15.439  23.152  0.00  0.00    +0.000 C 
ATOM     19  O   UNL     1      -0.729  14.114  23.459  0.00  0.00    +0.000 OA
ENDBRANCH  17  19
ENDBRANCH  16  17
ENDBRANCH  10  16
ENDBRANCH   1  13
BRANCH   6  20
ATOM     20  C   UNL     1       3.868   4.143  19.593  0.00  0.00    +0.000 C 
BRANCH  20  21
ATOM     21  C   UNL     1       5.003   4.679  18.747  0.00  0.00    +0.000 A 
ATOM     22  C   UNL     1       6.165   5.171  19.275  0.00  0.00    +0.000 A 
ATOM     23  N   UNL     1       6.620   6.075  18.350  0.00  0.00    +0.000 N 
ATOM     24  C   UNL     1       6.428   5.451  17.138  0.00  0.00    +0.000 A 
ATOM     25  C   UNL     1       7.108   5.656  15.935  0.00  0.00    +0.000 A 
ATOM     26  C   UNL     1       6.739   4.879  14.854  0.00  0.00    +0.000 A 
ATOM     27  C   UNL     1       5.668   3.995  14.983  0.00  0.00    +0.000 A 
ATOM     28  C   UNL     1       4.950   3.836  16.197  0.00  0.00    +0.000 A 
ATOM     29  C   UNL     1       5.351   4.564  17.332  0.00  0.00    +0.000 A 
ATOM     30  H   UNL     1       6.409   7.070  18.415  0.00  0.00    +0.000 HD
ENDBRANCH  20  21
ENDBRANCH   6  20
TORSDOF 6
ENDMDL
MODEL 5
REMARK VINA RESULT:      -7.7      0.934      1.551
REMARK  Name = 
REMARK  7 active torsions:
REMARK  status: ('A' for Active; 'I' for Inactive)
REMARK    1  A    between atoms: C_1  and  O_2
REMARK    2  A    between atoms: O_2  and  C_3
REMARK    3  A    between atoms: C_3  and  C_4
REMARK    4  A    between atoms: C_4  and  C_5
REMARK    5  A    between atoms: C_8  and  C_9
REMARK    6  A    between atoms: C_14  and  C_16
REMARK    7  A    between atoms: C_16  and  C_17
REMARK                            x       y       z     vdW  Elec       q    Type
REMARK                         _______ _______ _______ _____ _____    ______ ____
ROOT
ATOM      1  C   UNL     1       0.899   9.313  19.891  0.00  0.00    +0.000 A 
ATOM      2  C   UNL     1       1.265   9.718  18.621  0.00  0.00    +0.000 A 
ATOM      3  S   UNL     1       2.331   8.567  17.920  0.00  0.00    +0.000 S 
ATOM      4  C   UNL     1       2.188   7.571  19.308  0.00  0.00    +0.000 A 
ATOM      5  N   UNL     1       2.936   6.427  19.183  0.00  0.00    +0.000 N 
ATOM      6  C   UNL     1       2.885   5.295  19.985  0.00  0.00    +0.000 C 
ATOM      7  O   UNL     1       2.127   5.153  20.943  0.00  0.00    +0.000 OA
ATOM      8  N   UNL     1       1.411   8.059  20.270  0.00  0.00    +0.000 NA
ATOM      9  H   UNL     1       3.482   6.370  18.329  0.00  0.00    +0.000 HD
ENDROOT
BRANCH   1  13
ATOM     10  C   UNL     1      -1.544  11.757  22.564  0.00  0.00    +0.000 A 
ATOM     11  C   UNL     1      -1.411  12.125  21.221  0.00  0.00    +0.000 A 
ATOM     12  C   UNL     1      -0.605  11.339  20.350  0.00  0.00    +0.000 A 
ATOM     13  C   UNL     1       0.043  10.157  20.779  0.00  0.00    +0.000 A 
ATOM     14  C   UNL     1      -0.118   9.810  22.123  0.00  0.00    +0.000 A 
ATOM     15  C   UNL     1      -0.911  10.592  22.995  0.00  0.00    +0.000 A 
BRANCH  10  16
ATOM     16  C   UNL     1      -2.359  12.590  23.538  0.00  0.00    +0.000 C 
BRANCH  16  17
ATOM     17  C   UNL     1      -3.004  13.845  22.949  0.00  0.00    +0.000 C 
BRANCH  17  19
ATOM     18  C   UNL     1      -1.594  14.883  24.537  0.00  0.00    +0.000 C 
ATOM     19  O   UNL     1      -2.220  14.997  23.266  0.00  0.00    +0.000 OA
ENDBRANCH  17  19
ENDBRANCH  16  17
ENDBRANCH  10  16
ENDBRANCH   1  13
BRANCH   6  20
ATOM     20  C   UNL     1       3.885   4.150  19.574  0.00  0.00    +0.000 C 
BRANCH  20  21
ATOM     21  C   UNL     1       5.045   4.679  18.760  0.00  0.00    +0.000 A 
ATOM     22  C   UNL     1       6.186   5.186  19.318  0.00  0.00    +0.000 A 
ATOM     23  N   UNL     1       6.668   6.077  18.395  0.00  0.00    +0.000 N 
ATOM     24  C   UNL     1       6.521   5.432  17.188  0.00  0.00    +0.000 A 
ATOM     25  C   UNL     1       7.240   5.622  16.005  0.00  0.00    +0.000 A 
ATOM     26  C   UNL     1       6.913   4.825  14.925  0.00  0.00    +0.000 A 
ATOM     27  C   UNL     1       5.843   3.936  15.032  0.00  0.00    +0.000 A 
ATOM     28  C   UNL     1       5.084   3.793  16.224  0.00  0.00    +0.000 A 
ATOM     29  C   UNL     1       5.443   4.542  17.359  0.00  0.00    +0.000 A 
ATOM     30  H   UNL     1       6.449   7.072  18.436  0.00  0.00    +0.000 HD
ENDBRANCH  20  21
ENDBRANCH   6  20
TORSDOF 6
ENDMDL
MODEL 6
REMARK VINA RESULT:      -7.7      3.332     10.383
REMARK  Name = 
REMARK  7 active torsions:
REMARK  status: ('A' for Active; 'I' for Inactive)
REMARK    1  A    between atoms: C_1  and  O_2
REMARK    2  A    between atoms: O_2  and  C_3
REMARK    3  A    between atoms: C_3  and  C_4
REMARK    4  A    between atoms: C_4  and  C_5
REMARK    5  A    between atoms: C_8  and  C_9
REMARK    6  A    between atoms: C_14  and  C_16
REMARK    7  A    between atoms: C_16  and  C_17
REMARK                            x       y       z     vdW  Elec       q    Type
REMARK                         _______ _______ _______ _____ _____    ______ ____
ROOT
ATOM      1  C   UNL     1       2.991   6.320  18.628  0.00  0.00    +0.000 A 
ATOM      2  C   UNL     1       2.521   5.611  19.718  0.00  0.00    +0.000 A 
ATOM      3  S   UNL     1       1.646   6.654  20.766  0.00  0.00    +0.000 S 
ATOM      4  C   UNL     1       1.881   7.962  19.681  0.00  0.00    +0.000 A 
ATOM      5  N   UNL     1       1.294   9.112  20.148  0.00  0.00    +0.000 N 
ATOM      6  C   UNL     1       1.075  10.289  19.447  0.00  0.00    +0.000 C 
ATOM      7  O   UNL     1       1.377  10.466  18.269  0.00  0.00    +0.000 OA
ATOM      8  N   UNL     1       2.594   7.669  18.597  0.00  0.00    +0.000 NA
ATOM      9  H   UNL     1       0.861   9.024  21.062  0.00  0.00    +0.000 HD
ENDROOT
BRANCH   1  13
ATOM     10  C   UNL     1       5.596   4.566  15.591  0.00  0.00    +0.000 A 
ATOM     11  C   UNL     1       4.874   3.728  16.448  0.00  0.00    +0.000 A 
ATOM     12  C   UNL     1       4.035   4.296  17.448  0.00  0.00    +0.000 A 
ATOM     13  C   UNL     1       3.860   5.693  17.587  0.00  0.00    +0.000 A 
ATOM     14  C   UNL     1       4.585   6.502  16.707  0.00  0.00    +0.000 A 
ATOM     15  C   UNL     1       5.427   5.944  15.718  0.00  0.00    +0.000 A 
BRANCH  10  16
ATOM     16  C   UNL     1       6.535   4.003  14.538  0.00  0.00    +0.000 C 
BRANCH  16  17
ATOM     17  C   UNL     1       7.255   5.042  13.677  0.00  0.00    +0.000 C 
BRANCH  17  19
ATOM     18  C   UNL     1       6.589   3.393  12.122  0.00  0.00    +0.000 C 
ATOM     19  O   UNL     1       7.282   4.619  12.313  0.00  0.00    +0.000 OA
ENDBRANCH  17  19
ENDBRANCH  16  17
ENDBRANCH  10  16
ENDBRANCH   1  13
BRANCH   6  20
ATOM     20  C   UNL     1       0.378  11.431  20.278  0.00  0.00    +0.000 C 
BRANCH  20  21
ATOM     21  C   UNL     1      -0.987  11.779  19.726  0.00  0.00    +0.000 A 
ATOM     22  C   UNL     1      -1.534  13.030  19.810  0.00  0.00    +0.000 A 
ATOM     23  N   UNL     1      -2.890  12.826  19.803  0.00  0.00    +0.000 N 
ATOM     24  C   UNL     1      -3.088  11.869  18.834  0.00  0.00    +0.000 A 
ATOM     25  C   UNL     1      -4.234  11.623  18.074  0.00  0.00    +0.000 A 
ATOM     26  C   UNL     1      -4.172  10.608  17.138  0.00  0.00    +0.000 A 
ATOM     27  C   UNL     1      -3.018   9.831  17.049  0.00  0.00    +0.000 A 
ATOM     28  C   UNL     1      -1.879  10.057  17.868  0.00  0.00    +0.000 A 
ATOM     29  C   UNL     1      -1.891  11.129  18.778  0.00  0.00    +0.000 A 
ATOM     30  H   UNL     1      -3.431  12.755  20.665  0.00  0.00    +0.000 HD
ENDBRANCH  20  21
ENDBRANCH   6  20
TORSDOF 6
ENDMDL
MODEL 7
REMARK VINA RESULT:      -7.7      0.914      1.096
REMARK  Name = 
REMARK  7 active torsions:
REMARK  status: ('A' for Active; 'I' for Inactive)
REMARK    1  A    between atoms: C_1  and  O_2
REMARK    2  A    between atoms: O_2  and  C_3
REMARK    3  A    between atoms: C_3  and  C_4
REMARK    4  A    between atoms: C_4  and  C_5
REMARK    5  A    between atoms: C_8  and  C_9
REMARK    6  A    between atoms: C_14  and  C_16
REMARK    7  A    between atoms: C_16  and  C_17
REMARK                            x       y       z     vdW  Elec       q    Type
REMARK                         _______ _______ _______ _____ _____    ______ ____
ROOT
ATOM      1  C   UNL     1       0.858   9.522  19.687  0.00  0.00    +0.000 A 
ATOM      2  C   UNL     1       1.280   9.877  18.419  0.00  0.00    +0.000 A 
ATOM      3  S   UNL     1       2.337   8.677  17.791  0.00  0.00    +0.000 S 
ATOM      4  C   UNL     1       2.117   7.728  19.203  0.00  0.00    +0.000 A 
ATOM      5  N   UNL     1       2.837   6.561  19.139  0.00  0.00    +0.000 N 
ATOM      6  C   UNL     1       2.726   5.457  19.971  0.00  0.00    +0.000 C 
ATOM      7  O   UNL     1       1.932   5.365  20.906  0.00  0.00    +0.000 OA
ATOM      8  N   UNL     1       1.321   8.267  20.122  0.00  0.00    +0.000 NA
ATOM      9  H   UNL     1       3.410   6.463  18.306  0.00  0.00    +0.000 HD
ENDROOT
BRANCH   1  13
ATOM     10  C   UNL     1      -1.732  12.134  22.044  0.00  0.00    +0.000 A 
ATOM     11  C   UNL     1      -0.908  11.210  22.695  0.00  0.00    +0.000 A 
ATOM     12  C   UNL     1      -0.073  10.347  21.930  0.00  0.00    +0.000 A 
ATOM     13  C   UNL     1      -0.004  10.415  20.518  0.00  0.00    +0.000 A 
ATOM     14  C   UNL     1      -0.831  11.356  19.899  0.00  0.00    +0.000 A 
ATOM     15  C   UNL     1      -1.669  12.209  20.653  0.00  0.00    +0.000 A 
BRANCH  10  16
ATOM     16  C   UNL     1      -2.670  13.043  22.818  0.00  0.00    +0.000 C 
BRANCH  16  17
ATOM     17  C   UNL     1      -3.571  12.344  23.837  0.00  0.00    +0.000 C 
BRANCH  17  19
ATOM     18  C   UNL     1      -3.484  14.557  24.661  0.00  0.00    +0.000 C 
ATOM     19  O   UNL     1      -3.820  13.207  24.949  0.00  0.00    +0.000 OA
ENDBRANCH  17  19
ENDBRANCH  16  17
ENDBRANCH  10  16
ENDBRANCH   1  13
BRANCH   6  20
ATOM     20  C   UNL     1       3.707   4.273  19.631  0.00  0.00    +0.000 C 
BRANCH  20  21
ATOM     21  C   UNL     1       4.892   4.738  18.812  0.00  0.00    +0.000 A 
ATOM     22  C   UNL     1       6.082   5.124  19.364  0.00  0.00    +0.000 A 
ATOM     23  N   UNL     1       6.619   6.011  18.467  0.00  0.00    +0.000 N 
ATOM     24  C   UNL     1       6.394   5.435  17.238  0.00  0.00    +0.000 A 
ATOM     25  C   UNL     1       7.102   5.615  16.048  0.00  0.00    +0.000 A 
ATOM     26  C   UNL     1       6.687   4.896  14.943  0.00  0.00    +0.000 A 
ATOM     27  C   UNL     1       5.549   4.096  15.038  0.00  0.00    +0.000 A 
ATOM     28  C   UNL     1       4.805   3.965  16.241  0.00  0.00    +0.000 A 
ATOM     29  C   UNL     1       5.248   4.630  17.397  0.00  0.00    +0.000 A 
ATOM     30  H   UNL     1       6.485   7.019  18.556  0.00  0.00    +0.000 HD
ENDBRANCH  20  21
ENDBRANCH   6  20
TORSDOF 6
ENDMDL
MODEL 8
REMARK VINA RESULT:      -7.7      2.706      3.493
REMARK  Name = 
REMARK  7 active torsions:
REMARK  status: ('A' for Active; 'I' for Inactive)
REMARK    1  A    between atoms: C_1  and  O_2
REMARK    2  A    between atoms: O_2  and  C_3
REMARK    3  A    between atoms: C_3  and  C_4
REMARK    4  A    between atoms: C_4  and  C_5
REMARK    5  A    between atoms: C_8  and  C_9
REMARK    6  A    between atoms: C_14  and  C_16
REMARK    7  A    between atoms: C_16  and  C_17
REMARK                            x       y       z     vdW  Elec       q    Type
REMARK                         _______ _______ _______ _____ _____    ______ ____
ROOT
ATOM      1  C   UNL     1       1.541   8.067  20.057  0.00  0.00    +0.000 A 
ATOM      2  C   UNL     1       1.276   7.162  21.068  0.00  0.00    +0.000 A 
ATOM      3  S   UNL     1       1.904   5.617  20.657  0.00  0.00    +0.000 S 
ATOM      4  C   UNL     1       2.550   6.254  19.201  0.00  0.00    +0.000 A 
ATOM      5  N   UNL     1       3.206   5.288  18.479  0.00  0.00    +0.000 N 
ATOM      6  C   UNL     1       4.042   5.475  17.387  0.00  0.00    +0.000 C 
ATOM      7  O   UNL     1       4.327   6.570  16.908  0.00  0.00    +0.000 OA
ATOM      8  N   UNL     1       2.302   7.544  18.996  0.00  0.00    +0.000 NA
ATOM      9  H   UNL     1       3.170   4.358  18.886  0.00  0.00    +0.000 HD
ENDROOT
BRANCH   1  13
ATOM     10  C   UNL     1       0.050  12.173  20.077  0.00  0.00    +0.000 A 
ATOM     11  C   UNL     1      -0.024  11.406  21.245  0.00  0.00    +0.000 A 
ATOM     12  C   UNL     1       0.448  10.063  21.239  0.00  0.00    +0.000 A 
ATOM     13  C   UNL     1       1.041   9.474  20.097  0.00  0.00    +0.000 A 
ATOM     14  C   UNL     1       1.110  10.270  18.950  0.00  0.00    +0.000 A 
ATOM     15  C   UNL     1       0.635  11.601  18.948  0.00  0.00    +0.000 A 
BRANCH  10  16
ATOM     16  C   UNL     1      -0.480  13.595  20.028  0.00  0.00    +0.000 C 
BRANCH  16  17
ATOM     17  C   UNL     1      -0.210  14.353  18.727  0.00  0.00    +0.000 C 
BRANCH  17  19
ATOM     18  C   UNL     1       0.735  15.904  20.239  0.00  0.00    +0.000 C 
ATOM     19  O   UNL     1       0.799  15.344  18.935  0.00  0.00    +0.000 OA
ENDBRANCH  17  19
ENDBRANCH  16  17
ENDBRANCH  10  16
ENDBRANCH   1  13
BRANCH   6  20
ATOM     20  C   UNL     1       4.638   4.150  16.779  0.00  0.00    +0.000 C 
BRANCH  20  21
ATOM     21  C   UNL     1       5.774   4.430  15.819  0.00  0.00    +0.000 A 
ATOM     22  C   UNL     1       7.050   4.706  16.226  0.00  0.00    +0.000 A 
ATOM     23  N   UNL     1       7.584   5.475  15.225  0.00  0.00    +0.000 N 
ATOM     24  C   UNL     1       7.171   4.862  14.065  0.00  0.00    +0.000 A 
ATOM     25  C   UNL     1       7.767   4.894  12.802  0.00  0.00    +0.000 A 
ATOM     26  C   UNL     1       7.164   4.168  11.792  0.00  0.00    +0.000 A 
ATOM     27  C   UNL     1       5.961   3.511  12.050  0.00  0.00    +0.000 A 
ATOM     28  C   UNL     1       5.336   3.532  13.326  0.00  0.00    +0.000 A 
ATOM     29  C   UNL     1       5.967   4.205  14.387  0.00  0.00    +0.000 A 
ATOM     30  H   UNL     1       7.572   6.494  15.260  0.00  0.00    +0.000 HD
ENDBRANCH  20  21
ENDBRANCH   6  20
TORSDOF 6
ENDMDL
MODEL 9
REMARK VINA RESULT:      -7.6      3.349     10.409
REMARK  Name = 
REMARK  7 active torsions:
REMARK  status: ('A' for Active; 'I' for Inactive)
REMARK    1  A    between atoms: C_1  and  O_2
REMARK    2  A    between atoms: O_2  and  C_3
REMARK    3  A    between atoms: C_3  and  C_4
REMARK    4  A    between atoms: C_4  and  C_5
REMARK    5  A    between atoms: C_8  and  C_9
REMARK    6  A    between atoms: C_14  and  C_16
REMARK    7  A    between atoms: C_16  and  C_17
REMARK                            x       y       z     vdW  Elec       q    Type
REMARK                         _______ _______ _______ _____ _____    ______ ____
ROOT
ATOM      1  C   UNL     1       3.087   6.354  18.658  0.00  0.00    +0.000 A 
ATOM      2  C   UNL     1       2.588   5.540  19.659  0.00  0.00    +0.000 A 
ATOM      3  S   UNL     1       1.586   6.451  20.716  0.00  0.00    +0.000 S 
ATOM      4  C   UNL     1       1.816   7.848  19.749  0.00  0.00    +0.000 A 
ATOM      5  N   UNL     1       1.133   8.926  20.255  0.00  0.00    +0.000 N 
ATOM      6  C   UNL     1       0.891  10.141  19.629  0.00  0.00    +0.000 C 
ATOM      7  O   UNL     1       1.259  10.423  18.490  0.00  0.00    +0.000 OA
ATOM      8  N   UNL     1       2.614   7.678  18.699  0.00  0.00    +0.000 NA
ATOM      9  H   UNL     1       0.646   8.746  21.128  0.00  0.00    +0.000 HD
ENDROOT
BRANCH   1  13
ATOM     10  C   UNL     1       5.854   4.839  15.637  0.00  0.00    +0.000 A 
ATOM     11  C   UNL     1       5.968   6.163  16.075  0.00  0.00    +0.000 A 
ATOM     12  C   UNL     1       5.059   6.664  17.049  0.00  0.00    +0.000 A 
ATOM     13  C   UNL     1       4.057   5.857  17.638  0.00  0.00    +0.000 A 
ATOM     14  C   UNL     1       3.977   4.536  17.187  0.00  0.00    +0.000 A 
ATOM     15  C   UNL     1       4.871   4.035  16.213  0.00  0.00    +0.000 A 
BRANCH  10  16
ATOM     16  C   UNL     1       6.775   4.275  14.568  0.00  0.00    +0.000 C 
BRANCH  16  17
ATOM     17  C   UNL     1       6.076   3.689  13.341  0.00  0.00    +0.000 C 
BRANCH  17  19
ATOM     18  C   UNL     1       7.694   5.078  12.322  0.00  0.00    +0.000 C 
ATOM     19  O   UNL     1       6.845   3.949  12.165  0.00  0.00    +0.000 OA
ENDBRANCH  17  19
ENDBRANCH  16  17
ENDBRANCH  10  16
ENDBRANCH   1  13
BRANCH   6  20
ATOM     20  C   UNL     1       0.076  11.176  20.490  0.00  0.00    +0.000 C 
BRANCH  20  21
ATOM     21  C   UNL     1      -1.189  11.622  19.789  0.00  0.00    +0.000 A 
ATOM     22  C   UNL     1      -1.665  12.903  19.841  0.00  0.00    +0.000 A 
ATOM     23  N   UNL     1      -3.020  12.787  19.668  0.00  0.00    +0.000 N 
ATOM     24  C   UNL     1      -3.158  11.864  18.657  0.00  0.00    +0.000 A 
ATOM     25  C   UNL     1      -4.217  11.707  17.759  0.00  0.00    +0.000 A 
ATOM     26  C   UNL     1      -4.106  10.708  16.810  0.00  0.00    +0.000 A 
ATOM     27  C   UNL     1      -2.999   9.860  16.838  0.00  0.00    +0.000 A 
ATOM     28  C   UNL     1      -1.955   9.997  17.792  0.00  0.00    +0.000 A 
ATOM     29  C   UNL     1      -2.011  11.049  18.723  0.00  0.00    +0.000 A 
ATOM     30  H   UNL     1      -3.664  12.733  20.457  0.00  0.00    +0.000 HD
ENDBRANCH  20  21
ENDBRANCH   6  20
TORSDOF 6
ENDMDL
