MODEL 1
REMARK VINA RESULT:      -8.8      0.000      0.000
REMARK  Name = 
REMARK  4 active torsions:
REMARK  status: ('A' for Active; 'I' for Inactive)
REMARK    1  A    between atoms: C_2  and  C_3
REMARK    2  A    between atoms: N_11  and  C_12
REMARK    3  A    between atoms: C_12  and  C_13
REMARK    4  A    between atoms: C_17  and  C_18
REMARK                            x       y       z     vdW  Elec       q    Type
REMARK                         _______ _______ _______ _____ _____    ______ ____
ROOT
ATOM      1  C   UNL     1       3.531   7.008  17.373  0.00  0.00    +0.000 C 
ENDROOT
BRANCH   1   6
ATOM      2  C   UNL     1       1.201   9.668  18.703  0.00  0.00    +0.000 C 
ATOM      3  C   UNL     1       1.022   9.300  19.980  0.00  0.00    +0.000 C 
ATOM      4  C   UNL     1       1.727   8.081  20.518  0.00  0.00    +0.000 C 
ATOM      5  C   UNL     1       2.131   7.127  19.386  0.00  0.00    +0.000 C 
ATOM      6  N   UNL     1       2.940   7.867  18.410  0.00  0.00    +0.000 NA
ATOM      7  C   UNL     1       2.103   8.908  17.763  0.00  0.00    +0.000 C 
BRANCH   3   8
ATOM      8  C   UNL     1       0.091   9.961  20.902  0.00  0.00    +0.000 A 
ATOM      9  C   UNL     1      -0.046   9.478  22.208  0.00  0.00    +0.000 A 
ATOM     10  C   UNL     1      -0.797  10.186  23.149  0.00  0.00    +0.000 A 
ATOM     11  C   UNL     1      -1.425  11.374  22.789  0.00  0.00    +0.000 A 
ATOM     12  C   UNL     1      -1.322  11.845  21.477  0.00  0.00    +0.000 A 
ATOM     13  C   UNL     1      -0.571  11.138  20.536  0.00  0.00    +0.000 A 
ENDBRANCH   3   8
ENDBRANCH   1   6
BRANCH   1  14
ATOM     14  C   UNL     1       4.954   6.416  17.619  0.00  0.00    +0.000 C 
ATOM     15  C   UNL     1       5.590   5.713  16.409  0.00  0.00    +0.000 C 
ATOM     16  C   UNL     1       4.778   4.502  15.939  0.00  0.00    +0.000 C 
ATOM     17  C   UNL     1       4.023   3.787  17.032  0.00  0.00    +0.000 C 
ATOM     18  C   UNL     1       4.018   4.184  18.323  0.00  0.00    +0.000 C 
ATOM     19  C   UNL     1       4.871   5.363  18.751  0.00  0.00    +0.000 C 
BRANCH  18  20
ATOM     20  C   UNL     1       3.087   3.601  19.316  0.00  0.00    +0.000 A 
ATOM     21  C   UNL     1       3.550   3.084  20.533  0.00  0.00    +0.000 A 
ATOM     22  C   UNL     1       2.655   2.594  21.492  0.00  0.00    +0.000 A 
ATOM     23  C   UNL     1       1.283   2.620  21.250  0.00  0.00    +0.000 A 
ATOM     24  C   UNL     1       0.803   3.148  20.056  0.00  0.00    +0.000 A 
ATOM     25  C   UNL     1       1.697   3.639  19.101  0.00  0.00    +0.000 A 
ENDBRANCH  18  20
ENDBRANCH   1  14
TORSDOF 4
ENDMDL
MODEL 2
REMARK VINA RESULT:      -8.3      1.980      4.775
REMARK  Name = 
REMARK  4 active torsions:
REMARK  status: ('A' for Active; 'I' for Inactive)
REMARK    1  A    between atoms: C_2  and  C_3
REMARK    2  A    between atoms: N_11  and  C_12
REMARK    3  A    between atoms: C_12  and  C_13
REMARK    4  A    between atoms: C_17  and  C_18
REMARK                            x       y       z     vdW  Elec       q    Type
REMARK                         _______ _______ _______ _____ _____    ______ ____
ROOT
ATOM      1  C   UNL     1       3.907   5.980  17.228  0.00  0.00    +0.000 C 
ENDROOT
BRANCH   1   6
ATOM      2  C   UNL     1       2.085   7.111  20.338  0.00  0.00    +0.000 C 
ATOM      3  C   UNL     1       1.553   8.284  19.965  0.00  0.00    +0.000 C 
ATOM      4  C   UNL     1       1.760   8.793  18.561  0.00  0.00    +0.000 C 
ATOM      5  C   UNL     1       2.998   8.154  17.916  0.00  0.00    +0.000 C 
ATOM      6  N   UNL     1       2.863   6.694  17.977  0.00  0.00    +0.000 NA
ATOM      7  C   UNL     1       2.891   6.254  19.395  0.00  0.00    +0.000 C 
BRANCH   3   8
ATOM      8  C   UNL     1       0.835   9.186  20.874  0.00  0.00    +0.000 A 
ATOM      9  C   UNL     1       0.143  10.283  20.352  0.00  0.00    +0.000 A 
ATOM     10  C   UNL     1      -0.680  11.057  21.173  0.00  0.00    +0.000 A 
ATOM     11  C   UNL     1      -0.808  10.747  22.523  0.00  0.00    +0.000 A 
ATOM     12  C   UNL     1      -0.092   9.672  23.060  0.00  0.00    +0.000 A 
ATOM     13  C   UNL     1       0.731   8.898  22.239  0.00  0.00    +0.000 A 
ENDBRANCH   3   8
ENDBRANCH   1   6
BRANCH   1  14
ATOM     14  C   UNL     1       4.648   4.798  17.928  0.00  0.00    +0.000 C 
ATOM     15  C   UNL     1       5.728   5.210  18.942  0.00  0.00    +0.000 C 
ATOM     16  C   UNL     1       6.865   6.009  18.297  0.00  0.00    +0.000 C 
ATOM     17  C   UNL     1       7.147   5.654  16.858  0.00  0.00    +0.000 C 
ATOM     18  C   UNL     1       6.444   4.736  16.161  0.00  0.00    +0.000 C 
ATOM     19  C   UNL     1       5.355   3.939  16.852  0.00  0.00    +0.000 C 
BRANCH  18  20
ATOM     20  C   UNL     1       6.595   4.584  14.695  0.00  0.00    +0.000 A 
ATOM     21  C   UNL     1       7.578   5.286  13.987  0.00  0.00    +0.000 A 
ATOM     22  C   UNL     1       7.754   5.086  12.613  0.00  0.00    +0.000 A 
ATOM     23  C   UNL     1       6.954   4.174  11.927  0.00  0.00    +0.000 A 
ATOM     24  C   UNL     1       5.985   3.453  12.617  0.00  0.00    +0.000 A 
ATOM     25  C   UNL     1       5.812   3.652  13.990  0.00  0.00    +0.000 A 
ENDBRANCH  18  20
ENDBRANCH   1  14
TORSDOF 4
ENDMDL
MODEL 3
REMARK VINA RESULT:      -8.3      1.993      4.638
REMARK  Name = 
REMARK  4 active torsions:
REMARK  status: ('A' for Active; 'I' for Inactive)
REMARK    1  A    between atoms: C_2  and  C_3
REMARK    2  A    between atoms: N_11  and  C_12
REMARK    3  A    between atoms: C_12  and  C_13
REMARK    4  A    between atoms: C_17  and  C_18
REMARK                            x       y       z     vdW  Elec       q    Type
REMARK                         _______ _______ _______ _____ _____    ______ ____
ROOT
ATOM      1  C   UNL     1       4.065   5.834  17.289  0.00  0.00    +0.000 C 
ENDROOT
BRANCH   1   6
ATOM      2  C   UNL     1       1.967   8.821  18.264  0.00  0.00    +0.000 C 
ATOM      3  C   UNL     1       1.616   8.542  19.528  0.00  0.00    +0.000 C 
ATOM      4  C   UNL     1       2.104   7.276  20.183  0.00  0.00    +0.000 C 
ATOM      5  C   UNL     1       2.496   6.224  19.136  0.00  0.00    +0.000 C 
ATOM      6  N   UNL     1       3.485   6.809  18.225  0.00  0.00    +0.000 NA
ATOM      7  C   UNL     1       2.855   7.911  17.454  0.00  0.00    +0.000 C 
BRANCH   3   8
ATOM      8  C   UNL     1       0.687   9.358  20.321  0.00  0.00    +0.000 A 
ATOM      9  C   UNL     1       0.427   9.009  21.650  0.00  0.00    +0.000 A 
ATOM     10  C   UNL     1      -0.319   9.858  22.471  0.00  0.00    +0.000 A 
ATOM     11  C   UNL     1      -0.819  11.054  21.966  0.00  0.00    +0.000 A 
ATOM     12  C   UNL     1      -0.593  11.393  20.629  0.00  0.00    +0.000 A 
ATOM     13  C   UNL     1       0.153  10.545  19.808  0.00  0.00    +0.000 A 
ENDBRANCH   3   8
ENDBRANCH   1   6
BRANCH   1  14
ATOM     14  C   UNL     1       4.519   4.448  17.845  0.00  0.00    +0.000 C 
ATOM     15  C   UNL     1       5.573   4.504  18.962  0.00  0.00    +0.000 C 
ATOM     16  C   UNL     1       6.885   5.147  18.501  0.00  0.00    +0.000 C 
ATOM     17  C   UNL     1       7.208   4.943  17.042  0.00  0.00    +0.000 C 
ATOM     18  C   UNL     1       6.405   4.280  16.182  0.00  0.00    +0.000 C 
ATOM     19  C   UNL     1       5.137   3.622  16.691  0.00  0.00    +0.000 C 
BRANCH  18  20
ATOM     20  C   UNL     1       6.640   4.301  14.719  0.00  0.00    +0.000 A 
ATOM     21  C   UNL     1       5.873   3.518  13.847  0.00  0.00    +0.000 A 
ATOM     22  C   UNL     1       6.061   3.593  12.462  0.00  0.00    +0.000 A 
ATOM     23  C   UNL     1       7.014   4.458  11.928  0.00  0.00    +0.000 A 
ATOM     24  C   UNL     1       7.772   5.258  12.777  0.00  0.00    +0.000 A 
ATOM     25  C   UNL     1       7.582   5.183  14.160  0.00  0.00    +0.000 A 
ENDBRANCH  18  20
ENDBRANCH   1  14
TORSDOF 4
ENDMDL
MODEL 4
REMARK VINA RESULT:      -8.2      1.979      4.674
REMARK  Name = 
REMARK  4 active torsions:
REMARK  status: ('A' for Active; 'I' for Inactive)
REMARK    1  A    between atoms: C_2  and  C_3
REMARK    2  A    between atoms: N_11  and  C_12
REMARK    3  A    between atoms: C_12  and  C_13
REMARK    4  A    between atoms: C_17  and  C_18
REMARK                            x       y       z     vdW  Elec       q    Type
REMARK                         _______ _______ _______ _____ _____    ______ ____
ROOT
ATOM      1  C   UNL     1       3.966   5.786  17.349  0.00  0.00    +0.000 C 
ENDROOT
BRANCH   1   6
ATOM      2  C   UNL     1       2.086   8.847  18.518  0.00  0.00    +0.000 C 
ATOM      3  C   UNL     1       1.727   8.520  19.769  0.00  0.00    +0.000 C 
ATOM      4  C   UNL     1       2.134   7.188  20.345  0.00  0.00    +0.000 C 
ATOM      5  C   UNL     1       2.444   6.174  19.235  0.00  0.00    +0.000 C 
ATOM      6  N   UNL     1       3.463   6.743  18.346  0.00  0.00    +0.000 NA
ATOM      7  C   UNL     1       2.903   7.927  17.647  0.00  0.00    +0.000 C 
BRANCH   3   8
ATOM      8  C   UNL     1       0.864   9.350  20.618  0.00  0.00    +0.000 A 
ATOM      9  C   UNL     1       0.104  10.372  20.040  0.00  0.00    +0.000 A 
ATOM     10  C   UNL     1      -0.844  11.063  20.797  0.00  0.00    +0.000 A 
ATOM     11  C   UNL     1      -1.032  10.746  22.138  0.00  0.00    +0.000 A 
ATOM     12  C   UNL     1      -0.252   9.750  22.732  0.00  0.00    +0.000 A 
ATOM     13  C   UNL     1       0.696   9.058  21.977  0.00  0.00    +0.000 A 
ENDBRANCH   3   8
ENDBRANCH   1   6
BRANCH   1  14
ATOM     14  C   UNL     1       4.391   4.364  17.830  0.00  0.00    +0.000 C 
ATOM     15  C   UNL     1       5.448   4.339  18.946  0.00  0.00    +0.000 C 
ATOM     16  C   UNL     1       6.772   4.978  18.516  0.00  0.00    +0.000 C 
ATOM     17  C   UNL     1       7.090   4.843  17.048  0.00  0.00    +0.000 C 
ATOM     18  C   UNL     1       6.272   4.243  16.156  0.00  0.00    +0.000 C 
ATOM     19  C   UNL     1       4.991   3.586  16.634  0.00  0.00    +0.000 C 
BRANCH  18  20
ATOM     20  C   UNL     1       6.505   4.335  14.696  0.00  0.00    +0.000 A 
ATOM     21  C   UNL     1       7.511   5.156  14.169  0.00  0.00    +0.000 A 
ATOM     22  C   UNL     1       7.765   5.186  12.793  0.00  0.00    +0.000 A 
ATOM     23  C   UNL     1       7.021   4.389  11.924  0.00  0.00    +0.000 A 
ATOM     24  C   UNL     1       6.032   3.553  12.430  0.00  0.00    +0.000 A 
ATOM     25  C   UNL     1       5.781   3.522  13.805  0.00  0.00    +0.000 A 
ENDBRANCH  18  20
ENDBRANCH   1  14
TORSDOF 4
ENDMDL
MODEL 5
REMARK VINA RESULT:      -8.2      1.908      4.570
REMARK  Name = 
REMARK  4 active torsions:
REMARK  status: ('A' for Active; 'I' for Inactive)
REMARK    1  A    between atoms: C_2  and  C_3
REMARK    2  A    between atoms: N_11  and  C_12
REMARK    3  A    between atoms: C_12  and  C_13
REMARK    4  A    between atoms: C_17  and  C_18
REMARK                            x       y       z     vdW  Elec       q    Type
REMARK                         _______ _______ _______ _____ _____    ______ ____
ROOT
ATOM      1  C   UNL     1       3.837   6.005  17.444  0.00  0.00    +0.000 C 
ENDROOT
BRANCH   1   6
ATOM      2  C   UNL     1       1.858   7.273  20.401  0.00  0.00    +0.000 C 
ATOM      3  C   UNL     1       1.336   8.421  19.944  0.00  0.00    +0.000 C 
ATOM      4  C   UNL     1       1.608   8.861  18.528  0.00  0.00    +0.000 C 
ATOM      5  C   UNL     1       2.881   8.202  17.976  0.00  0.00    +0.000 C 
ATOM      6  N   UNL     1       2.752   6.747  18.104  0.00  0.00    +0.000 NA
ATOM      7  C   UNL     1       2.714   6.378  19.542  0.00  0.00    +0.000 C 
BRANCH   3   8
ATOM      8  C   UNL     1       0.568   9.360  20.770  0.00  0.00    +0.000 A 
ATOM      9  C   UNL     1       0.001   8.918  21.970  0.00  0.00    +0.000 A 
ATOM     10  C   UNL     1      -0.590   9.827  22.851  0.00  0.00    +0.000 A 
ATOM     11  C   UNL     1      -0.630  11.180  22.533  0.00  0.00    +0.000 A 
ATOM     12  C   UNL     1      -0.097  11.625  21.320  0.00  0.00    +0.000 A 
ATOM     13  C   UNL     1       0.495  10.718  20.439  0.00  0.00    +0.000 A 
ENDBRANCH   3   8
ENDBRANCH   1   6
BRANCH   1  14
ATOM     14  C   UNL     1       4.344   4.684  18.102  0.00  0.00    +0.000 C 
ATOM     15  C   UNL     1       5.402   4.864  19.203  0.00  0.00    +0.000 C 
ATOM     16  C   UNL     1       6.687   5.515  18.682  0.00  0.00    +0.000 C 
ATOM     17  C   UNL     1       7.009   5.209  17.241  0.00  0.00    +0.000 C 
ATOM     18  C   UNL     1       6.226   4.453  16.442  0.00  0.00    +0.000 C 
ATOM     19  C   UNL     1       4.985   3.792  17.012  0.00  0.00    +0.000 C 
BRANCH  18  20
ATOM     20  C   UNL     1       6.452   4.367  14.980  0.00  0.00    +0.000 A 
ATOM     21  C   UNL     1       5.607   3.615  14.155  0.00  0.00    +0.000 A 
ATOM     22  C   UNL     1       5.791   3.592  12.768  0.00  0.00    +0.000 A 
ATOM     23  C   UNL     1       6.821   4.328  12.184  0.00  0.00    +0.000 A 
ATOM     24  C   UNL     1       7.659   5.097  12.985  0.00  0.00    +0.000 A 
ATOM     25  C   UNL     1       7.472   5.120  14.370  0.00  0.00    +0.000 A 
ENDBRANCH  18  20
ENDBRANCH   1  14
TORSDOF 4
ENDMDL
MODEL 6
REMARK VINA RESULT:      -8.2      2.034      4.882
REMARK  Name = 
REMARK  4 active torsions:
REMARK  status: ('A' for Active; 'I' for Inactive)
REMARK    1  A    between atoms: C_2  and  C_3
REMARK    2  A    between atoms: N_11  and  C_12
REMARK    3  A    between atoms: C_12  and  C_13
REMARK    4  A    between atoms: C_17  and  C_18
REMARK                            x       y       z     vdW  Elec       q    Type
REMARK                         _______ _______ _______ _____ _____    ______ ____
ROOT
ATOM      1  C   UNL     1       3.874   5.680  17.150  0.00  0.00    +0.000 C 
ENDROOT
BRANCH   1   6
ATOM      2  C   UNL     1       2.101   6.842  20.278  0.00  0.00    +0.000 C 
ATOM      3  C   UNL     1       1.642   8.053  19.930  0.00  0.00    +0.000 C 
ATOM      4  C   UNL     1       1.887   8.582  18.540  0.00  0.00    +0.000 C 
ATOM      5  C   UNL     1       3.090   7.887  17.886  0.00  0.00    +0.000 C 
ATOM      6  N   UNL     1       2.868   6.437  17.910  0.00  0.00    +0.000 NA
ATOM      7  C   UNL     1       2.861   5.962  19.318  0.00  0.00    +0.000 C 
BRANCH   3   8
ATOM      8  C   UNL     1       0.972   8.973  20.857  0.00  0.00    +0.000 A 
ATOM      9  C   UNL     1       0.191  10.017  20.349  0.00  0.00    +0.000 A 
ATOM     10  C   UNL     1      -0.586  10.801  21.204  0.00  0.00    +0.000 A 
ATOM     11  C   UNL     1      -0.579  10.556  22.573  0.00  0.00    +0.000 A 
ATOM     12  C   UNL     1       0.225   9.537  23.093  0.00  0.00    +0.000 A 
ATOM     13  C   UNL     1       1.002   8.752  22.238  0.00  0.00    +0.000 A 
ENDBRANCH   3   8
ENDBRANCH   1   6
BRANCH   1  14
ATOM     14  C   UNL     1       4.894   4.798  17.937  0.00  0.00    +0.000 C 
ATOM     15  C   UNL     1       5.883   5.573  18.822  0.00  0.00    +0.000 C 
ATOM     16  C   UNL     1       6.780   6.517  18.015  0.00  0.00    +0.000 C 
ATOM     17  C   UNL     1       7.085   6.051  16.614  0.00  0.00    +0.000 C 
ATOM     18  C   UNL     1       6.591   4.914  16.077  0.00  0.00    +0.000 C 
ATOM     19  C   UNL     1       5.742   3.988  16.928  0.00  0.00    +0.000 C 
BRANCH  18  20
ATOM     20  C   UNL     1       6.722   4.609  14.634  0.00  0.00    +0.000 A 
ATOM     21  C   UNL     1       5.880   3.683  14.005  0.00  0.00    +0.000 A 
ATOM     22  C   UNL     1       5.970   3.450  12.628  0.00  0.00    +0.000 A 
ATOM     23  C   UNL     1       6.900   4.146  11.857  0.00  0.00    +0.000 A 
ATOM     24  C   UNL     1       7.731   5.084  12.460  0.00  0.00    +0.000 A 
ATOM     25  C   UNL     1       7.638   5.317  13.835  0.00  0.00    +0.000 A 
ENDBRANCH  18  20
ENDBRANCH   1  14
TORSDOF 4
ENDMDL
MODEL 7
REMARK VINA RESULT:      -8.2      1.622      4.306
REMARK  Name = 
REMARK  4 active torsions:
REMARK  status: ('A' for Active; 'I' for Inactive)
REMARK    1  A    between atoms: C_2  and  C_3
REMARK    2  A    between atoms: N_11  and  C_12
REMARK    3  A    between atoms: C_12  and  C_13
REMARK    4  A    between atoms: C_17  and  C_18
REMARK                            x       y       z     vdW  Elec       q    Type
REMARK                         _______ _______ _______ _____ _____    ______ ____
ROOT
ATOM      1  C   UNL     1       1.878   5.619  20.561  0.00  0.00    +0.000 C 
ENDROOT
BRANCH   1   6
ATOM      2  C   UNL     1       0.939   9.277  20.702  0.00  0.00    +0.000 C 
ATOM      3  C   UNL     1       1.239   9.711  19.469  0.00  0.00    +0.000 C 
ATOM      4  C   UNL     1       1.783   8.751  18.443  0.00  0.00    +0.000 C 
ATOM      5  C   UNL     1       2.421   7.525  19.112  0.00  0.00    +0.000 C 
ATOM      6  N   UNL     1       1.433   6.906  20.002  0.00  0.00    +0.000 NA
ATOM      7  C   UNL     1       1.118   7.837  21.115  0.00  0.00    +0.000 C 
BRANCH   3   8
ATOM      8  C   UNL     1       1.159  11.117  19.053  0.00  0.00    +0.000 A 
ATOM      9  C   UNL     1       0.083  11.902  19.480  0.00  0.00    +0.000 A 
ATOM     10  C   UNL     1       0.070  13.277  19.236  0.00  0.00    +0.000 A 
ATOM     11  C   UNL     1       1.125  13.874  18.554  0.00  0.00    +0.000 A 
ATOM     12  C   UNL     1       2.188  13.091  18.094  0.00  0.00    +0.000 A 
ATOM     13  C   UNL     1       2.202  11.716  18.338  0.00  0.00    +0.000 A 
ENDBRANCH   3   8
ENDBRANCH   1   6
BRANCH   1  14
ATOM     14  C   UNL     1       1.206   4.310  20.039  0.00  0.00    +0.000 C 
ATOM     15  C   UNL     1       1.227   3.128  21.021  0.00  0.00    +0.000 C 
ATOM     16  C   UNL     1       2.649   2.680  21.373  0.00  0.00    +0.000 C 
ATOM     17  C   UNL     1       3.663   2.887  20.276  0.00  0.00    +0.000 C 
ATOM     18  C   UNL     1       3.375   3.452  19.084  0.00  0.00    +0.000 C 
ATOM     19  C   UNL     1       1.944   3.840  18.763  0.00  0.00    +0.000 C 
BRANCH  18  20
ATOM     20  C   UNL     1       4.435   3.849  18.130  0.00  0.00    +0.000 A 
ATOM     21  C   UNL     1       4.225   3.801  16.746  0.00  0.00    +0.000 A 
ATOM     22  C   UNL     1       5.211   4.239  15.854  0.00  0.00    +0.000 A 
ATOM     23  C   UNL     1       6.421   4.738  16.334  0.00  0.00    +0.000 A 
ATOM     24  C   UNL     1       6.641   4.812  17.706  0.00  0.00    +0.000 A 
ATOM     25  C   UNL     1       5.654   4.376  18.595  0.00  0.00    +0.000 A 
ENDBRANCH  18  20
ENDBRANCH   1  14
TORSDOF 4
ENDMDL
MODEL 8
REMARK VINA RESULT:      -8.1      1.673      4.292
REMARK  Name = 
REMARK  4 active torsions:
REMARK  status: ('A' for Active; 'I' for Inactive)
REMARK    1  A    between atoms: C_2  and  C_3
REMARK    2  A    between atoms: N_11  and  C_12
REMARK    3  A    between atoms: C_12  and  C_13
REMARK    4  A    between atoms: C_17  and  C_18
REMARK                            x       y       z     vdW  Elec       q    Type
REMARK                         _______ _______ _______ _____ _____    ______ ____
ROOT
ATOM      1  C   UNL     1       2.391   5.715  19.828  0.00  0.00    +0.000 C 
ENDROOT
BRANCH   1   6
ATOM      2  C   UNL     1       1.051   9.209  20.347  0.00  0.00    +0.000 C 
ATOM      3  C   UNL     1       1.164   9.758  19.128  0.00  0.00    +0.000 C 
ATOM      4  C   UNL     1       1.705   8.943  17.982  0.00  0.00    +0.000 C 
ATOM      5  C   UNL     1       2.550   7.765  18.487  0.00  0.00    +0.000 C 
ATOM      6  N   UNL     1       1.742   6.969  19.418  0.00  0.00    +0.000 NA
ATOM      7  C   UNL     1       1.439   7.779  20.626  0.00  0.00    +0.000 C 
BRANCH   3   8
ATOM      8  C   UNL     1       0.876  11.167  18.834  0.00  0.00    +0.000 A 
ATOM      9  C   UNL     1      -0.439  11.635  18.920  0.00  0.00    +0.000 A 
ATOM     10  C   UNL     1      -0.714  12.999  18.807  0.00  0.00    +0.000 A 
ATOM     11  C   UNL     1       0.321  13.904  18.595  0.00  0.00    +0.000 A 
ATOM     12  C   UNL     1       1.635  13.441  18.472  0.00  0.00    +0.000 A 
ATOM     13  C   UNL     1       1.910  12.077  18.586  0.00  0.00    +0.000 A 
ENDBRANCH   3   8
ENDBRANCH   1   6
BRANCH   1  14
ATOM     14  C   UNL     1       1.757   4.365  19.366  0.00  0.00    +0.000 C 
ATOM     15  C   UNL     1       2.047   3.160  20.277  0.00  0.00    +0.000 C 
ATOM     16  C   UNL     1       3.542   2.838  20.368  0.00  0.00    +0.000 C 
ATOM     17  C   UNL     1       4.335   3.171  19.129  0.00  0.00    +0.000 C 
ATOM     18  C   UNL     1       3.800   3.742  18.028  0.00  0.00    +0.000 C 
ATOM     19  C   UNL     1       2.308   4.004  17.965  0.00  0.00    +0.000 C 
BRANCH  18  20
ATOM     20  C   UNL     1       4.646   4.264  16.930  0.00  0.00    +0.000 A 
ATOM     21  C   UNL     1       5.370   3.404  16.095  0.00  0.00    +0.000 A 
ATOM     22  C   UNL     1       6.115   3.904  15.020  0.00  0.00    +0.000 A 
ATOM     23  C   UNL     1       6.141   5.273  14.761  0.00  0.00    +0.000 A 
ATOM     24  C   UNL     1       5.413   6.142  15.567  0.00  0.00    +0.000 A 
ATOM     25  C   UNL     1       4.668   5.640  16.638  0.00  0.00    +0.000 A 
ENDBRANCH  18  20
ENDBRANCH   1  14
TORSDOF 4
ENDMDL
MODEL 9
REMARK VINA RESULT:      -8.1      1.681      4.301
REMARK  Name = 
REMARK  4 active torsions:
REMARK  status: ('A' for Active; 'I' for Inactive)
REMARK    1  A    between atoms: C_2  and  C_3
REMARK    2  A    between atoms: N_11  and  C_12
REMARK    3  A    between atoms: C_12  and  C_13
REMARK    4  A    between atoms: C_17  and  C_18
REMARK                            x       y       z     vdW  Elec       q    Type
REMARK                         _______ _______ _______ _____ _____    ______ ____
ROOT
ATOM      1  C   UNL     1       2.391   5.719  19.726  0.00  0.00    +0.000 C 
ENDROOT
BRANCH   1   6
ATOM      2  C   UNL     1       1.047   9.151  20.555  0.00  0.00    +0.000 C 
ATOM      3  C   UNL     1       1.083   9.782  19.372  0.00  0.00    +0.000 C 
ATOM      4  C   UNL     1       1.565   9.053  18.144  0.00  0.00    +0.000 C 
ATOM      5  C   UNL     1       2.451   7.856  18.520  0.00  0.00    +0.000 C 
ATOM      6  N   UNL     1       1.707   6.989  19.440  0.00  0.00    +0.000 NA
ATOM      7  C   UNL     1       1.466   7.711  20.715  0.00  0.00    +0.000 C 
BRANCH   3   8
ATOM      8  C   UNL     1       0.764  11.203  19.190  0.00  0.00    +0.000 A 
ATOM      9  C   UNL     1       1.761  12.084  18.760  0.00  0.00    +0.000 A 
ATOM     10  C   UNL     1       1.444  13.402  18.422  0.00  0.00    +0.000 A 
ATOM     11  C   UNL     1       0.132  13.850  18.523  0.00  0.00    +0.000 A 
ATOM     12  C   UNL     1      -0.865  12.986  18.986  0.00  0.00    +0.000 A 
ATOM     13  C   UNL     1      -0.549  11.669  19.323  0.00  0.00    +0.000 A 
ENDBRANCH   3   8
ENDBRANCH   1   6
BRANCH   1  14
ATOM     14  C   UNL     1       1.760   4.396  19.190  0.00  0.00    +0.000 C 
ATOM     15  C   UNL     1       1.776   3.216  20.175  0.00  0.00    +0.000 C 
ATOM     16  C   UNL     1       3.196   2.797  20.569  0.00  0.00    +0.000 C 
ATOM     17  C   UNL     1       4.237   3.021  19.501  0.00  0.00    +0.000 C 
ATOM     18  C   UNL     1       3.972   3.578  18.300  0.00  0.00    +0.000 C 
ATOM     19  C   UNL     1       2.544   3.937  17.936  0.00  0.00    +0.000 C 
BRANCH  18  20
ATOM     20  C   UNL     1       5.052   3.992  17.374  0.00  0.00    +0.000 A 
ATOM     21  C   UNL     1       4.848   4.035  15.989  0.00  0.00    +0.000 A 
ATOM     22  C   UNL     1       5.855   4.490  15.129  0.00  0.00    +0.000 A 
ATOM     23  C   UNL     1       7.078   4.916  15.643  0.00  0.00    +0.000 A 
ATOM     24  C   UNL     1       7.292   4.900  17.018  0.00  0.00    +0.000 A 
ATOM     25  C   UNL     1       6.285   4.447  17.875  0.00  0.00    +0.000 A 
ENDBRANCH  18  20
ENDBRANCH   1  14
TORSDOF 4
ENDMDL
