MODEL 1
REMARK VINA RESULT:      -6.6      0.000      0.000
REMARK  Name = 
REMARK  12 active torsions:
REMARK  status: ('A' for Active; 'I' for Inactive)
REMARK    1  A    between atoms: C_1  and  O_2
REMARK    2  A    between atoms: O_2  and  C_3
REMARK    3  A    between atoms: C_6  and  C_7
REMARK    4  A    between atoms: C_7  and  N_8
REMARK    5  A    between atoms: N_8  and  C_9
REMARK    6  A    between atoms: C_9  and  C_10
REMARK    7  A    between atoms: C_9  and  C_11
REMARK    8  A    between atoms: C_11  and  N_12
REMARK    9  A    between atoms: C_17  and  O_18
REMARK   10  A    between atoms: O_18  and  C_19
REMARK   11  A    between atoms: C_20  and  O_21
REMARK   12  A    between atoms: O_21  and  C_22
REMARK                            x       y       z     vdW  Elec       q    Type
REMARK                         _______ _______ _______ _____ _____    ______ ____
ROOT
ATOM      1  C   UNL     1       2.197   5.847  19.734  0.00  0.00    +0.000 A 
ATOM      2  C   UNL     1       2.944   6.585  18.789  0.00  0.00    +0.000 A 
ATOM      3  C   UNL     1       3.543   5.964  17.703  0.00  0.00    +0.000 A 
ATOM      4  C   UNL     1       3.423   4.588  17.520  0.00  0.00    +0.000 A 
ATOM      5  C   UNL     1       2.666   3.815  18.426  0.00  0.00    +0.000 A 
ATOM      6  C   UNL     1       2.041   4.443  19.544  0.00  0.00    +0.000 A 
ENDROOT
BRANCH   1   8
ATOM      7  C   UNL     1       1.426   7.842  20.911  0.00  0.00    +0.000 C 
ATOM      8  O   UNL     1       1.645   6.477  20.808  0.00  0.00    +0.000 OA
ENDBRANCH   1   8
BRANCH   5   9
ATOM      9  O   UNL     1       2.578   2.476  18.172  0.00  0.00    +0.000 OA
ATOM     10  C   UNL     1       3.426   1.460  18.565  0.00  0.00    +0.000 C 
ENDBRANCH   5   9
BRANCH   6  11
ATOM     11  O   UNL     1       1.321   3.646  20.380  0.00  0.00    +0.000 OA
ATOM     12  C   UNL     1       1.677   2.979  21.528  0.00  0.00    +0.000 C 
ENDBRANCH   6  11
BRANCH   4  13
ATOM     13  C   UNL     1       4.146   3.946  16.358  0.00  0.00    +0.000 C 
BRANCH  13  14
ATOM     14  N   UNL     1       5.543   3.650  16.704  0.00  0.00    +0.000 NA
ATOM     15  H   UNL     1       5.632   2.608  16.764  0.00  0.00    +0.000 HD
BRANCH  14  16
ATOM     16  C   UNL     1       6.504   4.135  15.688  0.00  0.00    +0.000 C 
ATOM     17  C   UNL     1       6.068   3.770  14.256  0.00  0.00    +0.000 C 
BRANCH  16  18
ATOM     18  C   UNL     1       6.628   5.669  15.784  0.00  0.00    +0.000 C 
BRANCH  18  19
ATOM     19  N   UNL     1       7.221   6.077  17.054  0.00  0.00    +0.000 N 
ATOM     20  C   UNL     1       7.562   7.330  17.408  0.00  0.00    +0.000 A 
ATOM     21  C   UNL     1       8.092   7.286  18.677  0.00  0.00    +0.000 A 
ATOM     22  C   UNL     1       8.046   5.957  19.044  0.00  0.00    +0.000 A 
ATOM     23  N   UNL     1       7.511   5.236  18.039  0.00  0.00    +0.000 NA
ENDBRANCH  18  19
ENDBRANCH  16  18
ENDBRANCH  14  16
ENDBRANCH  13  14
ENDBRANCH   4  13
TORSDOF 8
ENDMDL
MODEL 2
REMARK VINA RESULT:      -6.1      1.222      2.695
REMARK  Name = 
REMARK  12 active torsions:
REMARK  status: ('A' for Active; 'I' for Inactive)
REMARK    1  A    between atoms: C_1  and  O_2
REMARK    2  A    between atoms: O_2  and  C_3
REMARK    3  A    between atoms: C_6  and  C_7
REMARK    4  A    between atoms: C_7  and  N_8
REMARK    5  A    between atoms: N_8  and  C_9
REMARK    6  A    between atoms: C_9  and  C_10
REMARK    7  A    between atoms: C_9  and  C_11
REMARK    8  A    between atoms: C_11  and  N_12
REMARK    9  A    between atoms: C_17  and  O_18
REMARK   10  A    between atoms: O_18  and  C_19
REMARK   11  A    between atoms: C_20  and  O_21
REMARK   12  A    between atoms: O_21  and  C_22
REMARK                            x       y       z     vdW  Elec       q    Type
REMARK                         _______ _______ _______ _____ _____    ______ ____
ROOT
ATOM      1  C   UNL     1       1.848   3.147  19.768  0.00  0.00    +0.000 A 
ATOM      2  C   UNL     1       1.960   2.179  18.744  0.00  0.00    +0.000 A 
ATOM      3  C   UNL     1       2.757   2.400  17.631  0.00  0.00    +0.000 A 
ATOM      4  C   UNL     1       3.469   3.590  17.495  0.00  0.00    +0.000 A 
ATOM      5  C   UNL     1       3.407   4.574  18.505  0.00  0.00    +0.000 A 
ATOM      6  C   UNL     1       2.594   4.357  19.657  0.00  0.00    +0.000 A 
ENDROOT
BRANCH   1   8
ATOM      7  C   UNL     1       1.452   2.493  22.087  0.00  0.00    +0.000 C 
ATOM      8  O   UNL     1       1.034   2.919  20.836  0.00  0.00    +0.000 OA
ENDBRANCH   1   8
BRANCH   5   9
ATOM      9  O   UNL     1       4.145   5.706  18.311  0.00  0.00    +0.000 OA
ATOM     10  C   UNL     1       3.745   6.929  17.811  0.00  0.00    +0.000 C 
ENDBRANCH   5   9
BRANCH   6  11
ATOM     11  O   UNL     1       2.577   5.340  20.598  0.00  0.00    +0.000 OA
ATOM     12  C   UNL     1       1.612   6.261  20.931  0.00  0.00    +0.000 C 
ENDBRANCH   6  11
BRANCH   4  13
ATOM     13  C   UNL     1       4.274   3.812  16.235  0.00  0.00    +0.000 C 
BRANCH  13  14
ATOM     14  N   UNL     1       5.697   3.524  16.460  0.00  0.00    +0.000 NA
ATOM     15  H   UNL     1       5.820   2.488  16.372  0.00  0.00    +0.000 HD
BRANCH  14  16
ATOM     16  C   UNL     1       6.581   4.177  15.468  0.00  0.00    +0.000 C 
ATOM     17  C   UNL     1       6.198   3.811  14.020  0.00  0.00    +0.000 C 
BRANCH  16  18
ATOM     18  C   UNL     1       6.491   5.709  15.624  0.00  0.00    +0.000 C 
BRANCH  18  19
ATOM     19  N   UNL     1       7.137   6.157  16.855  0.00  0.00    +0.000 N 
ATOM     20  C   UNL     1       7.444   5.391  17.918  0.00  0.00    +0.000 A 
ATOM     21  C   UNL     1       8.035   6.194  18.866  0.00  0.00    +0.000 A 
ATOM     22  C   UNL     1       8.056   7.457  18.310  0.00  0.00    +0.000 A 
ATOM     23  N   UNL     1       7.503   7.412  17.083  0.00  0.00    +0.000 NA
ENDBRANCH  18  19
ENDBRANCH  16  18
ENDBRANCH  14  16
ENDBRANCH  13  14
ENDBRANCH   4  13
TORSDOF 8
ENDMDL
MODEL 3
REMARK VINA RESULT:      -6.0      1.753      3.217
REMARK  Name = 
REMARK  12 active torsions:
REMARK  status: ('A' for Active; 'I' for Inactive)
REMARK    1  A    between atoms: C_1  and  O_2
REMARK    2  A    between atoms: O_2  and  C_3
REMARK    3  A    between atoms: C_6  and  C_7
REMARK    4  A    between atoms: C_7  and  N_8
REMARK    5  A    between atoms: N_8  and  C_9
REMARK    6  A    between atoms: C_9  and  C_10
REMARK    7  A    between atoms: C_9  and  C_11
REMARK    8  A    between atoms: C_11  and  N_12
REMARK    9  A    between atoms: C_17  and  O_18
REMARK   10  A    between atoms: O_18  and  C_19
REMARK   11  A    between atoms: C_20  and  O_21
REMARK   12  A    between atoms: O_21  and  C_22
REMARK                            x       y       z     vdW  Elec       q    Type
REMARK                         _______ _______ _______ _____ _____    ______ ____
ROOT
ATOM      1  C   UNL     1       1.706   7.332  20.107  0.00  0.00    +0.000 A 
ATOM      2  C   UNL     1       2.085   8.249  19.100  0.00  0.00    +0.000 A 
ATOM      3  C   UNL     1       2.943   7.875  18.076  0.00  0.00    +0.000 A 
ATOM      4  C   UNL     1       3.455   6.581  18.017  0.00  0.00    +0.000 A 
ATOM      5  C   UNL     1       3.083   5.627  18.988  0.00  0.00    +0.000 A 
ATOM      6  C   UNL     1       2.198   5.997  20.044  0.00  0.00    +0.000 A 
ENDROOT
BRANCH   1   8
ATOM      7  C   UNL     1       0.952   8.959  21.764  0.00  0.00    +0.000 C 
ATOM      8  O   UNL     1       0.888   7.733  21.119  0.00  0.00    +0.000 OA
ENDBRANCH   1   8
BRANCH   5   9
ATOM      9  O   UNL     1       3.611   4.374  18.855  0.00  0.00    +0.000 OA
ATOM     10  C   UNL     1       4.730   3.835  19.457  0.00  0.00    +0.000 C 
ENDBRANCH   5   9
BRANCH   6  11
ATOM     11  O   UNL     1       1.874   5.032  20.947  0.00  0.00    +0.000 OA
ATOM     12  C   UNL     1       1.265   3.809  20.790  0.00  0.00    +0.000 C 
ENDBRANCH   6  11
BRANCH   4  13
ATOM     13  C   UNL     1       4.435   6.239  16.918  0.00  0.00    +0.000 C 
BRANCH  13  14
ATOM     14  N   UNL     1       5.820   6.410  17.376  0.00  0.00    +0.000 NA
ATOM     15  H   UNL     1       5.847   6.142  18.388  0.00  0.00    +0.000 HD
BRANCH  14  16
ATOM     16  C   UNL     1       6.778   5.547  16.649  0.00  0.00    +0.000 C 
ATOM     17  C   UNL     1       7.671   4.735  17.607  0.00  0.00    +0.000 C 
BRANCH  16  18
ATOM     18  C   UNL     1       6.006   4.561  15.749  0.00  0.00    +0.000 C 
BRANCH  18  19
ATOM     19  N   UNL     1       6.550   4.536  14.394  0.00  0.00    +0.000 N 
ATOM     20  C   UNL     1       6.168   3.718  13.397  0.00  0.00    +0.000 A 
ATOM     21  C   UNL     1       6.929   4.012  12.289  0.00  0.00    +0.000 A 
ATOM     22  C   UNL     1       7.768   5.033  12.684  0.00  0.00    +0.000 A 
ATOM     23  N   UNL     1       7.520   5.338  13.973  0.00  0.00    +0.000 NA
ENDBRANCH  18  19
ENDBRANCH  16  18
ENDBRANCH  14  16
ENDBRANCH  13  14
ENDBRANCH   4  13
TORSDOF 8
ENDMDL
MODEL 4
REMARK VINA RESULT:      -5.9      2.818      5.646
REMARK  Name = 
REMARK  12 active torsions:
REMARK  status: ('A' for Active; 'I' for Inactive)
REMARK    1  A    between atoms: C_1  and  O_2
REMARK    2  A    between atoms: O_2  and  C_3
REMARK    3  A    between atoms: C_6  and  C_7
REMARK    4  A    between atoms: C_7  and  N_8
REMARK    5  A    between atoms: N_8  and  C_9
REMARK    6  A    between atoms: C_9  and  C_10
REMARK    7  A    between atoms: C_9  and  C_11
REMARK    8  A    between atoms: C_11  and  N_12
REMARK    9  A    between atoms: C_17  and  O_18
REMARK   10  A    between atoms: O_18  and  C_19
REMARK   11  A    between atoms: C_20  and  O_21
REMARK   12  A    between atoms: O_21  and  C_22
REMARK                            x       y       z     vdW  Elec       q    Type
REMARK                         _______ _______ _______ _____ _____    ______ ____
ROOT
ATOM      1  C   UNL     1       5.827   4.665  16.637  0.00  0.00    +0.000 A 
ATOM      2  C   UNL     1       4.580   4.499  15.993  0.00  0.00    +0.000 A 
ATOM      3  C   UNL     1       3.495   3.950  16.660  0.00  0.00    +0.000 A 
ATOM      4  C   UNL     1       3.610   3.545  17.988  0.00  0.00    +0.000 A 
ATOM      5  C   UNL     1       4.830   3.716  18.678  0.00  0.00    +0.000 A 
ATOM      6  C   UNL     1       5.952   4.283  18.004  0.00  0.00    +0.000 A 
ENDROOT
BRANCH   1   8
ATOM      7  C   UNL     1       7.164   4.939  14.613  0.00  0.00    +0.000 C 
ATOM      8  O   UNL     1       6.885   5.177  15.950  0.00  0.00    +0.000 OA
ENDBRANCH   1   8
BRANCH   5   9
ATOM      9  O   UNL     1       4.863   3.312  19.982  0.00  0.00    +0.000 OA
ATOM     10  C   UNL     1       4.848   2.031  20.496  0.00  0.00    +0.000 C 
ENDBRANCH   5   9
BRANCH   6  11
ATOM     11  O   UNL     1       7.100   4.425  18.723  0.00  0.00    +0.000 OA
ATOM     12  C   UNL     1       7.706   5.539  19.254  0.00  0.00    +0.000 C 
ENDBRANCH   6  11
BRANCH   4  13
ATOM     13  C   UNL     1       2.420   2.894  18.654  0.00  0.00    +0.000 C 
BRANCH  13  14
ATOM     14  N   UNL     1       1.365   3.879  18.929  0.00  0.00    +0.000 NA
ATOM     15  H   UNL     1       0.477   3.502  18.521  0.00  0.00    +0.000 HD
BRANCH  14  16
ATOM     16  C   UNL     1       1.147   4.102  20.376  0.00  0.00    +0.000 C 
ATOM     17  C   UNL     1       1.268   2.798  21.188  0.00  0.00    +0.000 C 
BRANCH  16  18
ATOM     18  C   UNL     1       2.190   5.106  20.907  0.00  0.00    +0.000 C 
BRANCH  18  19
ATOM     19  N   UNL     1       2.050   6.410  20.266  0.00  0.00    +0.000 N 
ATOM     20  C   UNL     1       1.435   7.490  20.783  0.00  0.00    +0.000 A 
ATOM     21  C   UNL     1       1.518   8.509  19.863  0.00  0.00    +0.000 A 
ATOM     22  C   UNL     1       2.204   7.977  18.791  0.00  0.00    +0.000 A 
ATOM     23  N   UNL     1       2.519   6.694  19.058  0.00  0.00    +0.000 NA
ENDBRANCH  18  19
ENDBRANCH  16  18
ENDBRANCH  14  16
ENDBRANCH  13  14
ENDBRANCH   4  13
TORSDOF 8
ENDMDL
MODEL 5
REMARK VINA RESULT:      -5.9      3.223      6.880
REMARK  Name = 
REMARK  12 active torsions:
REMARK  status: ('A' for Active; 'I' for Inactive)
REMARK    1  A    between atoms: C_1  and  O_2
REMARK    2  A    between atoms: O_2  and  C_3
REMARK    3  A    between atoms: C_6  and  C_7
REMARK    4  A    between atoms: C_7  and  N_8
REMARK    5  A    between atoms: N_8  and  C_9
REMARK    6  A    between atoms: C_9  and  C_10
REMARK    7  A    between atoms: C_9  and  C_11
REMARK    8  A    between atoms: C_11  and  N_12
REMARK    9  A    between atoms: C_17  and  O_18
REMARK   10  A    between atoms: O_18  and  C_19
REMARK   11  A    between atoms: C_20  and  O_21
REMARK   12  A    between atoms: O_21  and  C_22
REMARK                            x       y       z     vdW  Elec       q    Type
REMARK                         _______ _______ _______ _____ _____    ______ ____
ROOT
ATOM      1  C   UNL     1       6.057   4.055  14.303  0.00  0.00    +0.000 A 
ATOM      2  C   UNL     1       4.940   3.584  15.029  0.00  0.00    +0.000 A 
ATOM      3  C   UNL     1       4.737   3.949  16.352  0.00  0.00    +0.000 A 
ATOM      4  C   UNL     1       5.638   4.791  17.001  0.00  0.00    +0.000 A 
ATOM      5  C   UNL     1       6.754   5.304  16.307  0.00  0.00    +0.000 A 
ATOM      6  C   UNL     1       6.971   4.941  14.944  0.00  0.00    +0.000 A 
ENDROOT
BRANCH   1   8
ATOM      7  C   UNL     1       5.245   3.318  12.122  0.00  0.00    +0.000 C 
ATOM      8  O   UNL     1       6.250   3.657  13.015  0.00  0.00    +0.000 OA
ENDBRANCH   1   8
BRANCH   5   9
ATOM      9  O   UNL     1       7.584   6.137  17.002  0.00  0.00    +0.000 OA
ATOM     10  C   UNL     1       7.480   7.499  17.201  0.00  0.00    +0.000 C 
ENDBRANCH   5   9
BRANCH   6  11
ATOM     11  O   UNL     1       8.063   5.471  14.328  0.00  0.00    +0.000 OA
ATOM     12  C   UNL     1       8.306   5.764  13.007  0.00  0.00    +0.000 C 
ENDBRANCH   6  11
BRANCH   4  13
ATOM     13  C   UNL     1       5.410   5.109  18.461  0.00  0.00    +0.000 C 
BRANCH  13  14
ATOM     14  N   UNL     1       3.986   5.009  18.807  0.00  0.00    +0.000 NA
ATOM     15  H   UNL     1       3.909   4.338  19.608  0.00  0.00    +0.000 HD
BRANCH  14  16
ATOM     16  C   UNL     1       3.404   6.301  19.233  0.00  0.00    +0.000 C 
ATOM     17  C   UNL     1       3.076   7.214  18.036  0.00  0.00    +0.000 C 
BRANCH  16  18
ATOM     18  C   UNL     1       2.105   6.047  20.024  0.00  0.00    +0.000 C 
BRANCH  18  19
ATOM     19  N   UNL     1       1.908   4.624  20.283  0.00  0.00    +0.000 N 
ATOM     20  C   UNL     1       2.178   3.979  21.433  0.00  0.00    +0.000 A 
ATOM     21  C   UNL     1       1.858   2.652  21.263  0.00  0.00    +0.000 A 
ATOM     22  C   UNL     1       1.392   2.553  19.968  0.00  0.00    +0.000 A 
ATOM     23  N   UNL     1       1.432   3.768  19.388  0.00  0.00    +0.000 NA
ENDBRANCH  18  19
ENDBRANCH  16  18
ENDBRANCH  14  16
ENDBRANCH  13  14
ENDBRANCH   4  13
TORSDOF 8
ENDMDL
MODEL 6
REMARK VINA RESULT:      -5.9      1.453      2.975
REMARK  Name = 
REMARK  12 active torsions:
REMARK  status: ('A' for Active; 'I' for Inactive)
REMARK    1  A    between atoms: C_1  and  O_2
REMARK    2  A    between atoms: O_2  and  C_3
REMARK    3  A    between atoms: C_6  and  C_7
REMARK    4  A    between atoms: C_7  and  N_8
REMARK    5  A    between atoms: N_8  and  C_9
REMARK    6  A    between atoms: C_9  and  C_10
REMARK    7  A    between atoms: C_9  and  C_11
REMARK    8  A    between atoms: C_11  and  N_12
REMARK    9  A    between atoms: C_17  and  O_18
REMARK   10  A    between atoms: O_18  and  C_19
REMARK   11  A    between atoms: C_20  and  O_21
REMARK   12  A    between atoms: O_21  and  C_22
REMARK                            x       y       z     vdW  Elec       q    Type
REMARK                         _______ _______ _______ _____ _____    ______ ____
ROOT
ATOM      1  C   UNL     1       2.150   5.708  19.935  0.00  0.00    +0.000 A 
ATOM      2  C   UNL     1       2.355   6.342  18.688  0.00  0.00    +0.000 A 
ATOM      3  C   UNL     1       3.096   5.733  17.686  0.00  0.00    +0.000 A 
ATOM      4  C   UNL     1       3.662   4.476  17.888  0.00  0.00    +0.000 A 
ATOM      5  C   UNL     1       3.462   3.796  19.109  0.00  0.00    +0.000 A 
ATOM      6  C   UNL     1       2.698   4.410  20.146  0.00  0.00    +0.000 A 
ENDROOT
BRANCH   1   8
ATOM      7  C   UNL     1       1.400   7.713  21.108  0.00  0.00    +0.000 C 
ATOM      8  O   UNL     1       1.445   6.342  20.913  0.00  0.00    +0.000 OA
ENDBRANCH   1   8
BRANCH   5   9
ATOM      9  O   UNL     1       4.032   2.561  19.228  0.00  0.00    +0.000 OA
ATOM     10  C   UNL     1       3.562   1.341  18.785  0.00  0.00    +0.000 C 
ENDBRANCH   5   9
BRANCH   6  11
ATOM     11  O   UNL     1       2.537   3.704  21.298  0.00  0.00    +0.000 OA
ATOM     12  C   UNL     1       1.556   2.827  21.696  0.00  0.00    +0.000 C 
ENDBRANCH   6  11
BRANCH   4  13
ATOM     13  C   UNL     1       4.515   3.880  16.792  0.00  0.00    +0.000 C 
BRANCH  13  14
ATOM     14  N   UNL     1       5.937   4.171  17.012  0.00  0.00    +0.000 NA
ATOM     15  H   UNL     1       6.481   3.364  16.624  0.00  0.00    +0.000 HD
BRANCH  14  16
ATOM     16  C   UNL     1       6.388   5.401  16.324  0.00  0.00    +0.000 C 
ATOM     17  C   UNL     1       6.803   6.503  17.317  0.00  0.00    +0.000 C 
BRANCH  16  18
ATOM     18  C   UNL     1       7.597   5.076  15.423  0.00  0.00    +0.000 C 
BRANCH  18  19
ATOM     19  N   UNL     1       7.171   4.608  14.107  0.00  0.00    +0.000 N 
ATOM     20  C   UNL     1       7.679   4.994  12.922  0.00  0.00    +0.000 A 
ATOM     21  C   UNL     1       7.000   4.326  11.929  0.00  0.00    +0.000 A 
ATOM     22  C   UNL     1       6.078   3.538  12.586  0.00  0.00    +0.000 A 
ATOM     23  N   UNL     1       6.199   3.726  13.915  0.00  0.00    +0.000 NA
ENDBRANCH  18  19
ENDBRANCH  16  18
ENDBRANCH  14  16
ENDBRANCH  13  14
ENDBRANCH   4  13
TORSDOF 8
ENDMDL
MODEL 7
REMARK VINA RESULT:      -5.8      2.045      3.378
REMARK  Name = 
REMARK  12 active torsions:
REMARK  status: ('A' for Active; 'I' for Inactive)
REMARK    1  A    between atoms: C_1  and  O_2
REMARK    2  A    between atoms: O_2  and  C_3
REMARK    3  A    between atoms: C_6  and  C_7
REMARK    4  A    between atoms: C_7  and  N_8
REMARK    5  A    between atoms: N_8  and  C_9
REMARK    6  A    between atoms: C_9  and  C_10
REMARK    7  A    between atoms: C_9  and  C_11
REMARK    8  A    between atoms: C_11  and  N_12
REMARK    9  A    between atoms: C_17  and  O_18
REMARK   10  A    between atoms: O_18  and  C_19
REMARK   11  A    between atoms: C_20  and  O_21
REMARK   12  A    between atoms: O_21  and  C_22
REMARK                            x       y       z     vdW  Elec       q    Type
REMARK                         _______ _______ _______ _____ _____    ______ ____
ROOT
ATOM      1  C   UNL     1       1.529   9.469  19.258  0.00  0.00    +0.000 A 
ATOM      2  C   UNL     1       2.015   9.298  17.942  0.00  0.00    +0.000 A 
ATOM      3  C   UNL     1       2.508   8.075  17.512  0.00  0.00    +0.000 A 
ATOM      4  C   UNL     1       2.537   6.981  18.374  0.00  0.00    +0.000 A 
ATOM      5  C   UNL     1       2.039   7.100  19.689  0.00  0.00    +0.000 A 
ATOM      6  C   UNL     1       1.525   8.351  20.142  0.00  0.00    +0.000 A 
ENDROOT
BRANCH   1   8
ATOM      7  C   UNL     1       1.269  11.881  18.983  0.00  0.00    +0.000 C 
ATOM      8  O   UNL     1       1.079  10.689  19.665  0.00  0.00    +0.000 OA
ENDBRANCH   1   8
BRANCH   5   9
ATOM      9  O   UNL     1       2.085   5.981  20.470  0.00  0.00    +0.000 OA
ATOM     10  C   UNL     1       1.160   4.963  20.584  0.00  0.00    +0.000 C 
ENDBRANCH   5   9
BRANCH   6  11
ATOM     11  O   UNL     1       1.056   8.403  21.418  0.00  0.00    +0.000 OA
ATOM     12  C   UNL     1      -0.218   8.556  21.912  0.00  0.00    +0.000 C 
ENDBRANCH   6  11
BRANCH   4  13
ATOM     13  C   UNL     1       3.142   5.686  17.881  0.00  0.00    +0.000 C 
BRANCH  13  14
ATOM     14  N   UNL     1       4.260   5.266  18.736  0.00  0.00    +0.000 NA
ATOM     15  H   UNL     1       3.873   5.114  19.697  0.00  0.00    +0.000 HD
BRANCH  14  16
ATOM     16  C   UNL     1       4.885   4.001  18.288  0.00  0.00    +0.000 C 
ATOM     17  C   UNL     1       3.872   3.063  17.604  0.00  0.00    +0.000 C 
BRANCH  16  18
ATOM     18  C   UNL     1       6.017   4.310  17.287  0.00  0.00    +0.000 C 
BRANCH  18  19
ATOM     19  N   UNL     1       6.798   5.470  17.707  0.00  0.00    +0.000 N 
ATOM     20  C   UNL     1       6.928   6.629  17.034  0.00  0.00    +0.000 A 
ATOM     21  C   UNL     1       7.749   7.456  17.765  0.00  0.00    +0.000 A 
ATOM     22  C   UNL     1       8.091   6.730  18.887  0.00  0.00    +0.000 A 
ATOM     23  N   UNL     1       7.500   5.521  18.831  0.00  0.00    +0.000 NA
ENDBRANCH  18  19
ENDBRANCH  16  18
ENDBRANCH  14  16
ENDBRANCH  13  14
ENDBRANCH   4  13
TORSDOF 8
ENDMDL
MODEL 8
REMARK VINA RESULT:      -5.7      3.028      6.082
REMARK  Name = 
REMARK  12 active torsions:
REMARK  status: ('A' for Active; 'I' for Inactive)
REMARK    1  A    between atoms: C_1  and  O_2
REMARK    2  A    between atoms: O_2  and  C_3
REMARK    3  A    between atoms: C_6  and  C_7
REMARK    4  A    between atoms: C_7  and  N_8
REMARK    5  A    between atoms: N_8  and  C_9
REMARK    6  A    between atoms: C_9  and  C_10
REMARK    7  A    between atoms: C_9  and  C_11
REMARK    8  A    between atoms: C_11  and  N_12
REMARK    9  A    between atoms: C_17  and  O_18
REMARK   10  A    between atoms: O_18  and  C_19
REMARK   11  A    between atoms: C_20  and  O_21
REMARK   12  A    between atoms: O_21  and  C_22
REMARK                            x       y       z     vdW  Elec       q    Type
REMARK                         _______ _______ _______ _____ _____    ______ ____
ROOT
ATOM      1  C   UNL     1       6.170   5.258  15.478  0.00  0.00    +0.000 A 
ATOM      2  C   UNL     1       5.077   4.367  15.387  0.00  0.00    +0.000 A 
ATOM      3  C   UNL     1       4.439   3.895  16.525  0.00  0.00    +0.000 A 
ATOM      4  C   UNL     1       4.866   4.289  17.791  0.00  0.00    +0.000 A 
ATOM      5  C   UNL     1       5.938   5.196  17.927  0.00  0.00    +0.000 A 
ATOM      6  C   UNL     1       6.599   5.693  16.765  0.00  0.00    +0.000 A 
ENDROOT
BRANCH   1   8
ATOM      7  C   UNL     1       7.582   4.891  13.520  0.00  0.00    +0.000 C 
ATOM      8  O   UNL     1       6.799   5.682  14.346  0.00  0.00    +0.000 OA
ENDBRANCH   1   8
BRANCH   5   9
ATOM      9  O   UNL     1       6.289   5.550  19.199  0.00  0.00    +0.000 OA
ATOM     10  C   UNL     1       7.521   5.462  19.816  0.00  0.00    +0.000 C 
ENDBRANCH   5   9
BRANCH   6  11
ATOM     11  O   UNL     1       7.624   6.568  16.961  0.00  0.00    +0.000 OA
ATOM     12  C   UNL     1       7.627   7.901  17.296  0.00  0.00    +0.000 C 
ENDBRANCH   6  11
BRANCH   4  13
ATOM     13  C   UNL     1       4.182   3.698  19.002  0.00  0.00    +0.000 C 
BRANCH  13  14
ATOM     14  N   UNL     1       2.726   3.647  18.814  0.00  0.00    +0.000 NA
ATOM     15  H   UNL     1       2.451   2.637  18.804  0.00  0.00    +0.000 HD
BRANCH  14  16
ATOM     16  C   UNL     1       1.980   4.315  19.904  0.00  0.00    +0.000 C 
ATOM     17  C   UNL     1       1.749   3.380  21.107  0.00  0.00    +0.000 C 
BRANCH  16  18
ATOM     18  C   UNL     1       2.767   5.549  20.389  0.00  0.00    +0.000 C 
BRANCH  18  19
ATOM     19  N   UNL     1       2.413   6.742  19.626  0.00  0.00    +0.000 N 
ATOM     20  C   UNL     1       1.849   7.862  20.114  0.00  0.00    +0.000 A 
ATOM     21  C   UNL     1       1.674   8.742  19.071  0.00  0.00    +0.000 A 
ATOM     22  C   UNL     1       2.158   8.086  17.957  0.00  0.00    +0.000 A 
ATOM     23  N   UNL     1       2.603   6.867  18.318  0.00  0.00    +0.000 NA
ENDBRANCH  18  19
ENDBRANCH  16  18
ENDBRANCH  14  16
ENDBRANCH  13  14
ENDBRANCH   4  13
TORSDOF 8
ENDMDL
MODEL 9
REMARK VINA RESULT:      -5.6      4.211      7.148
REMARK  Name = 
REMARK  12 active torsions:
REMARK  status: ('A' for Active; 'I' for Inactive)
REMARK    1  A    between atoms: C_1  and  O_2
REMARK    2  A    between atoms: O_2  and  C_3
REMARK    3  A    between atoms: C_6  and  C_7
REMARK    4  A    between atoms: C_7  and  N_8
REMARK    5  A    between atoms: N_8  and  C_9
REMARK    6  A    between atoms: C_9  and  C_10
REMARK    7  A    between atoms: C_9  and  C_11
REMARK    8  A    between atoms: C_11  and  N_12
REMARK    9  A    between atoms: C_17  and  O_18
REMARK   10  A    between atoms: O_18  and  C_19
REMARK   11  A    between atoms: C_20  and  O_21
REMARK   12  A    between atoms: O_21  and  C_22
REMARK                            x       y       z     vdW  Elec       q    Type
REMARK                         _______ _______ _______ _____ _____    ______ ____
ROOT
ATOM      1  C   UNL     1       3.859   6.139  17.667  0.00  0.00    +0.000 A 
ATOM      2  C   UNL     1       3.226   7.398  17.784  0.00  0.00    +0.000 A 
ATOM      3  C   UNL     1       2.406   7.692  18.863  0.00  0.00    +0.000 A 
ATOM      4  C   UNL     1       2.184   6.747  19.862  0.00  0.00    +0.000 A 
ATOM      5  C   UNL     1       2.815   5.486  19.798  0.00  0.00    +0.000 A 
ATOM      6  C   UNL     1       3.664   5.173  18.696  0.00  0.00    +0.000 A 
ENDROOT
BRANCH   1   8
ATOM      7  C   UNL     1       6.004   6.063  16.503  0.00  0.00    +0.000 C 
ATOM      8  O   UNL     1       4.634   5.864  16.581  0.00  0.00    +0.000 OA
ENDBRANCH   1   8
BRANCH   5   9
ATOM      9  O   UNL     1       2.563   4.618  20.822  0.00  0.00    +0.000 OA
ATOM     10  C   UNL     1       1.620   3.613  20.897  0.00  0.00    +0.000 C 
ENDBRANCH   5   9
BRANCH   6  11
ATOM     11  O   UNL     1       4.247   3.943  18.693  0.00  0.00    +0.000 OA
ATOM     12  C   UNL     1       3.905   2.778  18.046  0.00  0.00    +0.000 C 
ENDBRANCH   6  11
BRANCH   4  13
ATOM     13  C   UNL     1       1.232   7.090  20.985  0.00  0.00    +0.000 C 
BRANCH  13  14
ATOM     14  N   UNL     1       1.539   8.409  21.552  0.00  0.00    +0.000 NA
ATOM     15  H   UNL     1       2.193   8.887  20.887  0.00  0.00    +0.000 HD
BRANCH  14  16
ATOM     16  C   UNL     1       0.340   9.263  21.708  0.00  0.00    +0.000 C 
ATOM     17  C   UNL     1       0.018   9.548  23.188  0.00  0.00    +0.000 C 
BRANCH  16  18
ATOM     18  C   UNL     1       0.566  10.609  20.990  0.00  0.00    +0.000 C 
BRANCH  18  19
ATOM     19  N   UNL     1      -0.401  10.809  19.915  0.00  0.00    +0.000 N 
ATOM     20  C   UNL     1      -0.380  10.221  18.704  0.00  0.00    +0.000 A 
ATOM     21  C   UNL     1      -1.460  10.681  17.987  0.00  0.00    +0.000 A 
ATOM     22  C   UNL     1      -2.109  11.559  18.831  0.00  0.00    +0.000 A 
ATOM     23  N   UNL     1      -1.446  11.623  20.002  0.00  0.00    +0.000 NA
ENDBRANCH  18  19
ENDBRANCH  16  18
ENDBRANCH  14  16
ENDBRANCH  13  14
ENDBRANCH   4  13
TORSDOF 8
ENDMDL
