MODEL 1
REMARK VINA RESULT:      -7.9      0.000      0.000
REMARK  Name = 
REMARK  7 active torsions:
REMARK  status: ('A' for Active; 'I' for Inactive)
REMARK    1  A    between atoms: C_2  and  C_3
REMARK    2  A    between atoms: C_3  and  S_4
REMARK    3  A    between atoms: S_4  and  C_5
REMARK    4  A    between atoms: C_5  and  C_6
REMARK    5  A    between atoms: N_12  and  C_13
REMARK    6  A    between atoms: C_16  and  S_17
REMARK    7  A    between atoms: S_17  and  N_20
REMARK                            x       y       z     vdW  Elec       q    Type
REMARK                         _______ _______ _______ _____ _____    ______ ____
ROOT
ATOM      1  C   UNL     1       2.811   7.148  18.606  0.00  0.00    +0.000 A 
ATOM      2  C   UNL     1       2.268   7.151  19.894  0.00  0.00    +0.000 A 
ATOM      3  C   UNL     1       1.510   8.231  20.348  0.00  0.00    +0.000 A 
ATOM      4  C   UNL     1       1.305   9.332  19.523  0.00  0.00    +0.000 A 
ATOM      5  C   UNL     1       1.787   9.328  18.212  0.00  0.00    +0.000 A 
ATOM      6  C   UNL     1       2.541   8.234  17.759  0.00  0.00    +0.000 A 
ENDROOT
BRANCH   1   9
ATOM      7  O   UNL     1       2.062   4.488  17.557  0.00  0.00    +0.000 OA
ATOM      8  C   UNL     1       3.228   4.854  17.678  0.00  0.00    +0.000 C 
ATOM      9  N   UNL     1       3.648   6.104  18.124  0.00  0.00    +0.000 N 
ATOM     10  H   UNL     1       4.639   6.287  18.167  0.00  0.00    +0.000 HD
BRANCH   8  11
ATOM     11  C   UNL     1       4.371   3.907  17.346  0.00  0.00    +0.000 C 
BRANCH  11  12
ATOM     12  S   UNL     1       4.970   4.136  15.641  0.00  0.00    +0.000 S 
BRANCH  12  13
ATOM     13  C   UNL     1       6.760   4.073  15.948  0.00  0.00    +0.000 C 
BRANCH  13  14
ATOM     14  C   UNL     1       7.201   5.133  16.924  0.00  0.00    +0.000 A 
ATOM     15  C   UNL     1       7.687   4.775  18.190  0.00  0.00    +0.000 A 
ATOM     16  C   UNL     1       8.106   5.754  19.092  0.00  0.00    +0.000 A 
ATOM     17  C   UNL     1       8.034   7.102  18.743  0.00  0.00    +0.000 A 
ATOM     18  C   UNL     1       7.539   7.470  17.495  0.00  0.00    +0.000 A 
ATOM     19  C   UNL     1       7.122   6.492  16.589  0.00  0.00    +0.000 A 
ENDBRANCH  13  14
ENDBRANCH  12  13
ENDBRANCH  11  12
ENDBRANCH   8  11
ENDBRANCH   1   9
BRANCH   4  20
ATOM     20  S   UNL     1       0.339  10.689  20.140  0.00  0.00    +0.000 S 
ATOM     21  O   UNL     1      -0.882  10.123  20.685  0.00  0.00    +0.000 OA
ATOM     22  O   UNL     1       1.194  11.505  20.976  0.00  0.00    +0.000 OA
BRANCH  20  23
ATOM     23  N   UNL     1      -0.124  11.527  18.764  0.00  0.00    +0.000 N 
ATOM     24  C   UNL     1      -1.436  11.269  18.367  0.00  0.00    +0.000 A 
ATOM     25  N   UNL     1      -2.404  11.985  18.943  0.00  0.00    +0.000 NA
ATOM     26  C   UNL     1      -3.657  11.633  18.604  0.00  0.00    +0.000 A 
ATOM     27  C   UNL     1      -3.948  10.587  17.758  0.00  0.00    +0.000 A 
ATOM     28  C   UNL     1      -2.859   9.925  17.236  0.00  0.00    +0.000 A 
ATOM     29  N   UNL     1      -1.585  10.262  17.505  0.00  0.00    +0.000 NA
ATOM     30  H   UNL     1       0.532  11.326  18.017  0.00  0.00    +0.000 HD
ENDBRANCH  20  23
ENDBRANCH   4  20
TORSDOF 7
ENDMDL
MODEL 2
REMARK VINA RESULT:      -7.8      2.666      4.377
REMARK  Name = 
REMARK  7 active torsions:
REMARK  status: ('A' for Active; 'I' for Inactive)
REMARK    1  A    between atoms: C_2  and  C_3
REMARK    2  A    between atoms: C_3  and  S_4
REMARK    3  A    between atoms: S_4  and  C_5
REMARK    4  A    between atoms: C_5  and  C_6
REMARK    5  A    between atoms: N_12  and  C_13
REMARK    6  A    between atoms: C_16  and  S_17
REMARK    7  A    between atoms: S_17  and  N_20
REMARK                            x       y       z     vdW  Elec       q    Type
REMARK                         _______ _______ _______ _____ _____    ______ ____
ROOT
ATOM      1  C   UNL     1       2.855   6.938  18.546  0.00  0.00    +0.000 A 
ATOM      2  C   UNL     1       2.755   8.016  17.662  0.00  0.00    +0.000 A 
ATOM      3  C   UNL     1       2.034   9.161  18.006  0.00  0.00    +0.000 A 
ATOM      4  C   UNL     1       1.384   9.228  19.235  0.00  0.00    +0.000 A 
ATOM      5  C   UNL     1       1.518   8.189  20.160  0.00  0.00    +0.000 A 
ATOM      6  C   UNL     1       2.253   7.046  19.809  0.00  0.00    +0.000 A 
ENDROOT
BRANCH   1   9
ATOM      7  O   UNL     1       5.710   6.230  18.839  0.00  0.00    +0.000 OA
ATOM      8  C   UNL     1       4.881   5.472  18.341  0.00  0.00    +0.000 C 
ATOM      9  N   UNL     1       3.518   5.726  18.212  0.00  0.00    +0.000 N 
ATOM     10  H   UNL     1       2.938   5.014  17.795  0.00  0.00    +0.000 HD
BRANCH   8  11
ATOM     11  C   UNL     1       5.308   4.125  17.780  0.00  0.00    +0.000 C 
BRANCH  11  12
ATOM     12  S   UNL     1       3.986   3.347  16.798  0.00  0.00    +0.000 S 
BRANCH  12  13
ATOM     13  C   UNL     1       3.561   1.976  17.912  0.00  0.00    +0.000 C 
BRANCH  13  14
ATOM     14  C   UNL     1       2.773   2.446  19.107  0.00  0.00    +0.000 A 
ATOM     15  C   UNL     1       3.343   2.425  20.388  0.00  0.00    +0.000 A 
ATOM     16  C   UNL     1       2.619   2.871  21.495  0.00  0.00    +0.000 A 
ATOM     17  C   UNL     1       1.313   3.331  21.335  0.00  0.00    +0.000 A 
ATOM     18  C   UNL     1       0.730   3.342  20.071  0.00  0.00    +0.000 A 
ATOM     19  C   UNL     1       1.454   2.899  18.961  0.00  0.00    +0.000 A 
ENDBRANCH  13  14
ENDBRANCH  12  13
ENDBRANCH  11  12
ENDBRANCH   8  11
ENDBRANCH   1   9
BRANCH   4  20
ATOM     20  S   UNL     1       0.472  10.699  19.634  0.00  0.00    +0.000 S 
ATOM     21  O   UNL     1      -0.920  10.308  19.770  0.00  0.00    +0.000 OA
ATOM     22  O   UNL     1       1.148  11.363  20.729  0.00  0.00    +0.000 OA
BRANCH  20  23
ATOM     23  N   UNL     1       0.548  11.624  18.238  0.00  0.00    +0.000 N 
ATOM     24  C   UNL     1       0.747  12.983  18.478  0.00  0.00    +0.000 A 
ATOM     25  N   UNL     1       2.004  13.401  18.640  0.00  0.00    +0.000 NA
ATOM     26  C   UNL     1       2.141  14.698  18.969  0.00  0.00    +0.000 A 
ATOM     27  C   UNL     1       1.075  15.545  19.169  0.00  0.00    +0.000 A 
ATOM     28  C   UNL     1      -0.170  14.989  18.976  0.00  0.00    +0.000 A 
ATOM     29  N   UNL     1      -0.364  13.710  18.604  0.00  0.00    +0.000 NA
ATOM     30  H   UNL     1      -0.290  11.467  17.690  0.00  0.00    +0.000 HD
ENDBRANCH  20  23
ENDBRANCH   4  20
TORSDOF 7
ENDMDL
MODEL 3
REMARK VINA RESULT:      -7.7      2.876      8.936
REMARK  Name = 
REMARK  7 active torsions:
REMARK  status: ('A' for Active; 'I' for Inactive)
REMARK    1  A    between atoms: C_2  and  C_3
REMARK    2  A    between atoms: C_3  and  S_4
REMARK    3  A    between atoms: S_4  and  C_5
REMARK    4  A    between atoms: C_5  and  C_6
REMARK    5  A    between atoms: N_12  and  C_13
REMARK    6  A    between atoms: C_16  and  S_17
REMARK    7  A    between atoms: S_17  and  N_20
REMARK                            x       y       z     vdW  Elec       q    Type
REMARK                         _______ _______ _______ _____ _____    ______ ____
ROOT
ATOM      1  C   UNL     1       1.067   9.060  19.474  0.00  0.00    +0.000 A 
ATOM      2  C   UNL     1       1.696   9.112  18.227  0.00  0.00    +0.000 A 
ATOM      3  C   UNL     1       2.659   8.166  17.871  0.00  0.00    +0.000 A 
ATOM      4  C   UNL     1       3.019   7.169  18.773  0.00  0.00    +0.000 A 
ATOM      5  C   UNL     1       2.364   7.061  20.001  0.00  0.00    +0.000 A 
ATOM      6  C   UNL     1       1.390   8.010  20.347  0.00  0.00    +0.000 A 
ENDROOT
BRANCH   1   9
ATOM      7  O   UNL     1       1.253  10.937  21.750  0.00  0.00    +0.000 OA
ATOM      8  C   UNL     1       0.268  10.869  21.020  0.00  0.00    +0.000 C 
ATOM      9  N   UNL     1       0.133  10.040  19.909  0.00  0.00    +0.000 N 
ATOM     10  H   UNL     1      -0.725  10.087  19.381  0.00  0.00    +0.000 HD
BRANCH   8  11
ATOM     11  C   UNL     1      -0.958  11.723  21.298  0.00  0.00    +0.000 C 
BRANCH  11  12
ATOM     12  S   UNL     1      -1.355  12.821  19.900  0.00  0.00    +0.000 S 
BRANCH  12  13
ATOM     13  C   UNL     1      -3.034  12.233  19.531  0.00  0.00    +0.000 C 
BRANCH  13  14
ATOM     14  C   UNL     1      -3.093  11.479  18.227  0.00  0.00    +0.000 A 
ATOM     15  C   UNL     1      -4.203  11.608  17.381  0.00  0.00    +0.000 A 
ATOM     16  C   UNL     1      -4.254  10.919  16.168  0.00  0.00    +0.000 A 
ATOM     17  C   UNL     1      -3.202  10.085  15.794  0.00  0.00    +0.000 A 
ATOM     18  C   UNL     1      -2.100   9.937  16.633  0.00  0.00    +0.000 A 
ATOM     19  C   UNL     1      -2.045  10.628  17.846  0.00  0.00    +0.000 A 
ENDBRANCH  13  14
ENDBRANCH  12  13
ENDBRANCH  11  12
ENDBRANCH   8  11
ENDBRANCH   1   9
BRANCH   4  20
ATOM     20  S   UNL     1       4.253   5.988  18.284  0.00  0.00    +0.000 S 
ATOM     21  O   UNL     1       5.249   6.712  17.515  0.00  0.00    +0.000 OA
ATOM     22  O   UNL     1       4.648   5.240  19.459  0.00  0.00    +0.000 OA
BRANCH  20  23
ATOM     23  N   UNL     1       3.464   4.997  17.185  0.00  0.00    +0.000 N 
ATOM     24  C   UNL     1       2.841   3.896  17.772  0.00  0.00    +0.000 A 
ATOM     25  N   UNL     1       1.612   4.074  18.260  0.00  0.00    +0.000 NA
ATOM     26  C   UNL     1       1.091   3.014  18.905  0.00  0.00    +0.000 A 
ATOM     27  C   UNL     1       1.772   1.834  19.096  0.00  0.00    +0.000 A 
ATOM     28  C   UNL     1       3.035   1.781  18.548  0.00  0.00    +0.000 A 
ATOM     29  N   UNL     1       3.588   2.793  17.855  0.00  0.00    +0.000 NA
ATOM     30  H   UNL     1       4.121   4.708  16.469  0.00  0.00    +0.000 HD
ENDBRANCH  20  23
ENDBRANCH   4  20
TORSDOF 7
ENDMDL
MODEL 4
REMARK VINA RESULT:      -7.6      1.138      1.226
REMARK  Name = 
REMARK  7 active torsions:
REMARK  status: ('A' for Active; 'I' for Inactive)
REMARK    1  A    between atoms: C_2  and  C_3
REMARK    2  A    between atoms: C_3  and  S_4
REMARK    3  A    between atoms: S_4  and  C_5
REMARK    4  A    between atoms: C_5  and  C_6
REMARK    5  A    between atoms: N_12  and  C_13
REMARK    6  A    between atoms: C_16  and  S_17
REMARK    7  A    between atoms: S_17  and  N_20
REMARK                            x       y       z     vdW  Elec       q    Type
REMARK                         _______ _______ _______ _____ _____    ______ ____
ROOT
ATOM      1  C   UNL     1       2.113   6.954  19.546  0.00  0.00    +0.000 A 
ATOM      2  C   UNL     1       1.456   7.420  20.688  0.00  0.00    +0.000 A 
ATOM      3  C   UNL     1       0.956   8.721  20.746  0.00  0.00    +0.000 A 
ATOM      4  C   UNL     1       1.129   9.580  19.665  0.00  0.00    +0.000 A 
ATOM      5  C   UNL     1       1.729   9.121  18.490  0.00  0.00    +0.000 A 
ATOM      6  C   UNL     1       2.221   7.807  18.437  0.00  0.00    +0.000 A 
ENDROOT
BRANCH   1   9
ATOM      7  O   UNL     1       1.459   4.715  17.731  0.00  0.00    +0.000 OA
ATOM      8  C   UNL     1       2.314   4.635  18.608  0.00  0.00    +0.000 C 
ATOM      9  N   UNL     1       2.701   5.662  19.466  0.00  0.00    +0.000 N 
ATOM     10  H   UNL     1       3.428   5.472  20.139  0.00  0.00    +0.000 HD
BRANCH   8  11
ATOM     11  C   UNL     1       3.051   3.327  18.849  0.00  0.00    +0.000 C 
BRANCH  11  12
ATOM     12  S   UNL     1       4.811   3.597  19.231  0.00  0.00    +0.000 S 
BRANCH  12  13
ATOM     13  C   UNL     1       5.370   4.223  17.620  0.00  0.00    +0.000 C 
BRANCH  13  14
ATOM     14  C   UNL     1       6.245   5.441  17.762  0.00  0.00    +0.000 A 
ATOM     15  C   UNL     1       7.303   5.453  18.684  0.00  0.00    +0.000 A 
ATOM     16  C   UNL     1       8.122   6.576  18.809  0.00  0.00    +0.000 A 
ATOM     17  C   UNL     1       7.886   7.704  18.024  0.00  0.00    +0.000 A 
ATOM     18  C   UNL     1       6.829   7.710  17.117  0.00  0.00    +0.000 A 
ATOM     19  C   UNL     1       6.010   6.586  16.987  0.00  0.00    +0.000 A 
ENDBRANCH  13  14
ENDBRANCH  12  13
ENDBRANCH  11  12
ENDBRANCH   8  11
ENDBRANCH   1   9
BRANCH   4  20
ATOM     20  S   UNL     1       0.483  11.231  19.780  0.00  0.00    +0.000 S 
ATOM     21  O   UNL     1      -0.704  11.162  20.614  0.00  0.00    +0.000 OA
ATOM     22  O   UNL     1       1.572  12.115  20.142  0.00  0.00    +0.000 OA
BRANCH  20  23
ATOM     23  N   UNL     1      -0.068  11.568  18.233  0.00  0.00    +0.000 N 
ATOM     24  C   UNL     1      -1.408  11.236  18.032  0.00  0.00    +0.000 A 
ATOM     25  N   UNL     1      -2.324  12.138  18.390  0.00  0.00    +0.000 NA
ATOM     26  C   UNL     1      -3.603  11.736  18.272  0.00  0.00    +0.000 A 
ATOM     27  C   UNL     1      -3.965  10.475  17.854  0.00  0.00    +0.000 A 
ATOM     28  C   UNL     1      -2.924   9.638  17.520  0.00  0.00    +0.000 A 
ATOM     29  N   UNL     1      -1.629  10.002  17.576  0.00  0.00    +0.000 NA
ATOM     30  H   UNL     1       0.530  11.103  17.559  0.00  0.00    +0.000 HD
ENDBRANCH  20  23
ENDBRANCH   4  20
TORSDOF 7
ENDMDL
MODEL 5
REMARK VINA RESULT:      -7.5      1.771      2.422
REMARK  Name = 
REMARK  7 active torsions:
REMARK  status: ('A' for Active; 'I' for Inactive)
REMARK    1  A    between atoms: C_2  and  C_3
REMARK    2  A    between atoms: C_3  and  S_4
REMARK    3  A    between atoms: S_4  and  C_5
REMARK    4  A    between atoms: C_5  and  C_6
REMARK    5  A    between atoms: N_12  and  C_13
REMARK    6  A    between atoms: C_16  and  S_17
REMARK    7  A    between atoms: S_17  and  N_20
REMARK                            x       y       z     vdW  Elec       q    Type
REMARK                         _______ _______ _______ _____ _____    ______ ____
ROOT
ATOM      1  C   UNL     1       2.027   7.062  20.221  0.00  0.00    +0.000 A 
ATOM      2  C   UNL     1       2.209   7.739  19.012  0.00  0.00    +0.000 A 
ATOM      3  C   UNL     1       1.664   9.009  18.813  0.00  0.00    +0.000 A 
ATOM      4  C   UNL     1       0.910   9.605  19.820  0.00  0.00    +0.000 A 
ATOM      5  C   UNL     1       0.763   8.975  21.057  0.00  0.00    +0.000 A 
ATOM      6  C   UNL     1       1.323   7.702  21.251  0.00  0.00    +0.000 A 
ENDROOT
BRANCH   1   9
ATOM      7  O   UNL     1       1.466   4.593  18.695  0.00  0.00    +0.000 OA
ATOM      8  C   UNL     1       2.165   4.610  19.705  0.00  0.00    +0.000 C 
ATOM      9  N   UNL     1       2.503   5.741  20.444  0.00  0.00    +0.000 N 
ATOM     10  H   UNL     1       3.097   5.623  21.251  0.00  0.00    +0.000 HD
BRANCH   8  11
ATOM     11  C   UNL     1       2.736   3.318  20.269  0.00  0.00    +0.000 C 
BRANCH  11  12
ATOM     12  S   UNL     1       4.097   2.672  19.246  0.00  0.00    +0.000 S 
BRANCH  12  13
ATOM     13  C   UNL     1       5.148   4.153  19.185  0.00  0.00    +0.000 C 
BRANCH  13  14
ATOM     14  C   UNL     1       5.220   4.735  17.797  0.00  0.00    +0.000 A 
ATOM     15  C   UNL     1       5.263   3.894  16.675  0.00  0.00    +0.000 A 
ATOM     16  C   UNL     1       5.318   4.432  15.388  0.00  0.00    +0.000 A 
ATOM     17  C   UNL     1       5.342   5.814  15.208  0.00  0.00    +0.000 A 
ATOM     18  C   UNL     1       5.316   6.659  16.315  0.00  0.00    +0.000 A 
ATOM     19  C   UNL     1       5.258   6.123  17.604  0.00  0.00    +0.000 A 
ENDBRANCH  13  14
ENDBRANCH  12  13
ENDBRANCH  11  12
ENDBRANCH   8  11
ENDBRANCH   1   9
BRANCH   4  20
ATOM     20  S   UNL     1       0.228  11.219  19.526  0.00  0.00    +0.000 S 
ATOM     21  O   UNL     1      -0.981  11.318  20.325  0.00  0.00    +0.000 OA
ATOM     22  O   UNL     1       1.288  12.192  19.694  0.00  0.00    +0.000 OA
BRANCH  20  23
ATOM     23  N   UNL     1      -0.285  11.167  17.931  0.00  0.00    +0.000 N 
ATOM     24  C   UNL     1      -1.656  10.952  17.791  0.00  0.00    +0.000 A 
ATOM     25  N   UNL     1      -2.455  12.019  17.853  0.00  0.00    +0.000 NA
ATOM     26  C   UNL     1      -3.773  11.753  17.815  0.00  0.00    +0.000 A 
ATOM     27  C   UNL     1      -4.287  10.477  17.757  0.00  0.00    +0.000 A 
ATOM     28  C   UNL     1      -3.356   9.464  17.703  0.00  0.00    +0.000 A 
ATOM     29  N   UNL     1      -2.027   9.674  17.694  0.00  0.00    +0.000 NA
ATOM     30  H   UNL     1       0.249  10.464  17.433  0.00  0.00    +0.000 HD
ENDBRANCH  20  23
ENDBRANCH   4  20
TORSDOF 7
ENDMDL
MODEL 6
REMARK VINA RESULT:      -7.5      2.740      4.448
REMARK  Name = 
REMARK  7 active torsions:
REMARK  status: ('A' for Active; 'I' for Inactive)
REMARK    1  A    between atoms: C_2  and  C_3
REMARK    2  A    between atoms: C_3  and  S_4
REMARK    3  A    between atoms: S_4  and  C_5
REMARK    4  A    between atoms: C_5  and  C_6
REMARK    5  A    between atoms: N_12  and  C_13
REMARK    6  A    between atoms: C_16  and  S_17
REMARK    7  A    between atoms: S_17  and  N_20
REMARK                            x       y       z     vdW  Elec       q    Type
REMARK                         _______ _______ _______ _____ _____    ______ ____
ROOT
ATOM      1  C   UNL     1       2.581   7.213  18.438  0.00  0.00    +0.000 A 
ATOM      2  C   UNL     1       2.212   7.220  19.786  0.00  0.00    +0.000 A 
ATOM      3  C   UNL     1       1.553   8.317  20.342  0.00  0.00    +0.000 A 
ATOM      4  C   UNL     1       1.276   9.432  19.556  0.00  0.00    +0.000 A 
ATOM      5  C   UNL     1       1.581   9.426  18.193  0.00  0.00    +0.000 A 
ATOM      6  C   UNL     1       2.235   8.314  17.640  0.00  0.00    +0.000 A 
ENDROOT
BRANCH   1   9
ATOM      7  O   UNL     1       5.413   7.141  17.593  0.00  0.00    +0.000 OA
ATOM      8  C   UNL     1       4.644   6.198  17.432  0.00  0.00    +0.000 C 
ATOM      9  N   UNL     1       3.314   6.150  17.844  0.00  0.00    +0.000 N 
ATOM     10  H   UNL     1       2.789   5.307  17.662  0.00  0.00    +0.000 HD
BRANCH   8  11
ATOM     11  C   UNL     1       5.107   4.940  16.715  0.00  0.00    +0.000 C 
BRANCH  11  12
ATOM     12  S   UNL     1       3.878   3.600  16.826  0.00  0.00    +0.000 S 
BRANCH  12  13
ATOM     13  C   UNL     1       4.352   2.898  18.433  0.00  0.00    +0.000 C 
BRANCH  13  14
ATOM     14  C   UNL     1       3.210   2.922  19.416  0.00  0.00    +0.000 A 
ATOM     15  C   UNL     1       1.902   3.180  18.980  0.00  0.00    +0.000 A 
ATOM     16  C   UNL     1       0.841   3.192  19.887  0.00  0.00    +0.000 A 
ATOM     17  C   UNL     1       1.077   2.957  21.241  0.00  0.00    +0.000 A 
ATOM     18  C   UNL     1       2.374   2.715  21.688  0.00  0.00    +0.000 A 
ATOM     19  C   UNL     1       3.437   2.700  20.782  0.00  0.00    +0.000 A 
ENDBRANCH  13  14
ENDBRANCH  12  13
ENDBRANCH  11  12
ENDBRANCH   8  11
ENDBRANCH   1   9
BRANCH   4  20
ATOM     20  S   UNL     1       0.441  10.811  20.303  0.00  0.00    +0.000 S 
ATOM     21  O   UNL     1      -0.819  10.310  20.822  0.00  0.00    +0.000 OA
ATOM     22  O   UNL     1       1.376  11.476  21.188  0.00  0.00    +0.000 OA
BRANCH  20  23
ATOM     23  N   UNL     1       0.039  11.800  19.011  0.00  0.00    +0.000 N 
ATOM     24  C   UNL     1       0.745  13.003  18.985  0.00  0.00    +0.000 A 
ATOM     25  N   UNL     1       1.948  12.996  18.408  0.00  0.00    +0.000 NA
ATOM     26  C   UNL     1       2.633  14.151  18.496  0.00  0.00    +0.000 A 
ATOM     27  C   UNL     1       2.167  15.260  19.163  0.00  0.00    +0.000 A 
ATOM     28  C   UNL     1       0.914  15.134  19.721  0.00  0.00    +0.000 A 
ATOM     29  N   UNL     1       0.165  14.020  19.625  0.00  0.00    +0.000 NA
ATOM     30  H   UNL     1      -0.962  11.962  19.016  0.00  0.00    +0.000 HD
ENDBRANCH  20  23
ENDBRANCH   4  20
TORSDOF 7
ENDMDL
MODEL 7
REMARK VINA RESULT:      -7.5      2.323      4.096
REMARK  Name = 
REMARK  7 active torsions:
REMARK  status: ('A' for Active; 'I' for Inactive)
REMARK    1  A    between atoms: C_2  and  C_3
REMARK    2  A    between atoms: C_3  and  S_4
REMARK    3  A    between atoms: S_4  and  C_5
REMARK    4  A    between atoms: C_5  and  C_6
REMARK    5  A    between atoms: N_12  and  C_13
REMARK    6  A    between atoms: C_16  and  S_17
REMARK    7  A    between atoms: S_17  and  N_20
REMARK                            x       y       z     vdW  Elec       q    Type
REMARK                         _______ _______ _______ _____ _____    ______ ____
ROOT
ATOM      1  C   UNL     1       2.650   7.262  18.337  0.00  0.00    +0.000 A 
ATOM      2  C   UNL     1       2.243   8.491  17.811  0.00  0.00    +0.000 A 
ATOM      3  C   UNL     1       1.519   9.398  18.587  0.00  0.00    +0.000 A 
ATOM      4  C   UNL     1       1.177   9.072  19.896  0.00  0.00    +0.000 A 
ATOM      5  C   UNL     1       1.623   7.877  20.464  0.00  0.00    +0.000 A 
ATOM      6  C   UNL     1       2.357   6.975  19.679  0.00  0.00    +0.000 A 
ENDROOT
BRANCH   1   9
ATOM      7  O   UNL     1       5.535   7.014  17.742  0.00  0.00    +0.000 OA
ATOM      8  C   UNL     1       4.691   6.244  17.291  0.00  0.00    +0.000 C 
ATOM      9  N   UNL     1       3.326   6.278  17.565  0.00  0.00    +0.000 N 
ATOM     10  H   UNL     1       2.737   5.579  17.140  0.00  0.00    +0.000 HD
BRANCH   8  11
ATOM     11  C   UNL     1       5.094   5.137  16.330  0.00  0.00    +0.000 C 
BRANCH  11  12
ATOM     12  S   UNL     1       4.251   3.567  16.707  0.00  0.00    +0.000 S 
BRANCH  12  13
ATOM     13  C   UNL     1       4.582   3.476  18.492  0.00  0.00    +0.000 C 
BRANCH  13  14
ATOM     14  C   UNL     1       3.313   3.340  19.293  0.00  0.00    +0.000 A 
ATOM     15  C   UNL     1       2.084   3.135  18.649  0.00  0.00    +0.000 A 
ATOM     16  C   UNL     1       0.909   2.998  19.390  0.00  0.00    +0.000 A 
ATOM     17  C   UNL     1       0.947   3.075  20.781  0.00  0.00    +0.000 A 
ATOM     18  C   UNL     1       2.159   3.293  21.431  0.00  0.00    +0.000 A 
ATOM     19  C   UNL     1       3.337   3.428  20.692  0.00  0.00    +0.000 A 
ENDBRANCH  13  14
ENDBRANCH  12  13
ENDBRANCH  11  12
ENDBRANCH   8  11
ENDBRANCH   1   9
BRANCH   4  20
ATOM     20  S   UNL     1       0.251  10.251  20.850  0.00  0.00    +0.000 S 
ATOM     21  O   UNL     1      -0.517   9.495  21.823  0.00  0.00    +0.000 OA
ATOM     22  O   UNL     1       1.162  11.286  21.292  0.00  0.00    +0.000 OA
BRANCH  20  23
ATOM     23  N   UNL     1      -0.871  10.869  19.768  0.00  0.00    +0.000 N 
ATOM     24  C   UNL     1      -0.795  12.252  19.612  0.00  0.00    +0.000 A 
ATOM     25  N   UNL     1       0.088  12.723  18.728  0.00  0.00    +0.000 NA
ATOM     26  C   UNL     1       0.198  14.063  18.685  0.00  0.00    +0.000 A 
ATOM     27  C   UNL     1      -0.509  14.909  19.509  0.00  0.00    +0.000 A 
ATOM     28  C   UNL     1      -1.383  14.296  20.380  0.00  0.00    +0.000 A 
ATOM     29  N   UNL     1      -1.566  12.964  20.436  0.00  0.00    +0.000 NA
ATOM     30  H   UNL     1      -1.800  10.582  20.054  0.00  0.00    +0.000 HD
ENDBRANCH  20  23
ENDBRANCH   4  20
TORSDOF 7
ENDMDL
MODEL 8
REMARK VINA RESULT:      -7.5      2.177      3.144
REMARK  Name = 
REMARK  7 active torsions:
REMARK  status: ('A' for Active; 'I' for Inactive)
REMARK    1  A    between atoms: C_2  and  C_3
REMARK    2  A    between atoms: C_3  and  S_4
REMARK    3  A    between atoms: S_4  and  C_5
REMARK    4  A    between atoms: C_5  and  C_6
REMARK    5  A    between atoms: N_12  and  C_13
REMARK    6  A    between atoms: C_16  and  S_17
REMARK    7  A    between atoms: S_17  and  N_20
REMARK                            x       y       z     vdW  Elec       q    Type
REMARK                         _______ _______ _______ _____ _____    ______ ____
ROOT
ATOM      1  C   UNL     1       2.329   7.143  18.650  0.00  0.00    +0.000 A 
ATOM      2  C   UNL     1       2.243   8.225  17.770  0.00  0.00    +0.000 A 
ATOM      3  C   UNL     1       1.692   9.440  18.180  0.00  0.00    +0.000 A 
ATOM      4  C   UNL     1       1.199   9.576  19.474  0.00  0.00    +0.000 A 
ATOM      5  C   UNL     1       1.326   8.529  20.390  0.00  0.00    +0.000 A 
ATOM      6  C   UNL     1       1.891   7.314  19.972  0.00  0.00    +0.000 A 
ENDROOT
BRANCH   1   9
ATOM      7  O   UNL     1       4.676   5.652  19.654  0.00  0.00    +0.000 OA
ATOM      8  C   UNL     1       3.958   5.237  18.748  0.00  0.00    +0.000 C 
ATOM      9  N   UNL     1       2.817   5.866  18.258  0.00  0.00    +0.000 N 
ATOM     10  H   UNL     1       2.305   5.414  17.516  0.00  0.00    +0.000 HD
BRANCH   8  11
ATOM     11  C   UNL     1       4.290   3.933  18.039  0.00  0.00    +0.000 C 
BRANCH  11  12
ATOM     12  S   UNL     1       4.621   4.187  16.266  0.00  0.00    +0.000 S 
BRANCH  12  13
ATOM     13  C   UNL     1       6.436   4.109  16.291  0.00  0.00    +0.000 C 
BRANCH  13  14
ATOM     14  C   UNL     1       7.035   5.214  17.123  0.00  0.00    +0.000 A 
ATOM     15  C   UNL     1       7.661   4.925  18.344  0.00  0.00    +0.000 A 
ATOM     16  C   UNL     1       8.226   5.946  19.111  0.00  0.00    +0.000 A 
ATOM     17  C   UNL     1       8.162   7.267  18.671  0.00  0.00    +0.000 A 
ATOM     18  C   UNL     1       7.529   7.568  17.467  0.00  0.00    +0.000 A 
ATOM     19  C   UNL     1       6.965   6.548  16.697  0.00  0.00    +0.000 A 
ENDBRANCH  13  14
ENDBRANCH  12  13
ENDBRANCH  11  12
ENDBRANCH   8  11
ENDBRANCH   1   9
BRANCH   4  20
ATOM     20  S   UNL     1       0.500  11.137  19.957  0.00  0.00    +0.000 S 
ATOM     21  O   UNL     1      -0.882  10.884  20.324  0.00  0.00    +0.000 OA
ATOM     22  O   UNL     1       1.399  11.757  20.907  0.00  0.00    +0.000 OA
BRANCH  20  23
ATOM     23  N   UNL     1       0.436  12.019  18.533  0.00  0.00    +0.000 N 
ATOM     24  C   UNL     1       1.237  13.161  18.546  0.00  0.00    +0.000 A 
ATOM     25  N   UNL     1       2.522  13.013  18.217  0.00  0.00    +0.000 NA
ATOM     26  C   UNL     1       3.277  14.119  18.341  0.00  0.00    +0.000 A 
ATOM     27  C   UNL     1       2.793  15.319  18.809  0.00  0.00    +0.000 A 
ATOM     28  C   UNL     1       1.451  15.337  19.119  0.00  0.00    +0.000 A 
ATOM     29  N   UNL     1       0.639  14.274  18.973  0.00  0.00    +0.000 NA
ATOM     30  H   UNL     1      -0.530  12.251  18.329  0.00  0.00    +0.000 HD
ENDBRANCH  20  23
ENDBRANCH   4  20
TORSDOF 7
ENDMDL
MODEL 9
REMARK VINA RESULT:      -7.5      1.188      1.774
REMARK  Name = 
REMARK  7 active torsions:
REMARK  status: ('A' for Active; 'I' for Inactive)
REMARK    1  A    between atoms: C_2  and  C_3
REMARK    2  A    between atoms: C_3  and  S_4
REMARK    3  A    between atoms: S_4  and  C_5
REMARK    4  A    between atoms: C_5  and  C_6
REMARK    5  A    between atoms: N_12  and  C_13
REMARK    6  A    between atoms: C_16  and  S_17
REMARK    7  A    between atoms: S_17  and  N_20
REMARK                            x       y       z     vdW  Elec       q    Type
REMARK                         _______ _______ _______ _____ _____    ______ ____
ROOT
ATOM      1  C   UNL     1       2.310   6.989  19.119  0.00  0.00    +0.000 A 
ATOM      2  C   UNL     1       2.246   7.951  18.107  0.00  0.00    +0.000 A 
ATOM      3  C   UNL     1       1.658   9.196  18.339  0.00  0.00    +0.000 A 
ATOM      4  C   UNL     1       1.107   9.482  19.584  0.00  0.00    +0.000 A 
ATOM      5  C   UNL     1       1.211   8.560  20.629  0.00  0.00    +0.000 A 
ATOM      6  C   UNL     1       1.812   7.315  20.390  0.00  0.00    +0.000 A 
ENDROOT
BRANCH   1   9
ATOM      7  O   UNL     1       0.993   4.367  19.477  0.00  0.00    +0.000 OA
ATOM      8  C   UNL     1       2.167   4.484  19.139  0.00  0.00    +0.000 C 
ATOM      9  N   UNL     1       2.835   5.684  18.912  0.00  0.00    +0.000 N 
ATOM     10  H   UNL     1       3.802   5.645  18.624  0.00  0.00    +0.000 HD
BRANCH   8  11
ATOM     11  C   UNL     1       3.039   3.253  18.946  0.00  0.00    +0.000 C 
BRANCH  11  12
ATOM     12  S   UNL     1       4.784   3.585  19.345  0.00  0.00    +0.000 S 
BRANCH  12  13
ATOM     13  C   UNL     1       5.361   4.135  17.712  0.00  0.00    +0.000 C 
BRANCH  13  14
ATOM     14  C   UNL     1       6.231   5.362  17.807  0.00  0.00    +0.000 A 
ATOM     15  C   UNL     1       5.961   6.488  17.016  0.00  0.00    +0.000 A 
ATOM     16  C   UNL     1       6.759   7.629  17.111  0.00  0.00    +0.000 A 
ATOM     17  C   UNL     1       7.842   7.654  17.988  0.00  0.00    +0.000 A 
ATOM     18  C   UNL     1       8.130   6.536  18.767  0.00  0.00    +0.000 A 
ATOM     19  C   UNL     1       7.331   5.394  18.677  0.00  0.00    +0.000 A 
ENDBRANCH  13  14
ENDBRANCH  12  13
ENDBRANCH  11  12
ENDBRANCH   8  11
ENDBRANCH   1   9
BRANCH   4  20
ATOM     20  S   UNL     1       0.363  11.075  19.837  0.00  0.00    +0.000 S 
ATOM     21  O   UNL     1      -0.840  10.858  20.622  0.00  0.00    +0.000 OA
ATOM     22  O   UNL     1       1.387  11.978  20.318  0.00  0.00    +0.000 OA
BRANCH  20  23
ATOM     23  N   UNL     1      -0.166  11.531  18.313  0.00  0.00    +0.000 N 
ATOM     24  C   UNL     1      -1.499  11.205  18.063  0.00  0.00    +0.000 A 
ATOM     25  N   UNL     1      -2.430  12.068  18.476  0.00  0.00    +0.000 NA
ATOM     26  C   UNL     1      -3.702  11.666  18.303  0.00  0.00    +0.000 A 
ATOM     27  C   UNL     1      -4.045  10.441  17.779  0.00  0.00    +0.000 A 
ATOM     28  C   UNL     1      -2.990   9.642  17.397  0.00  0.00    +0.000 A 
ATOM     29  N   UNL     1      -1.701  10.011  17.505  0.00  0.00    +0.000 NA
ATOM     30  H   UNL     1       0.448  11.127  17.615  0.00  0.00    +0.000 HD
ENDBRANCH  20  23
ENDBRANCH   4  20
TORSDOF 7
ENDMDL
