MODEL 1
REMARK VINA RESULT:      -7.0      0.000      0.000
REMARK  Name = 
REMARK  13 active torsions:
REMARK  status: ('A' for Active; 'I' for Inactive)
REMARK    1  A    between atoms: C_1  and  C_2
REMARK    2  A    between atoms: C_2  and  O_3
REMARK    3  A    between atoms: O_3  and  C_4
REMARK    4  A    between atoms: C_4  and  C_6
REMARK    5  A    between atoms: C_6  and  C_7
REMARK    6  A    between atoms: C_7  and  C_8
REMARK    7  A    between atoms: N_17  and  C_18
REMARK    8  A    between atoms: C_18  and  C_19
REMARK    9  A    between atoms: C_22  and  O_23
REMARK   10  A    between atoms: O_23  and  C_24
REMARK   11  A    between atoms: C_24  and  C_25
REMARK   12  A    between atoms: C_26  and  C_27
REMARK   13  A    between atoms: C_27  and  O_28
REMARK                            x       y       z     vdW  Elec       q    Type
REMARK                         _______ _______ _______ _____ _____    ______ ____
ROOT
ATOM      1  C   UNL     1       3.011   5.034  18.832  0.00  0.00    +0.000 C 
ATOM      2  C   UNL     1       2.884   5.184  20.377  0.00  0.00    +0.000 C 
ATOM      3  C   UNL     1       1.791   6.175  20.773  0.00  0.00    +0.000 C 
ATOM      4  C   UNL     1       1.975   7.527  20.084  0.00  0.00    +0.000 C 
ATOM      5  N   UNL     1       2.031   7.359  18.631  0.00  0.00    +0.000 NA
ATOM      6  C   UNL     1       3.129   6.454  18.224  0.00  0.00    +0.000 C 
ENDROOT
BRANCH   1   7
ATOM      7  C   UNL     1       1.776   4.332  18.246  0.00  0.00    +0.000 C 
ATOM      8  O   UNL     1       1.419   4.373  17.075  0.00  0.00    +0.000 OA
BRANCH   7   9
ATOM      9  O   UNL     1       1.086   3.665  19.220  0.00  0.00    +0.000 OA
BRANCH   9  11
ATOM     10  C   UNL     1       2.127   1.466  18.950  0.00  0.00    +0.000 C 
ATOM     11  C   UNL     1       0.848   2.276  18.952  0.00  0.00    +0.000 C 
ENDBRANCH   9  11
ENDBRANCH   7   9
ENDBRANCH   1   7
BRANCH   1  12
ATOM     12  C   UNL     1       4.272   4.173  18.560  0.00  0.00    +0.000 C 
BRANCH  12  13
ATOM     13  C   UNL     1       5.127   4.531  17.368  0.00  0.00    +0.000 A 
ATOM     14  C   UNL     1       6.266   5.333  17.521  0.00  0.00    +0.000 A 
ATOM     15  C   UNL     1       7.084   5.618  16.426  0.00  0.00    +0.000 A 
ATOM     16  C   UNL     1       6.778   5.097  15.172  0.00  0.00    +0.000 A 
ATOM     17  C   UNL     1       5.646   4.302  15.007  0.00  0.00    +0.000 A 
ATOM     18  C   UNL     1       4.821   4.024  16.099  0.00  0.00    +0.000 A 
ENDBRANCH  12  13
ENDBRANCH   1  12
BRANCH   5  19
ATOM     19  C   UNL     1       2.143   8.645  17.922  0.00  0.00    +0.000 C 
BRANCH  19  20
ATOM     20  C   UNL     1       1.031   9.630  18.231  0.00  0.00    +0.000 A 
ATOM     21  C   UNL     1       1.292  10.823  18.901  0.00  0.00    +0.000 A 
ATOM     22  C   UNL     1       0.261  11.743  19.117  0.00  0.00    +0.000 A 
ATOM     23  C   UNL     1      -1.046  11.520  18.653  0.00  0.00    +0.000 A 
ATOM     24  C   UNL     1      -1.310  10.348  17.919  0.00  0.00    +0.000 A 
ATOM     25  C   UNL     1      -0.272   9.395  17.768  0.00  0.00    +0.000 A 
BRANCH  23  26
ATOM     26  O   UNL     1      -1.879  12.561  18.964  0.00  0.00    +0.000 OA
BRANCH  26  27
ATOM     27  C   UNL     1      -2.230  12.820  20.314  0.00  0.00    +0.000 C 
ATOM     28  C   UNL     1      -3.731  13.007  20.432  0.00  0.00    +0.000 C 
ENDBRANCH  26  27
ENDBRANCH  23  26
BRANCH  24  29
ATOM     29  C   UNL     1      -2.596  10.011  17.204  0.00  0.00    +0.000 C 
BRANCH  29  30
ATOM     30  O   UNL     1      -3.717  10.597  17.854  0.00  0.00    +0.000 OA
ATOM     31  H   UNL     1      -3.994  11.356  17.321  0.00  0.00    +0.000 HD
ENDBRANCH  29  30
ENDBRANCH  24  29
ENDBRANCH  19  20
ENDBRANCH   5  19
TORSDOF 11
ENDMDL
MODEL 2
REMARK VINA RESULT:      -6.9      1.087      1.149
REMARK  Name = 
REMARK  13 active torsions:
REMARK  status: ('A' for Active; 'I' for Inactive)
REMARK    1  A    between atoms: C_1  and  C_2
REMARK    2  A    between atoms: C_2  and  O_3
REMARK    3  A    between atoms: O_3  and  C_4
REMARK    4  A    between atoms: C_4  and  C_6
REMARK    5  A    between atoms: C_6  and  C_7
REMARK    6  A    between atoms: C_7  and  C_8
REMARK    7  A    between atoms: N_17  and  C_18
REMARK    8  A    between atoms: C_18  and  C_19
REMARK    9  A    between atoms: C_22  and  O_23
REMARK   10  A    between atoms: O_23  and  C_24
REMARK   11  A    between atoms: C_24  and  C_25
REMARK   12  A    between atoms: C_26  and  C_27
REMARK   13  A    between atoms: C_27  and  O_28
REMARK                            x       y       z     vdW  Elec       q    Type
REMARK                         _______ _______ _______ _____ _____    ______ ____
ROOT
ATOM      1  C   UNL     1       3.202   4.996  18.667  0.00  0.00    +0.000 C 
ATOM      2  C   UNL     1       3.052   5.230  20.199  0.00  0.00    +0.000 C 
ATOM      3  C   UNL     1       1.928   6.212  20.526  0.00  0.00    +0.000 C 
ATOM      4  C   UNL     1       2.086   7.527  19.763  0.00  0.00    +0.000 C 
ATOM      5  N   UNL     1       2.164   7.278  18.322  0.00  0.00    +0.000 NA
ATOM      6  C   UNL     1       3.291   6.382  17.980  0.00  0.00    +0.000 C 
ENDROOT
BRANCH   1   7
ATOM      7  C   UNL     1       1.993   4.229  18.109  0.00  0.00    +0.000 C 
ATOM      8  O   UNL     1       1.145   4.685  17.351  0.00  0.00    +0.000 OA
BRANCH   7   9
ATOM      9  O   UNL     1       1.957   2.953  18.598  0.00  0.00    +0.000 OA
BRANCH   9  11
ATOM     10  C   UNL     1       1.163   2.616  20.889  0.00  0.00    +0.000 C 
ATOM     11  C   UNL     1       0.818   2.648  19.415  0.00  0.00    +0.000 C 
ENDBRANCH   9  11
ENDBRANCH   7   9
ENDBRANCH   1   7
BRANCH   1  12
ATOM     12  C   UNL     1       4.489   4.155  18.459  0.00  0.00    +0.000 C 
BRANCH  12  13
ATOM     13  C   UNL     1       5.317   4.428  17.226  0.00  0.00    +0.000 A 
ATOM     14  C   UNL     1       6.558   5.072  17.328  0.00  0.00    +0.000 A 
ATOM     15  C   UNL     1       7.347   5.275  16.194  0.00  0.00    +0.000 A 
ATOM     16  C   UNL     1       6.908   4.828  14.950  0.00  0.00    +0.000 A 
ATOM     17  C   UNL     1       5.675   4.191  14.836  0.00  0.00    +0.000 A 
ATOM     18  C   UNL     1       4.880   3.996  15.968  0.00  0.00    +0.000 A 
ENDBRANCH  12  13
ENDBRANCH   1  12
BRANCH   5  19
ATOM     19  C   UNL     1       2.251   8.524  17.542  0.00  0.00    +0.000 C 
BRANCH  19  20
ATOM     20  C   UNL     1       1.370   9.648  18.056  0.00  0.00    +0.000 A 
ATOM     21  C   UNL     1       1.920  10.773  18.665  0.00  0.00    +0.000 A 
ATOM     22  C   UNL     1       1.092  11.823  19.072  0.00  0.00    +0.000 A 
ATOM     23  C   UNL     1      -0.297  11.802  18.862  0.00  0.00    +0.000 A 
ATOM     24  C   UNL     1      -0.859  10.699  18.190  0.00  0.00    +0.000 A 
ATOM     25  C   UNL     1      -0.016   9.614  17.846  0.00  0.00    +0.000 A 
BRANCH  23  26
ATOM     26  O   UNL     1      -0.898  12.941  19.325  0.00  0.00    +0.000 OA
BRANCH  26  27
ATOM     27  C   UNL     1      -0.389  14.216  18.969  0.00  0.00    +0.000 C 
ATOM     28  C   UNL     1      -0.405  15.136  20.176  0.00  0.00    +0.000 C 
ENDBRANCH  26  27
ENDBRANCH  23  26
BRANCH  24  29
ATOM     29  C   UNL     1      -2.291  10.568  17.730  0.00  0.00    +0.000 C 
BRANCH  29  30
ATOM     30  O   UNL     1      -2.821  11.825  17.327  0.00  0.00    +0.000 OA
ATOM     31  H   UNL     1      -3.785  11.756  17.366  0.00  0.00    +0.000 HD
ENDBRANCH  29  30
ENDBRANCH  24  29
ENDBRANCH  19  20
ENDBRANCH   5  19
TORSDOF 11
ENDMDL
MODEL 3
REMARK VINA RESULT:      -6.9      0.767      1.202
REMARK  Name = 
REMARK  13 active torsions:
REMARK  status: ('A' for Active; 'I' for Inactive)
REMARK    1  A    between atoms: C_1  and  C_2
REMARK    2  A    between atoms: C_2  and  O_3
REMARK    3  A    between atoms: O_3  and  C_4
REMARK    4  A    between atoms: C_4  and  C_6
REMARK    5  A    between atoms: C_6  and  C_7
REMARK    6  A    between atoms: C_7  and  C_8
REMARK    7  A    between atoms: N_17  and  C_18
REMARK    8  A    between atoms: C_18  and  C_19
REMARK    9  A    between atoms: C_22  and  O_23
REMARK   10  A    between atoms: O_23  and  C_24
REMARK   11  A    between atoms: C_24  and  C_25
REMARK   12  A    between atoms: C_26  and  C_27
REMARK   13  A    between atoms: C_27  and  O_28
REMARK                            x       y       z     vdW  Elec       q    Type
REMARK                         _______ _______ _______ _____ _____    ______ ____
ROOT
ATOM      1  C   UNL     1       3.193   5.217  18.871  0.00  0.00    +0.000 C 
ATOM      2  C   UNL     1       2.949   5.472  20.388  0.00  0.00    +0.000 C 
ATOM      3  C   UNL     1       1.798   6.447  20.631  0.00  0.00    +0.000 C 
ATOM      4  C   UNL     1       1.989   7.752  19.858  0.00  0.00    +0.000 C 
ATOM      5  N   UNL     1       2.157   7.483  18.429  0.00  0.00    +0.000 NA
ATOM      6  C   UNL     1       3.310   6.593  18.169  0.00  0.00    +0.000 C 
ENDROOT
BRANCH   1   7
ATOM      7  C   UNL     1       2.027   4.429  18.253  0.00  0.00    +0.000 C 
ATOM      8  O   UNL     1       1.213   4.869  17.451  0.00  0.00    +0.000 OA
BRANCH   7   9
ATOM      9  O   UNL     1       1.986   3.153  18.743  0.00  0.00    +0.000 OA
BRANCH   9  11
ATOM     10  C   UNL     1       1.309   2.602  21.030  0.00  0.00    +0.000 C 
ATOM     11  C   UNL     1       0.875   2.870  19.605  0.00  0.00    +0.000 C 
ENDBRANCH   9  11
ENDBRANCH   7   9
ENDBRANCH   1   7
BRANCH   1  12
ATOM     12  C   UNL     1       4.498   4.386  18.754  0.00  0.00    +0.000 C 
BRANCH  12  13
ATOM     13  C   UNL     1       5.300   4.510  17.481  0.00  0.00    +0.000 A 
ATOM     14  C   UNL     1       4.754   4.116  16.252  0.00  0.00    +0.000 A 
ATOM     15  C   UNL     1       5.477   4.283  15.069  0.00  0.00    +0.000 A 
ATOM     16  C   UNL     1       6.747   4.853  15.102  0.00  0.00    +0.000 A 
ATOM     17  C   UNL     1       7.301   5.244  16.319  0.00  0.00    +0.000 A 
ATOM     18  C   UNL     1       6.584   5.069  17.504  0.00  0.00    +0.000 A 
ENDBRANCH  12  13
ENDBRANCH   1  12
BRANCH   5  19
ATOM     19  C   UNL     1       2.279   8.718  17.637  0.00  0.00    +0.000 C 
BRANCH  19  20
ATOM     20  C   UNL     1       1.346   9.834  18.067  0.00  0.00    +0.000 A 
ATOM     21  C   UNL     1       1.842  11.024  18.594  0.00  0.00    +0.000 A 
ATOM     22  C   UNL     1       0.965  12.062  18.924  0.00  0.00    +0.000 A 
ATOM     23  C   UNL     1      -0.421  11.961  18.715  0.00  0.00    +0.000 A 
ATOM     24  C   UNL     1      -0.930  10.789  18.124  0.00  0.00    +0.000 A 
ATOM     25  C   UNL     1      -0.036   9.721  17.859  0.00  0.00    +0.000 A 
BRANCH  23  26
ATOM     26  O   UNL     1      -1.075  13.102  19.095  0.00  0.00    +0.000 OA
BRANCH  26  27
ATOM     27  C   UNL     1      -1.214  13.426  20.469  0.00  0.00    +0.000 C 
ATOM     28  C   UNL     1      -2.217  12.494  21.122  0.00  0.00    +0.000 C 
ENDBRANCH  26  27
ENDBRANCH  23  26
BRANCH  24  29
ATOM     29  C   UNL     1      -2.352  10.560  17.673  0.00  0.00    +0.000 C 
BRANCH  29  30
ATOM     30  O   UNL     1      -3.006  11.789  17.384  0.00  0.00    +0.000 OA
ATOM     31  H   UNL     1      -3.959  11.616  17.393  0.00  0.00    +0.000 HD
ENDBRANCH  29  30
ENDBRANCH  24  29
ENDBRANCH  19  20
ENDBRANCH   5  19
TORSDOF 11
ENDMDL
MODEL 4
REMARK VINA RESULT:      -6.9      0.820      1.803
REMARK  Name = 
REMARK  13 active torsions:
REMARK  status: ('A' for Active; 'I' for Inactive)
REMARK    1  A    between atoms: C_1  and  C_2
REMARK    2  A    between atoms: C_2  and  O_3
REMARK    3  A    between atoms: O_3  and  C_4
REMARK    4  A    between atoms: C_4  and  C_6
REMARK    5  A    between atoms: C_6  and  C_7
REMARK    6  A    between atoms: C_7  and  C_8
REMARK    7  A    between atoms: N_17  and  C_18
REMARK    8  A    between atoms: C_18  and  C_19
REMARK    9  A    between atoms: C_22  and  O_23
REMARK   10  A    between atoms: O_23  and  C_24
REMARK   11  A    between atoms: C_24  and  C_25
REMARK   12  A    between atoms: C_26  and  C_27
REMARK   13  A    between atoms: C_27  and  O_28
REMARK                            x       y       z     vdW  Elec       q    Type
REMARK                         _______ _______ _______ _____ _____    ______ ____
ROOT
ATOM      1  C   UNL     1       2.920   5.058  18.991  0.00  0.00    +0.000 C 
ATOM      2  C   UNL     1       2.708   5.321  20.512  0.00  0.00    +0.000 C 
ATOM      3  C   UNL     1       1.660   6.402  20.770  0.00  0.00    +0.000 C 
ATOM      4  C   UNL     1       1.976   7.689  20.009  0.00  0.00    +0.000 C 
ATOM      5  N   UNL     1       2.110   7.419  18.577  0.00  0.00    +0.000 NA
ATOM      6  C   UNL     1       3.169   6.423  18.302  0.00  0.00    +0.000 C 
ENDROOT
BRANCH   1   7
ATOM      7  C   UNL     1       1.680   4.395  18.371  0.00  0.00    +0.000 C 
ATOM      8  O   UNL     1       1.295   4.539  17.217  0.00  0.00    +0.000 OA
BRANCH   7   9
ATOM      9  O   UNL     1       1.022   3.631  19.295  0.00  0.00    +0.000 OA
BRANCH   9  11
ATOM     10  C   UNL     1       2.022   1.478  18.701  0.00  0.00    +0.000 C 
ATOM     11  C   UNL     1       0.754   2.283  18.887  0.00  0.00    +0.000 C 
ENDBRANCH   9  11
ENDBRANCH   7   9
ENDBRANCH   1   7
BRANCH   1  12
ATOM     12  C   UNL     1       4.136   4.104  18.860  0.00  0.00    +0.000 C 
BRANCH  12  13
ATOM     13  C   UNL     1       5.093   4.336  17.715  0.00  0.00    +0.000 A 
ATOM     14  C   UNL     1       6.390   4.811  17.954  0.00  0.00    +0.000 A 
ATOM     15  C   UNL     1       7.291   4.973  16.900  0.00  0.00    +0.000 A 
ATOM     16  C   UNL     1       6.908   4.654  15.599  0.00  0.00    +0.000 A 
ATOM     17  C   UNL     1       5.620   4.186  15.350  0.00  0.00    +0.000 A 
ATOM     18  C   UNL     1       4.715   4.032  16.401  0.00  0.00    +0.000 A 
ENDBRANCH  12  13
ENDBRANCH   1  12
BRANCH   5  19
ATOM     19  C   UNL     1       2.350   8.645  17.796  0.00  0.00    +0.000 C 
BRANCH  19  20
ATOM     20  C   UNL     1       1.353   9.758  18.054  0.00  0.00    +0.000 A 
ATOM     21  C   UNL     1      -0.018   9.534  17.957  0.00  0.00    +0.000 A 
ATOM     22  C   UNL     1      -0.918  10.561  18.261  0.00  0.00    +0.000 A 
ATOM     23  C   UNL     1      -0.486  11.825  18.697  0.00  0.00    +0.000 A 
ATOM     24  C   UNL     1       0.895  12.046  18.860  0.00  0.00    +0.000 A 
ATOM     25  C   UNL     1       1.795  11.019  18.482  0.00  0.00    +0.000 A 
BRANCH  23  26
ATOM     26  O   UNL     1      -1.540  12.660  18.952  0.00  0.00    +0.000 OA
BRANCH  26  27
ATOM     27  C   UNL     1      -2.124  12.705  20.244  0.00  0.00    +0.000 C 
ATOM     28  C   UNL     1      -3.638  12.723  20.128  0.00  0.00    +0.000 C 
ENDBRANCH  26  27
ENDBRANCH  23  26
BRANCH  24  29
ATOM     29  C   UNL     1       1.538  13.270  19.467  0.00  0.00    +0.000 C 
BRANCH  29  30
ATOM     30  O   UNL     1       0.878  14.459  19.054  0.00  0.00    +0.000 OA
ATOM     31  H   UNL     1       0.270  14.217  18.341  0.00  0.00    +0.000 HD
ENDBRANCH  29  30
ENDBRANCH  24  29
ENDBRANCH  19  20
ENDBRANCH   5  19
TORSDOF 11
ENDMDL
MODEL 5
REMARK VINA RESULT:      -6.9      1.085      1.519
REMARK  Name = 
REMARK  13 active torsions:
REMARK  status: ('A' for Active; 'I' for Inactive)
REMARK    1  A    between atoms: C_1  and  C_2
REMARK    2  A    between atoms: C_2  and  O_3
REMARK    3  A    between atoms: O_3  and  C_4
REMARK    4  A    between atoms: C_4  and  C_6
REMARK    5  A    between atoms: C_6  and  C_7
REMARK    6  A    between atoms: C_7  and  C_8
REMARK    7  A    between atoms: N_17  and  C_18
REMARK    8  A    between atoms: C_18  and  C_19
REMARK    9  A    between atoms: C_22  and  O_23
REMARK   10  A    between atoms: O_23  and  C_24
REMARK   11  A    between atoms: C_24  and  C_25
REMARK   12  A    between atoms: C_26  and  C_27
REMARK   13  A    between atoms: C_27  and  O_28
REMARK                            x       y       z     vdW  Elec       q    Type
REMARK                         _______ _______ _______ _____ _____    ______ ____
ROOT
ATOM      1  C   UNL     1       2.927   5.341  18.604  0.00  0.00    +0.000 C 
ATOM      2  C   UNL     1       2.961   5.446  20.157  0.00  0.00    +0.000 C 
ATOM      3  C   UNL     1       1.875   6.375  20.697  0.00  0.00    +0.000 C 
ATOM      4  C   UNL     1       1.925   7.751  20.033  0.00  0.00    +0.000 C 
ATOM      5  N   UNL     1       1.830   7.621  18.578  0.00  0.00    +0.000 NA
ATOM      6  C   UNL     1       2.916   6.779  18.029  0.00  0.00    +0.000 C 
ENDROOT
BRANCH   1   7
ATOM      7  C   UNL     1       1.667   4.597  18.133  0.00  0.00    +0.000 C 
ATOM      8  O   UNL     1       1.182   4.654  17.010  0.00  0.00    +0.000 OA
BRANCH   7   9
ATOM      9  O   UNL     1       1.120   3.869  19.153  0.00  0.00    +0.000 OA
BRANCH   9  11
ATOM     10  C   UNL     1       2.209   1.693  18.887  0.00  0.00    +0.000 C 
ATOM     11  C   UNL     1       0.915   2.479  18.865  0.00  0.00    +0.000 C 
ENDBRANCH   9  11
ENDBRANCH   7   9
ENDBRANCH   1   7
BRANCH   1  12
ATOM     12  C   UNL     1       4.188   4.546  18.174  0.00  0.00    +0.000 C 
BRANCH  12  13
ATOM     13  C   UNL     1       5.515   5.265  18.196  0.00  0.00    +0.000 A 
ATOM     14  C   UNL     1       5.887   6.112  17.142  0.00  0.00    +0.000 A 
ATOM     15  C   UNL     1       7.090   6.818  17.190  0.00  0.00    +0.000 A 
ATOM     16  C   UNL     1       7.928   6.693  18.295  0.00  0.00    +0.000 A 
ATOM     17  C   UNL     1       7.571   5.852  19.346  0.00  0.00    +0.000 A 
ATOM     18  C   UNL     1       6.373   5.137  19.295  0.00  0.00    +0.000 A 
ENDBRANCH  12  13
ENDBRANCH   1  12
BRANCH   5  19
ATOM     19  C   UNL     1       1.808   8.928  17.899  0.00  0.00    +0.000 C 
BRANCH  19  20
ATOM     20  C   UNL     1       0.728   9.873  18.392  0.00  0.00    +0.000 A 
ATOM     21  C   UNL     1       1.022  10.898  19.287  0.00  0.00    +0.000 A 
ATOM     22  C   UNL     1       0.022  11.794  19.677  0.00  0.00    +0.000 A 
ATOM     23  C   UNL     1      -1.286  11.718  19.170  0.00  0.00    +0.000 A 
ATOM     24  C   UNL     1      -1.582  10.725  18.216  0.00  0.00    +0.000 A 
ATOM     25  C   UNL     1      -0.576   9.783  17.884  0.00  0.00    +0.000 A 
BRANCH  23  26
ATOM     26  O   UNL     1      -2.086  12.706  19.679  0.00  0.00    +0.000 OA
BRANCH  26  27
ATOM     27  C   UNL     1      -1.511  13.859  20.272  0.00  0.00    +0.000 C 
ATOM     28  C   UNL     1      -2.597  14.713  20.901  0.00  0.00    +0.000 C 
ENDBRANCH  26  27
ENDBRANCH  23  26
BRANCH  24  29
ATOM     29  C   UNL     1      -2.870  10.585  17.442  0.00  0.00    +0.000 C 
BRANCH  29  30
ATOM     30  O   UNL     1      -3.443  11.855  17.159  0.00  0.00    +0.000 OA
ATOM     31  H   UNL     1      -3.363  12.391  17.961  0.00  0.00    +0.000 HD
ENDBRANCH  29  30
ENDBRANCH  24  29
ENDBRANCH  19  20
ENDBRANCH   5  19
TORSDOF 11
ENDMDL
MODEL 6
REMARK VINA RESULT:      -6.8      1.342      2.342
REMARK  Name = 
REMARK  13 active torsions:
REMARK  status: ('A' for Active; 'I' for Inactive)
REMARK    1  A    between atoms: C_1  and  C_2
REMARK    2  A    between atoms: C_2  and  O_3
REMARK    3  A    between atoms: O_3  and  C_4
REMARK    4  A    between atoms: C_4  and  C_6
REMARK    5  A    between atoms: C_6  and  C_7
REMARK    6  A    between atoms: C_7  and  C_8
REMARK    7  A    between atoms: N_17  and  C_18
REMARK    8  A    between atoms: C_18  and  C_19
REMARK    9  A    between atoms: C_22  and  O_23
REMARK   10  A    between atoms: O_23  and  C_24
REMARK   11  A    between atoms: C_24  and  C_25
REMARK   12  A    between atoms: C_26  and  C_27
REMARK   13  A    between atoms: C_27  and  O_28
REMARK                            x       y       z     vdW  Elec       q    Type
REMARK                         _______ _______ _______ _____ _____    ______ ____
ROOT
ATOM      1  C   UNL     1       2.886   5.425  18.548  0.00  0.00    +0.000 C 
ATOM      2  C   UNL     1       2.971   5.525  20.099  0.00  0.00    +0.000 C 
ATOM      3  C   UNL     1       1.902   6.451  20.678  0.00  0.00    +0.000 C 
ATOM      4  C   UNL     1       1.928   7.828  20.017  0.00  0.00    +0.000 C 
ATOM      5  N   UNL     1       1.787   7.704  18.565  0.00  0.00    +0.000 NA
ATOM      6  C   UNL     1       2.856   6.865  17.978  0.00  0.00    +0.000 C 
ENDROOT
BRANCH   1   7
ATOM      7  C   UNL     1       1.613   4.681  18.115  0.00  0.00    +0.000 C 
ATOM      8  O   UNL     1       1.089   4.744  17.010  0.00  0.00    +0.000 OA
BRANCH   7   9
ATOM      9  O   UNL     1       1.102   3.945  19.149  0.00  0.00    +0.000 OA
BRANCH   9  11
ATOM     10  C   UNL     1       2.159   1.739  19.059  0.00  0.00    +0.000 C 
ATOM     11  C   UNL     1       0.899   2.555  18.861  0.00  0.00    +0.000 C 
ENDBRANCH   9  11
ENDBRANCH   7   9
ENDBRANCH   1   7
BRANCH   1  12
ATOM     12  C   UNL     1       4.133   4.633  18.074  0.00  0.00    +0.000 C 
BRANCH  12  13
ATOM     13  C   UNL     1       5.477   5.315  18.165  0.00  0.00    +0.000 A 
ATOM     14  C   UNL     1       5.907   6.184  17.153  0.00  0.00    +0.000 A 
ATOM     15  C   UNL     1       7.125   6.856  17.265  0.00  0.00    +0.000 A 
ATOM     16  C   UNL     1       7.921   6.674  18.393  0.00  0.00    +0.000 A 
ATOM     17  C   UNL     1       7.506   5.810  19.403  0.00  0.00    +0.000 A 
ATOM     18  C   UNL     1       6.292   5.130  19.288  0.00  0.00    +0.000 A 
ENDBRANCH  12  13
ENDBRANCH   1  12
BRANCH   5  19
ATOM     19  C   UNL     1       1.742   9.013  17.892  0.00  0.00    +0.000 C 
BRANCH  19  20
ATOM     20  C   UNL     1       0.549   9.872  18.270  0.00  0.00    +0.000 A 
ATOM     21  C   UNL     1      -0.708   9.643  17.716  0.00  0.00    +0.000 A 
ATOM     22  C   UNL     1      -1.804  10.407  18.129  0.00  0.00    +0.000 A 
ATOM     23  C   UNL     1      -1.691  11.397  19.120  0.00  0.00    +0.000 A 
ATOM     24  C   UNL     1      -0.439  11.597  19.733  0.00  0.00    +0.000 A 
ATOM     25  C   UNL     1       0.674  10.862  19.255  0.00  0.00    +0.000 A 
BRANCH  23  26
ATOM     26  O   UNL     1      -2.893  12.001  19.372  0.00  0.00    +0.000 OA
BRANCH  26  27
ATOM     27  C   UNL     1      -4.016  11.736  18.548  0.00  0.00    +0.000 C 
ATOM     28  C   UNL     1      -5.297  12.036  19.305  0.00  0.00    +0.000 C 
ENDBRANCH  26  27
ENDBRANCH  23  26
BRANCH  24  29
ATOM     29  C   UNL     1      -0.157  12.489  20.918  0.00  0.00    +0.000 C 
BRANCH  29  30
ATOM     30  O   UNL     1       1.202  12.391  21.326  0.00  0.00    +0.000 OA
ATOM     31  H   UNL     1       1.749  12.547  20.543  0.00  0.00    +0.000 HD
ENDBRANCH  29  30
ENDBRANCH  24  29
ENDBRANCH  19  20
ENDBRANCH   5  19
TORSDOF 11
ENDMDL
MODEL 7
REMARK VINA RESULT:      -6.8      1.077      1.929
REMARK  Name = 
REMARK  13 active torsions:
REMARK  status: ('A' for Active; 'I' for Inactive)
REMARK    1  A    between atoms: C_1  and  C_2
REMARK    2  A    between atoms: C_2  and  O_3
REMARK    3  A    between atoms: O_3  and  C_4
REMARK    4  A    between atoms: C_4  and  C_6
REMARK    5  A    between atoms: C_6  and  C_7
REMARK    6  A    between atoms: C_7  and  C_8
REMARK    7  A    between atoms: N_17  and  C_18
REMARK    8  A    between atoms: C_18  and  C_19
REMARK    9  A    between atoms: C_22  and  O_23
REMARK   10  A    between atoms: O_23  and  C_24
REMARK   11  A    between atoms: C_24  and  C_25
REMARK   12  A    between atoms: C_26  and  C_27
REMARK   13  A    between atoms: C_27  and  O_28
REMARK                            x       y       z     vdW  Elec       q    Type
REMARK                         _______ _______ _______ _____ _____    ______ ____
ROOT
ATOM      1  C   UNL     1       3.228   5.128  18.770  0.00  0.00    +0.000 C 
ATOM      2  C   UNL     1       3.022   5.306  20.303  0.00  0.00    +0.000 C 
ATOM      3  C   UNL     1       1.866   6.252  20.625  0.00  0.00    +0.000 C 
ATOM      4  C   UNL     1       2.020   7.595  19.913  0.00  0.00    +0.000 C 
ATOM      5  N   UNL     1       2.152   7.399  18.468  0.00  0.00    +0.000 NA
ATOM      6  C   UNL     1       3.309   6.539  18.134  0.00  0.00    +0.000 C 
ENDROOT
BRANCH   1   7
ATOM      7  C   UNL     1       2.056   4.356  18.145  0.00  0.00    +0.000 C 
ATOM      8  O   UNL     1       1.223   4.820  17.376  0.00  0.00    +0.000 OA
BRANCH   7   9
ATOM      9  O   UNL     1       2.034   3.062  18.587  0.00  0.00    +0.000 OA
BRANCH   9  11
ATOM     10  C   UNL     1       1.215   2.540  20.834  0.00  0.00    +0.000 C 
ATOM     11  C   UNL     1       0.883   2.707  19.366  0.00  0.00    +0.000 C 
ENDBRANCH   9  11
ENDBRANCH   7   9
ENDBRANCH   1   7
BRANCH   1  12
ATOM     12  C   UNL     1       4.540   4.322  18.577  0.00  0.00    +0.000 C 
BRANCH  12  13
ATOM     13  C   UNL     1       5.349   4.581  17.329  0.00  0.00    +0.000 A 
ATOM     14  C   UNL     1       6.560   5.284  17.396  0.00  0.00    +0.000 A 
ATOM     15  C   UNL     1       7.333   5.475  16.250  0.00  0.00    +0.000 A 
ATOM     16  C   UNL     1       6.909   4.958  15.028  0.00  0.00    +0.000 A 
ATOM     17  C   UNL     1       5.705   4.262  14.949  0.00  0.00    +0.000 A 
ATOM     18  C   UNL     1       4.926   4.078  16.092  0.00  0.00    +0.000 A 
ENDBRANCH  12  13
ENDBRANCH   1  12
BRANCH   5  19
ATOM     19  C   UNL     1       2.237   8.673  17.734  0.00  0.00    +0.000 C 
BRANCH  19  20
ATOM     20  C   UNL     1       1.082   9.622  17.991  0.00  0.00    +0.000 A 
ATOM     21  C   UNL     1      -0.201   9.338  17.530  0.00  0.00    +0.000 A 
ATOM     22  C   UNL     1      -1.260  10.199  17.834  0.00  0.00    +0.000 A 
ATOM     23  C   UNL     1      -1.085  11.346  18.626  0.00  0.00    +0.000 A 
ATOM     24  C   UNL     1       0.194  11.612  19.152  0.00  0.00    +0.000 A 
ATOM     25  C   UNL     1       1.270  10.769  18.778  0.00  0.00    +0.000 A 
BRANCH  23  26
ATOM     26  O   UNL     1      -2.261  12.023  18.805  0.00  0.00    +0.000 OA
BRANCH  26  27
ATOM     27  C   UNL     1      -3.391  11.723  18.002  0.00  0.00    +0.000 C 
ATOM     28  C   UNL     1      -4.663  11.897  18.812  0.00  0.00    +0.000 C 
ENDBRANCH  26  27
ENDBRANCH  23  26
BRANCH  24  29
ATOM     29  C   UNL     1       0.544  12.692  20.147  0.00  0.00    +0.000 C 
BRANCH  29  30
ATOM     30  O   UNL     1       1.555  12.257  21.047  0.00  0.00    +0.000 OA
ATOM     31  H   UNL     1       1.123  11.722  21.728  0.00  0.00    +0.000 HD
ENDBRANCH  29  30
ENDBRANCH  24  29
ENDBRANCH  19  20
ENDBRANCH   5  19
TORSDOF 11
ENDMDL
MODEL 8
REMARK VINA RESULT:      -6.7      3.577      7.363
REMARK  Name = 
REMARK  13 active torsions:
REMARK  status: ('A' for Active; 'I' for Inactive)
REMARK    1  A    between atoms: C_1  and  C_2
REMARK    2  A    between atoms: C_2  and  O_3
REMARK    3  A    between atoms: O_3  and  C_4
REMARK    4  A    between atoms: C_4  and  C_6
REMARK    5  A    between atoms: C_6  and  C_7
REMARK    6  A    between atoms: C_7  and  C_8
REMARK    7  A    between atoms: N_17  and  C_18
REMARK    8  A    between atoms: C_18  and  C_19
REMARK    9  A    between atoms: C_22  and  O_23
REMARK   10  A    between atoms: O_23  and  C_24
REMARK   11  A    between atoms: C_24  and  C_25
REMARK   12  A    between atoms: C_26  and  C_27
REMARK   13  A    between atoms: C_27  and  O_28
REMARK                            x       y       z     vdW  Elec       q    Type
REMARK                         _______ _______ _______ _____ _____    ______ ____
ROOT
ATOM      1  C   UNL     1       2.628   4.844  19.653  0.00  0.00    +0.000 C 
ATOM      2  C   UNL     1       1.273   4.510  18.961  0.00  0.00    +0.000 C 
ATOM      3  C   UNL     1       1.417   3.409  17.912  0.00  0.00    +0.000 C 
ATOM      4  C   UNL     1       2.510   3.736  16.894  0.00  0.00    +0.000 C 
ATOM      5  N   UNL     1       3.783   3.987  17.571  0.00  0.00    +0.000 NA
ATOM      6  C   UNL     1       3.679   5.098  18.544  0.00  0.00    +0.000 C 
ENDROOT
BRANCH   1   7
ATOM      7  C   UNL     1       3.094   3.678  20.538  0.00  0.00    +0.000 C 
ATOM      8  O   UNL     1       2.456   3.178  21.456  0.00  0.00    +0.000 OA
BRANCH   7   9
ATOM      9  O   UNL     1       4.353   3.275  20.190  0.00  0.00    +0.000 OA
BRANCH   9  11
ATOM     10  C   UNL     1       4.039   1.101  19.109  0.00  0.00    +0.000 C 
ATOM     11  C   UNL     1       4.590   1.864  20.295  0.00  0.00    +0.000 C 
ENDBRANCH   9  11
ENDBRANCH   7   9
ENDBRANCH   1   7
BRANCH   1  12
ATOM     12  C   UNL     1       2.391   6.099  20.534  0.00  0.00    +0.000 C 
BRANCH  12  13
ATOM     13  C   UNL     1       1.999   7.383  19.842  0.00  0.00    +0.000 A 
ATOM     14  C   UNL     1       1.234   8.349  20.509  0.00  0.00    +0.000 A 
ATOM     15  C   UNL     1       0.919   9.558  19.887  0.00  0.00    +0.000 A 
ATOM     16  C   UNL     1       1.373   9.817  18.595  0.00  0.00    +0.000 A 
ATOM     17  C   UNL     1       2.130   8.862  17.921  0.00  0.00    +0.000 A 
ATOM     18  C   UNL     1       2.438   7.648  18.539  0.00  0.00    +0.000 A 
ENDBRANCH  12  13
ENDBRANCH   1  12
BRANCH   5  19
ATOM     19  C   UNL     1       4.881   4.243  16.623  0.00  0.00    +0.000 C 
BRANCH  19  20
ATOM     20  C   UNL     1       5.927   5.221  17.125  0.00  0.00    +0.000 A 
ATOM     21  C   UNL     1       5.897   6.562  16.751  0.00  0.00    +0.000 A 
ATOM     22  C   UNL     1       6.835   7.456  17.277  0.00  0.00    +0.000 A 
ATOM     23  C   UNL     1       7.808   7.053  18.207  0.00  0.00    +0.000 A 
ATOM     24  C   UNL     1       7.810   5.714  18.643  0.00  0.00    +0.000 A 
ATOM     25  C   UNL     1       6.898   4.807  18.049  0.00  0.00    +0.000 A 
BRANCH  23  26
ATOM     26  O   UNL     1       8.602   8.098  18.595  0.00  0.00    +0.000 OA
BRANCH  26  27
ATOM     27  C   UNL     1       8.350   9.408  18.112  0.00  0.00    +0.000 C 
ATOM     28  C   UNL     1       9.216  10.409  18.855  0.00  0.00    +0.000 C 
ENDBRANCH  26  27
ENDBRANCH  23  26
BRANCH  24  29
ATOM     29  C   UNL     1       8.662   5.134  19.747  0.00  0.00    +0.000 C 
BRANCH  29  30
ATOM     30  O   UNL     1       8.116   5.426  21.027  0.00  0.00    +0.000 OA
ATOM     31  H   UNL     1       7.712   4.612  21.359  0.00  0.00    +0.000 HD
ENDBRANCH  29  30
ENDBRANCH  24  29
ENDBRANCH  19  20
ENDBRANCH   5  19
TORSDOF 11
ENDMDL
MODEL 9
REMARK VINA RESULT:      -6.7      1.411      1.926
REMARK  Name = 
REMARK  13 active torsions:
REMARK  status: ('A' for Active; 'I' for Inactive)
REMARK    1  A    between atoms: C_1  and  C_2
REMARK    2  A    between atoms: C_2  and  O_3
REMARK    3  A    between atoms: O_3  and  C_4
REMARK    4  A    between atoms: C_4  and  C_6
REMARK    5  A    between atoms: C_6  and  C_7
REMARK    6  A    between atoms: C_7  and  C_8
REMARK    7  A    between atoms: N_17  and  C_18
REMARK    8  A    between atoms: C_18  and  C_19
REMARK    9  A    between atoms: C_22  and  O_23
REMARK   10  A    between atoms: O_23  and  C_24
REMARK   11  A    between atoms: C_24  and  C_25
REMARK   12  A    between atoms: C_26  and  C_27
REMARK   13  A    between atoms: C_27  and  O_28
REMARK                            x       y       z     vdW  Elec       q    Type
REMARK                         _______ _______ _______ _____ _____    ______ ____
ROOT
ATOM      1  C   UNL     1       3.453   5.374  18.213  0.00  0.00    +0.000 C 
ATOM      2  C   UNL     1       3.411   5.243  19.764  0.00  0.00    +0.000 C 
ATOM      3  C   UNL     1       2.202   5.954  20.371  0.00  0.00    +0.000 C 
ATOM      4  C   UNL     1       2.119   7.412  19.921  0.00  0.00    +0.000 C 
ATOM      5  N   UNL     1       2.101   7.499  18.460  0.00  0.00    +0.000 NA
ATOM      6  C   UNL     1       3.300   6.874  17.857  0.00  0.00    +0.000 C 
ENDROOT
BRANCH   1   7
ATOM      7  C   UNL     1       2.309   4.578  17.564  0.00  0.00    +0.000 C 
ATOM      8  O   UNL     1       1.144   4.946  17.474  0.00  0.00    +0.000 OA
BRANCH   7   9
ATOM      9  O   UNL     1       2.751   3.365  17.116  0.00  0.00    +0.000 OA
BRANCH   9  11
ATOM     10  C   UNL     1       3.444   1.465  18.496  0.00  0.00    +0.000 C 
ATOM     11  C   UNL     1       2.298   2.235  17.875  0.00  0.00    +0.000 C 
ENDBRANCH   9  11
ENDBRANCH   7   9
ENDBRANCH   1   7
BRANCH   1  12
ATOM     12  C   UNL     1       4.814   4.796  17.744  0.00  0.00    +0.000 C 
BRANCH  12  13
ATOM     13  C   UNL     1       6.052   5.627  17.984  0.00  0.00    +0.000 A 
ATOM     14  C   UNL     1       6.356   6.712  17.151  0.00  0.00    +0.000 A 
ATOM     15  C   UNL     1       7.471   7.512  17.407  0.00  0.00    +0.000 A 
ATOM     16  C   UNL     1       8.287   7.242  18.503  0.00  0.00    +0.000 A 
ATOM     17  C   UNL     1       7.997   6.163  19.335  0.00  0.00    +0.000 A 
ATOM     18  C   UNL     1       6.887   5.356  19.075  0.00  0.00    +0.000 A 
ENDBRANCH  12  13
ENDBRANCH   1  12
BRANCH   5  19
ATOM     19  C   UNL     1       1.956   8.884  17.982  0.00  0.00    +0.000 C 
BRANCH  19  20
ATOM     20  C   UNL     1       0.809   9.649  18.616  0.00  0.00    +0.000 A 
ATOM     21  C   UNL     1       0.888  10.106  19.929  0.00  0.00    +0.000 A 
ATOM     22  C   UNL     1      -0.156  10.863  20.470  0.00  0.00    +0.000 A 
ATOM     23  C   UNL     1      -1.290  11.213  19.717  0.00  0.00    +0.000 A 
ATOM     24  C   UNL     1      -1.354  10.812  18.369  0.00  0.00    +0.000 A 
ATOM     25  C   UNL     1      -0.321   9.988  17.858  0.00  0.00    +0.000 A 
BRANCH  23  26
ATOM     26  O   UNL     1      -2.168  11.969  20.446  0.00  0.00    +0.000 OA
BRANCH  26  27
ATOM     27  C   UNL     1      -1.920  12.236  21.817  0.00  0.00    +0.000 C 
ATOM     28  C   UNL     1      -3.210  12.636  22.509  0.00  0.00    +0.000 C 
ENDBRANCH  26  27
ENDBRANCH  23  26
BRANCH  24  29
ATOM     29  C   UNL     1      -2.401  11.224  17.363  0.00  0.00    +0.000 C 
BRANCH  29  30
ATOM     30  O   UNL     1      -2.141  10.657  16.085  0.00  0.00    +0.000 OA
ATOM     31  H   UNL     1      -2.362  11.327  15.423  0.00  0.00    +0.000 HD
ENDBRANCH  29  30
ENDBRANCH  24  29
ENDBRANCH  19  20
ENDBRANCH   5  19
TORSDOF 11
ENDMDL
