MODEL 1
REMARK VINA RESULT:      -8.8      0.000      0.000
REMARK  Name = 
REMARK  6 active torsions:
REMARK  status: ('A' for Active; 'I' for Inactive)
REMARK    1  A    between atoms: C_1  and  C_2
REMARK    2  A    between atoms: C_2  and  N_3
REMARK    3  A    between atoms: C_11  and  S_12
REMARK    4  A    between atoms: S_12  and  N_15
REMARK    5  A    between atoms: N_15  and  C_16
REMARK    6  A    between atoms: C_25  and  C_26
REMARK                            x       y       z     vdW  Elec       q    Type
REMARK                         _______ _______ _______ _____ _____    ______ ____
ROOT
ATOM      1  S   UNL     1       0.893   8.876  20.827  0.00  0.00    +0.000 S 
ATOM      2  O   UNL     1      -0.411   8.292  21.056  0.00  0.00    +0.000 OA
ATOM      3  O   UNL     1       1.736   9.205  21.962  0.00  0.00    +0.000 OA
ENDROOT
BRANCH   1  12
ATOM      4  N   UNL     1       4.104   5.460  17.218  0.00  0.00    +0.000 N 
ATOM      5  C   UNL     1       3.930   4.186  17.796  0.00  0.00    +0.000 C 
ATOM      6  O   UNL     1       4.397   3.134  17.380  0.00  0.00    +0.000 OA
ATOM      7  C   UNL     1       3.107   4.474  18.953  0.00  0.00    +0.000 A 
ATOM      8  C   UNL     1       2.646   3.616  19.943  0.00  0.00    +0.000 A 
ATOM      9  C   UNL     1       1.896   4.195  20.976  0.00  0.00    +0.000 A 
ATOM     10  C   UNL     1       1.604   5.576  20.993  0.00  0.00    +0.000 A 
ATOM     11  C   UNL     1       2.044   6.449  19.959  0.00  0.00    +0.000 A 
ATOM     12  C   UNL     1       1.849   7.847  19.729  0.00  0.00    +0.000 A 
ATOM     13  C   UNL     1       2.451   8.495  18.617  0.00  0.00    +0.000 A 
ATOM     14  C   UNL     1       3.248   7.798  17.691  0.00  0.00    +0.000 A 
ATOM     15  C   UNL     1       3.397   6.442  17.919  0.00  0.00    +0.000 A 
ATOM     16  C   UNL     1       2.800   5.826  18.999  0.00  0.00    +0.000 A 
BRANCH   4  18
ATOM     17  C   UNL     1       6.392   5.930  16.433  0.00  0.00    +0.000 C 
ATOM     18  C   UNL     1       4.944   5.668  16.060  0.00  0.00    +0.000 C 
ENDBRANCH   4  18
ENDBRANCH   1  12
BRANCH   1  19
ATOM     19  N   UNL     1       0.688  10.345  19.979  0.00  0.00    +0.000 N 
ATOM     20  H   UNL     1       1.052  11.089  20.580  0.00  0.00    +0.000 HD
BRANCH  19  21
ATOM     21  C   UNL     1      -0.621  10.608  19.480  0.00  0.00    +0.000 A 
ATOM     22  C   UNL     1      -1.452  11.479  20.196  0.00  0.00    +0.000 A 
ATOM     23  C   UNL     1      -2.687  11.870  19.670  0.00  0.00    +0.000 A 
ATOM     24  C   UNL     1      -3.064  11.381  18.430  0.00  0.00    +0.000 A 
ATOM     25  C   UNL     1      -2.240  10.494  17.735  0.00  0.00    +0.000 A 
ATOM     26  C   UNL     1      -1.022  10.083  18.252  0.00  0.00    +0.000 A 
ATOM     27  C   UNL     1      -2.854  10.079  16.438  0.00  0.00    +0.000 C 
ATOM     28  C   UNL     1      -4.079  10.999  16.365  0.00  0.00    +0.000 C 
ATOM     29  N   UNL     1      -4.222  11.659  17.676  0.00  0.00    +0.000 N 
ATOM     30  C   UNL     1      -5.258  12.476  18.084  0.00  0.00    +0.000 C 
ATOM     31  C   UNL     1      -6.393  12.694  17.110  0.00  0.00    +0.000 C 
ATOM     32  O   UNL     1      -5.329  13.022  19.186  0.00  0.00    +0.000 OA
ENDBRANCH  19  21
ENDBRANCH   1  19
TORSDOF 4
ENDMDL
MODEL 2
REMARK VINA RESULT:      -8.7      0.836      1.595
REMARK  Name = 
REMARK  6 active torsions:
REMARK  status: ('A' for Active; 'I' for Inactive)
REMARK    1  A    between atoms: C_1  and  C_2
REMARK    2  A    between atoms: C_2  and  N_3
REMARK    3  A    between atoms: C_11  and  S_12
REMARK    4  A    between atoms: S_12  and  N_15
REMARK    5  A    between atoms: N_15  and  C_16
REMARK    6  A    between atoms: C_25  and  C_26
REMARK                            x       y       z     vdW  Elec       q    Type
REMARK                         _______ _______ _______ _____ _____    ______ ____
ROOT
ATOM      1  S   UNL     1       0.946   8.816  20.820  0.00  0.00    +0.000 S 
ATOM      2  O   UNL     1      -0.427   8.366  20.906  0.00  0.00    +0.000 OA
ATOM      3  O   UNL     1       1.722   8.974  22.035  0.00  0.00    +0.000 OA
ENDROOT
BRANCH   1  12
ATOM      4  N   UNL     1       4.069   5.320  17.211  0.00  0.00    +0.000 N 
ATOM      5  C   UNL     1       3.878   4.053  17.801  0.00  0.00    +0.000 C 
ATOM      6  O   UNL     1       4.323   2.990  17.388  0.00  0.00    +0.000 OA
ATOM      7  C   UNL     1       3.068   4.364  18.961  0.00  0.00    +0.000 A 
ATOM      8  C   UNL     1       2.601   3.521  19.961  0.00  0.00    +0.000 A 
ATOM      9  C   UNL     1       1.869   4.120  20.995  0.00  0.00    +0.000 A 
ATOM     10  C   UNL     1       1.600   5.506  21.004  0.00  0.00    +0.000 A 
ATOM     11  C   UNL     1       2.048   6.364  19.961  0.00  0.00    +0.000 A 
ATOM     12  C   UNL     1       1.875   7.763  19.721  0.00  0.00    +0.000 A 
ATOM     13  C   UNL     1       2.479   8.392  18.601  0.00  0.00    +0.000 A 
ATOM     14  C   UNL     1       3.258   7.675  17.673  0.00  0.00    +0.000 A 
ATOM     15  C   UNL     1       3.385   6.318  17.911  0.00  0.00    +0.000 A 
ATOM     16  C   UNL     1       2.786   5.721  18.999  0.00  0.00    +0.000 A 
BRANCH   4  18
ATOM     17  C   UNL     1       6.346   5.810  16.407  0.00  0.00    +0.000 C 
ATOM     18  C   UNL     1       4.904   5.504  16.046  0.00  0.00    +0.000 C 
ENDBRANCH   4  18
ENDBRANCH   1  12
BRANCH   1  19
ATOM     19  N   UNL     1       0.966  10.352  20.071  0.00  0.00    +0.000 N 
ATOM     20  H   UNL     1       1.419  10.996  20.724  0.00  0.00    +0.000 HD
BRANCH  19  21
ATOM     21  C   UNL     1      -0.283  10.830  19.577  0.00  0.00    +0.000 A 
ATOM     22  C   UNL     1      -0.738  10.364  18.337  0.00  0.00    +0.000 A 
ATOM     23  C   UNL     1      -2.017  10.698  17.883  0.00  0.00    +0.000 A 
ATOM     24  C   UNL     1      -2.820  11.493  18.686  0.00  0.00    +0.000 A 
ATOM     25  C   UNL     1      -2.349  11.971  19.909  0.00  0.00    +0.000 A 
ATOM     26  C   UNL     1      -1.077  11.663  20.365  0.00  0.00    +0.000 A 
ATOM     27  C   UNL     1      -3.368  12.822  20.593  0.00  0.00    +0.000 C 
ATOM     28  C   UNL     1      -4.593  12.625  19.691  0.00  0.00    +0.000 C 
ATOM     29  N   UNL     1      -4.145  11.922  18.474  0.00  0.00    +0.000 N 
ATOM     30  C   UNL     1      -4.899  11.650  17.349  0.00  0.00    +0.000 C 
ATOM     31  C   UNL     1      -6.323  12.155  17.332  0.00  0.00    +0.000 C 
ATOM     32  O   UNL     1      -4.488  11.043  16.360  0.00  0.00    +0.000 OA
ENDBRANCH  19  21
ENDBRANCH   1  19
TORSDOF 4
ENDMDL
MODEL 3
REMARK VINA RESULT:      -8.4      3.024      4.902
REMARK  Name = 
REMARK  6 active torsions:
REMARK  status: ('A' for Active; 'I' for Inactive)
REMARK    1  A    between atoms: C_1  and  C_2
REMARK    2  A    between atoms: C_2  and  N_3
REMARK    3  A    between atoms: C_11  and  S_12
REMARK    4  A    between atoms: S_12  and  N_15
REMARK    5  A    between atoms: N_15  and  C_16
REMARK    6  A    between atoms: C_25  and  C_26
REMARK                            x       y       z     vdW  Elec       q    Type
REMARK                         _______ _______ _______ _____ _____    ______ ____
ROOT
ATOM      1  S   UNL     1       2.555   3.838  19.992  0.00  0.00    +0.000 S 
ATOM      2  O   UNL     1       1.138   3.795  19.706  0.00  0.00    +0.000 OA
ATOM      3  O   UNL     1       3.163   2.760  20.749  0.00  0.00    +0.000 OA
ENDROOT
BRANCH   1  12
ATOM      4  N   UNL     1       5.636   4.514  14.985  0.00  0.00    +0.000 N 
ATOM      5  C   UNL     1       6.869   4.998  15.469  0.00  0.00    +0.000 C 
ATOM      6  O   UNL     1       7.853   5.270  14.794  0.00  0.00    +0.000 OA
ATOM      7  C   UNL     1       6.636   5.084  16.897  0.00  0.00    +0.000 A 
ATOM      8  C   UNL     1       7.478   5.545  17.901  0.00  0.00    +0.000 A 
ATOM      9  C   UNL     1       6.958   5.551  19.202  0.00  0.00    +0.000 A 
ATOM     10  C   UNL     1       5.653   5.087  19.479  0.00  0.00    +0.000 A 
ATOM     11  C   UNL     1       4.804   4.580  18.456  0.00  0.00    +0.000 A 
ATOM     12  C   UNL     1       3.486   4.026  18.482  0.00  0.00    +0.000 A 
ATOM     13  C   UNL     1       2.836   3.630  17.284  0.00  0.00    +0.000 A 
ATOM     14  C   UNL     1       3.455   3.751  16.025  0.00  0.00    +0.000 A 
ATOM     15  C   UNL     1       4.740   4.262  16.029  0.00  0.00    +0.000 A 
ATOM     16  C   UNL     1       5.361   4.634  17.203  0.00  0.00    +0.000 A 
BRANCH   4  18
ATOM     17  C   UNL     1       6.245   3.270  12.948  0.00  0.00    +0.000 C 
ATOM     18  C   UNL     1       5.379   4.347  13.573  0.00  0.00    +0.000 C 
ENDBRANCH   4  18
ENDBRANCH   1  12
BRANCH   1  19
ATOM     19  N   UNL     1       2.886   5.256  20.887  0.00  0.00    +0.000 N 
ATOM     20  H   UNL     1       2.724   5.031  21.871  0.00  0.00    +0.000 HD
BRANCH  19  21
ATOM     21  C   UNL     1       2.220   6.441  20.458  0.00  0.00    +0.000 A 
ATOM     22  C   UNL     1       1.332   7.070  21.340  0.00  0.00    +0.000 A 
ATOM     23  C   UNL     1       0.767   8.306  21.012  0.00  0.00    +0.000 A 
ATOM     24  C   UNL     1       1.108   8.892  19.803  0.00  0.00    +0.000 A 
ATOM     25  C   UNL     1       1.976   8.246  18.921  0.00  0.00    +0.000 A 
ATOM     26  C   UNL     1       2.530   7.012  19.224  0.00  0.00    +0.000 A 
ATOM     27  C   UNL     1       2.184   9.044  17.676  0.00  0.00    +0.000 C 
ATOM     28  C   UNL     1       1.468  10.355  18.024  0.00  0.00    +0.000 C 
ATOM     29  N   UNL     1       0.715  10.137  19.273  0.00  0.00    +0.000 N 
ATOM     30  C   UNL     1      -0.162  11.017  19.877  0.00  0.00    +0.000 C 
ATOM     31  C   UNL     1      -0.418  12.330  19.175  0.00  0.00    +0.000 C 
ATOM     32  O   UNL     1      -0.758  10.799  20.933  0.00  0.00    +0.000 OA
ENDBRANCH  19  21
ENDBRANCH   1  19
TORSDOF 4
ENDMDL
MODEL 4
REMARK VINA RESULT:      -8.2      1.872      9.204
REMARK  Name = 
REMARK  6 active torsions:
REMARK  status: ('A' for Active; 'I' for Inactive)
REMARK    1  A    between atoms: C_1  and  C_2
REMARK    2  A    between atoms: C_2  and  N_3
REMARK    3  A    between atoms: C_11  and  S_12
REMARK    4  A    between atoms: S_12  and  N_15
REMARK    5  A    between atoms: N_15  and  C_16
REMARK    6  A    between atoms: C_25  and  C_26
REMARK                            x       y       z     vdW  Elec       q    Type
REMARK                         _______ _______ _______ _____ _____    ______ ____
ROOT
ATOM      1  S   UNL     1       1.027   9.814  18.431  0.00  0.00    +0.000 S 
ATOM      2  O   UNL     1       0.707   8.842  17.408  0.00  0.00    +0.000 OA
ATOM      3  O   UNL     1       2.058  10.803  18.177  0.00  0.00    +0.000 OA
ENDROOT
BRANCH   1  12
ATOM      4  N   UNL     1      -3.840  12.749  20.076  0.00  0.00    +0.000 N 
ATOM      5  C   UNL     1      -4.750  12.391  19.059  0.00  0.00    +0.000 C 
ATOM      6  O   UNL     1      -5.919  12.744  18.980  0.00  0.00    +0.000 OA
ATOM      7  C   UNL     1      -3.943  11.554  18.194  0.00  0.00    +0.000 A 
ATOM      8  C   UNL     1      -4.281  10.944  16.993  0.00  0.00    +0.000 A 
ATOM      9  C   UNL     1      -3.267  10.223  16.349  0.00  0.00    +0.000 A 
ATOM     10  C   UNL     1      -1.975  10.102  16.907  0.00  0.00    +0.000 A 
ATOM     11  C   UNL     1      -1.640  10.697  18.156  0.00  0.00    +0.000 A 
ATOM     12  C   UNL     1      -0.443  10.688  18.938  0.00  0.00    +0.000 A 
ATOM     13  C   UNL     1      -0.358  11.417  20.153  0.00  0.00    +0.000 A 
ATOM     14  C   UNL     1      -1.441  12.167  20.649  0.00  0.00    +0.000 A 
ATOM     15  C   UNL     1      -2.597  12.136  19.890  0.00  0.00    +0.000 A 
ATOM     16  C   UNL     1      -2.666  11.416  18.716  0.00  0.00    +0.000 A 
BRANCH   4  18
ATOM     17  C   UNL     1      -4.758  12.951  22.353  0.00  0.00    +0.000 C 
ATOM     18  C   UNL     1      -4.197  13.663  21.136  0.00  0.00    +0.000 C 
ENDBRANCH   4  18
ENDBRANCH   1  12
BRANCH   1  19
ATOM     19  N   UNL     1       1.542   8.978  19.830  0.00  0.00    +0.000 N 
ATOM     20  H   UNL     1       2.182   9.599  20.330  0.00  0.00    +0.000 HD
BRANCH  19  21
ATOM     21  C   UNL     1       2.065   7.668  19.625  0.00  0.00    +0.000 A 
ATOM     22  C   UNL     1       1.631   6.632  20.463  0.00  0.00    +0.000 A 
ATOM     23  C   UNL     1       2.012   5.312  20.208  0.00  0.00    +0.000 A 
ATOM     24  C   UNL     1       2.819   5.053  19.111  0.00  0.00    +0.000 A 
ATOM     25  C   UNL     1       3.265   6.095  18.296  0.00  0.00    +0.000 A 
ATOM     26  C   UNL     1       2.911   7.412  18.547  0.00  0.00    +0.000 A 
ATOM     27  C   UNL     1       4.137   5.592  17.194  0.00  0.00    +0.000 C 
ATOM     28  C   UNL     1       3.992   4.073  17.351  0.00  0.00    +0.000 C 
ATOM     29  N   UNL     1       3.293   3.819  18.624  0.00  0.00    +0.000 N 
ATOM     30  C   UNL     1       3.061   2.591  19.212  0.00  0.00    +0.000 C 
ATOM     31  C   UNL     1       3.610   1.372  18.507  0.00  0.00    +0.000 C 
ATOM     32  O   UNL     1       2.456   2.423  20.271  0.00  0.00    +0.000 OA
ENDBRANCH  19  21
ENDBRANCH   1  19
TORSDOF 4
ENDMDL
MODEL 5
REMARK VINA RESULT:      -8.1      1.222      2.863
REMARK  Name = 
REMARK  6 active torsions:
REMARK  status: ('A' for Active; 'I' for Inactive)
REMARK    1  A    between atoms: C_1  and  C_2
REMARK    2  A    between atoms: C_2  and  N_3
REMARK    3  A    between atoms: C_11  and  S_12
REMARK    4  A    between atoms: S_12  and  N_15
REMARK    5  A    between atoms: N_15  and  C_16
REMARK    6  A    between atoms: C_25  and  C_26
REMARK                            x       y       z     vdW  Elec       q    Type
REMARK                         _______ _______ _______ _____ _____    ______ ____
ROOT
ATOM      1  S   UNL     1       0.938   8.562  20.948  0.00  0.00    +0.000 S 
ATOM      2  O   UNL     1      -0.469   8.308  21.171  0.00  0.00    +0.000 OA
ATOM      3  O   UNL     1       1.752   9.068  22.037  0.00  0.00    +0.000 OA
ENDROOT
BRANCH   1  12
ATOM      4  N   UNL     1       3.557   3.708  18.805  0.00  0.00    +0.000 N 
ATOM      5  C   UNL     1       4.266   4.226  17.702  0.00  0.00    +0.000 C 
ATOM      6  O   UNL     1       4.989   3.592  16.946  0.00  0.00    +0.000 OA
ATOM      7  C   UNL     1       3.899   5.628  17.721  0.00  0.00    +0.000 A 
ATOM      8  C   UNL     1       4.252   6.644  16.842  0.00  0.00    +0.000 A 
ATOM      9  C   UNL     1       3.702   7.908  17.091  0.00  0.00    +0.000 A 
ATOM     10  C   UNL     1       2.855   8.142  18.197  0.00  0.00    +0.000 A 
ATOM     11  C   UNL     1       2.524   7.110  19.119  0.00  0.00    +0.000 A 
ATOM     12  C   UNL     1       1.738   7.099  20.314  0.00  0.00    +0.000 A 
ATOM     13  C   UNL     1       1.526   5.897  21.038  0.00  0.00    +0.000 A 
ATOM     14  C   UNL     1       2.083   4.671  20.627  0.00  0.00    +0.000 A 
ATOM     15  C   UNL     1       2.863   4.713  19.485  0.00  0.00    +0.000 A 
ATOM     16  C   UNL     1       3.066   5.891  18.798  0.00  0.00    +0.000 A 
BRANCH   4  18
ATOM     17  C   UNL     1       4.574   1.951  20.201  0.00  0.00    +0.000 C 
ATOM     18  C   UNL     1       3.562   2.299  19.126  0.00  0.00    +0.000 C 
ENDBRANCH   4  18
ENDBRANCH   1  12
BRANCH   1  19
ATOM     19  N   UNL     1       1.090   9.718  19.699  0.00  0.00    +0.000 N 
ATOM     20  H   UNL     1       1.801  10.389  19.998  0.00  0.00    +0.000 HD
BRANCH  19  21
ATOM     21  C   UNL     1      -0.119  10.330  19.257  0.00  0.00    +0.000 A 
ATOM     22  C   UNL     1      -0.664   9.933  18.029  0.00  0.00    +0.000 A 
ATOM     23  C   UNL     1      -1.917  10.406  17.626  0.00  0.00    +0.000 A 
ATOM     24  C   UNL     1      -2.603  11.268  18.467  0.00  0.00    +0.000 A 
ATOM     25  C   UNL     1      -2.041  11.676  19.677  0.00  0.00    +0.000 A 
ATOM     26  C   UNL     1      -0.792  11.231  20.082  0.00  0.00    +0.000 A 
ATOM     27  C   UNL     1      -2.940  12.619  20.407  0.00  0.00    +0.000 C 
ATOM     28  C   UNL     1      -4.210  12.564  19.549  0.00  0.00    +0.000 C 
ATOM     29  N   UNL     1      -3.882  11.837  18.309  0.00  0.00    +0.000 N 
ATOM     30  C   UNL     1      -4.700  11.661  17.210  0.00  0.00    +0.000 C 
ATOM     31  C   UNL     1      -6.063  12.312  17.251  0.00  0.00    +0.000 C 
ATOM     32  O   UNL     1      -4.390  11.029  16.199  0.00  0.00    +0.000 OA
ENDBRANCH  19  21
ENDBRANCH   1  19
TORSDOF 4
ENDMDL
MODEL 6
REMARK VINA RESULT:      -7.9      1.869      9.258
REMARK  Name = 
REMARK  6 active torsions:
REMARK  status: ('A' for Active; 'I' for Inactive)
REMARK    1  A    between atoms: C_1  and  C_2
REMARK    2  A    between atoms: C_2  and  N_3
REMARK    3  A    between atoms: C_11  and  S_12
REMARK    4  A    between atoms: S_12  and  N_15
REMARK    5  A    between atoms: N_15  and  C_16
REMARK    6  A    between atoms: C_25  and  C_26
REMARK                            x       y       z     vdW  Elec       q    Type
REMARK                         _______ _______ _______ _____ _____    ______ ____
ROOT
ATOM      1  S   UNL     1       1.198   9.808  18.407  0.00  0.00    +0.000 S 
ATOM      2  O   UNL     1       0.823   8.894  17.350  0.00  0.00    +0.000 OA
ATOM      3  O   UNL     1       2.245  10.784  18.168  0.00  0.00    +0.000 OA
ENDROOT
BRANCH   1  12
ATOM      4  N   UNL     1      -3.545  12.770  20.339  0.00  0.00    +0.000 N 
ATOM      5  C   UNL     1      -4.520  12.406  19.387  0.00  0.00    +0.000 C 
ATOM      6  O   UNL     1      -5.691  12.761  19.381  0.00  0.00    +0.000 OA
ATOM      7  C   UNL     1      -3.773  11.560  18.479  0.00  0.00    +0.000 A 
ATOM      8  C   UNL     1      -4.189  10.939  17.307  0.00  0.00    +0.000 A 
ATOM      9  C   UNL     1      -3.221  10.210  16.606  0.00  0.00    +0.000 A 
ATOM     10  C   UNL     1      -1.896  10.091  17.080  0.00  0.00    +0.000 A 
ATOM     11  C   UNL     1      -1.479  10.695  18.299  0.00  0.00    +0.000 A 
ATOM     12  C   UNL     1      -0.233  10.690  19.001  0.00  0.00    +0.000 A 
ATOM     13  C   UNL     1      -0.069  11.430  20.201  0.00  0.00    +0.000 A 
ATOM     14  C   UNL     1      -1.116  12.187  20.760  0.00  0.00    +0.000 A 
ATOM     15  C   UNL     1      -2.318  12.152  20.078  0.00  0.00    +0.000 A 
ATOM     16  C   UNL     1      -2.465  11.422  18.918  0.00  0.00    +0.000 A 
BRANCH   4  18
ATOM     17  C   UNL     1      -4.464  13.015  22.612  0.00  0.00    +0.000 C 
ATOM     18  C   UNL     1      -3.830  13.695  21.412  0.00  0.00    +0.000 C 
ENDBRANCH   4  18
ENDBRANCH   1  12
BRANCH   1  19
ATOM     19  N   UNL     1       1.734   8.894  19.748  0.00  0.00    +0.000 N 
ATOM     20  H   UNL     1       2.548   9.379  20.134  0.00  0.00    +0.000 HD
BRANCH  19  21
ATOM     21  C   UNL     1       1.958   7.505  19.516  0.00  0.00    +0.000 A 
ATOM     22  C   UNL     1       2.642   7.119  18.357  0.00  0.00    +0.000 A 
ATOM     23  C   UNL     1       3.002   5.783  18.161  0.00  0.00    +0.000 A 
ATOM     24  C   UNL     1       2.672   4.857  19.138  0.00  0.00    +0.000 A 
ATOM     25  C   UNL     1       1.970   5.247  20.279  0.00  0.00    +0.000 A 
ATOM     26  C   UNL     1       1.589   6.565  20.478  0.00  0.00    +0.000 A 
ATOM     27  C   UNL     1       1.703   4.088  21.181  0.00  0.00    +0.000 C 
ATOM     28  C   UNL     1       2.518   2.976  20.508  0.00  0.00    +0.000 C 
ATOM     29  N   UNL     1       2.962   3.479  19.195  0.00  0.00    +0.000 N 
ATOM     30  C   UNL     1       3.621   2.764  18.213  0.00  0.00    +0.000 C 
ATOM     31  C   UNL     1       3.885   1.301  18.482  0.00  0.00    +0.000 C 
ATOM     32  O   UNL     1       3.989   3.231  17.134  0.00  0.00    +0.000 OA
ENDBRANCH  19  21
ENDBRANCH   1  19
TORSDOF 4
ENDMDL
MODEL 7
REMARK VINA RESULT:      -7.9      0.886      2.391
REMARK  Name = 
REMARK  6 active torsions:
REMARK  status: ('A' for Active; 'I' for Inactive)
REMARK    1  A    between atoms: C_1  and  C_2
REMARK    2  A    between atoms: C_2  and  N_3
REMARK    3  A    between atoms: C_11  and  S_12
REMARK    4  A    between atoms: S_12  and  N_15
REMARK    5  A    between atoms: N_15  and  C_16
REMARK    6  A    between atoms: C_25  and  C_26
REMARK                            x       y       z     vdW  Elec       q    Type
REMARK                         _______ _______ _______ _____ _____    ______ ____
ROOT
ATOM      1  S   UNL     1       0.878   8.788  21.084  0.00  0.00    +0.000 S 
ATOM      2  O   UNL     1      -0.478   8.504  21.500  0.00  0.00    +0.000 OA
ATOM      3  O   UNL     1       1.808   9.370  22.034  0.00  0.00    +0.000 OA
ENDROOT
BRANCH   1  12
ATOM      4  N   UNL     1       3.373   3.922  18.825  0.00  0.00    +0.000 N 
ATOM      5  C   UNL     1       4.074   4.444  17.718  0.00  0.00    +0.000 C 
ATOM      6  O   UNL     1       4.774   3.808  16.941  0.00  0.00    +0.000 OA
ATOM      7  C   UNL     1       3.734   5.852  17.766  0.00  0.00    +0.000 A 
ATOM      8  C   UNL     1       4.091   6.875  16.896  0.00  0.00    +0.000 A 
ATOM      9  C   UNL     1       3.569   8.145  17.174  0.00  0.00    +0.000 A 
ATOM     10  C   UNL     1       2.743   8.376  18.296  0.00  0.00    +0.000 A 
ATOM     11  C   UNL     1       2.408   7.336  19.208  0.00  0.00    +0.000 A 
ATOM     12  C   UNL     1       1.641   7.322  20.415  0.00  0.00    +0.000 A 
ATOM     13  C   UNL     1       1.419   6.112  21.124  0.00  0.00    +0.000 A 
ATOM     14  C   UNL     1       1.946   4.883  20.685  0.00  0.00    +0.000 A 
ATOM     15  C   UNL     1       2.709   4.928  19.532  0.00  0.00    +0.000 A 
ATOM     16  C   UNL     1       2.923   6.113  18.859  0.00  0.00    +0.000 A 
BRANCH   4  18
ATOM     17  C   UNL     1       4.420   2.116  20.134  0.00  0.00    +0.000 C 
ATOM     18  C   UNL     1       3.357   2.508  19.124  0.00  0.00    +0.000 C 
ENDBRANCH   4  18
ENDBRANCH   1  12
BRANCH   1  19
ATOM     19  N   UNL     1       0.825   9.887  19.776  0.00  0.00    +0.000 N 
ATOM     20  H   UNL     1       1.389  10.697  20.045  0.00  0.00    +0.000 HD
BRANCH  19  21
ATOM     21  C   UNL     1      -0.472  10.232  19.295  0.00  0.00    +0.000 A 
ATOM     22  C   UNL     1      -1.258  11.110  20.052  0.00  0.00    +0.000 A 
ATOM     23  C   UNL     1      -2.475  11.580  19.548  0.00  0.00    +0.000 A 
ATOM     24  C   UNL     1      -2.878  11.163  18.290  0.00  0.00    +0.000 A 
ATOM     25  C   UNL     1      -2.099  10.270  17.554  0.00  0.00    +0.000 A 
ATOM     26  C   UNL     1      -0.899   9.780  18.047  0.00  0.00    +0.000 A 
ATOM     27  C   UNL     1      -2.734   9.941  16.243  0.00  0.00    +0.000 C 
ATOM     28  C   UNL     1      -3.915  10.919  16.216  0.00  0.00    +0.000 C 
ATOM     29  N   UNL     1      -4.023  11.528  17.555  0.00  0.00    +0.000 N 
ATOM     30  C   UNL     1      -5.019  12.374  18.002  0.00  0.00    +0.000 C 
ATOM     31  C   UNL     1      -6.144  12.687  17.043  0.00  0.00    +0.000 C 
ATOM     32  O   UNL     1      -5.061  12.875  19.127  0.00  0.00    +0.000 OA
ENDBRANCH  19  21
ENDBRANCH   1  19
TORSDOF 4
ENDMDL
MODEL 8
REMARK VINA RESULT:      -7.9      1.513      2.114
REMARK  Name = 
REMARK  6 active torsions:
REMARK  status: ('A' for Active; 'I' for Inactive)
REMARK    1  A    between atoms: C_1  and  C_2
REMARK    2  A    between atoms: C_2  and  N_3
REMARK    3  A    between atoms: C_11  and  S_12
REMARK    4  A    between atoms: S_12  and  N_15
REMARK    5  A    between atoms: N_15  and  C_16
REMARK    6  A    between atoms: C_25  and  C_26
REMARK                            x       y       z     vdW  Elec       q    Type
REMARK                         _______ _______ _______ _____ _____    ______ ____
ROOT
ATOM      1  S   UNL     1       1.389   9.556  18.738  0.00  0.00    +0.000 S 
ATOM      2  O   UNL     1       0.780   9.504  20.049  0.00  0.00    +0.000 OA
ATOM      3  O   UNL     1       2.178  10.714  18.363  0.00  0.00    +0.000 OA
ENDROOT
BRANCH   1  12
ATOM      4  N   UNL     1       4.757   4.768  17.874  0.00  0.00    +0.000 N 
ATOM      5  C   UNL     1       4.254   3.883  18.851  0.00  0.00    +0.000 C 
ATOM      6  O   UNL     1       4.631   2.735  19.046  0.00  0.00    +0.000 OA
ATOM      7  C   UNL     1       3.244   4.683  19.513  0.00  0.00    +0.000 A 
ATOM      8  C   UNL     1       2.438   4.364  20.598  0.00  0.00    +0.000 A 
ATOM      9  C   UNL     1       1.574   5.367  21.054  0.00  0.00    +0.000 A 
ATOM     10  C   UNL     1       1.508   6.630  20.424  0.00  0.00    +0.000 A 
ATOM     11  C   UNL     1       2.307   6.944  19.289  0.00  0.00    +0.000 A 
ATOM     12  C   UNL     1       2.395   8.109  18.465  0.00  0.00    +0.000 A 
ATOM     13  C   UNL     1       3.330   8.180  17.398  0.00  0.00    +0.000 A 
ATOM     14  C   UNL     1       4.198   7.114  17.096  0.00  0.00    +0.000 A 
ATOM     15  C   UNL     1       4.073   5.988  17.890  0.00  0.00    +0.000 A 
ATOM     16  C   UNL     1       3.154   5.932  18.916  0.00  0.00    +0.000 A 
BRANCH   4  18
ATOM     17  C   UNL     1       7.205   4.799  17.605  0.00  0.00    +0.000 C 
ATOM     18  C   UNL     1       5.862   4.413  17.014  0.00  0.00    +0.000 C 
ENDBRANCH   4  18
ENDBRANCH   1  12
BRANCH   1  19
ATOM     19  N   UNL     1       0.153   9.455  17.562  0.00  0.00    +0.000 N 
ATOM     20  H   UNL     1       0.576   9.698  16.663  0.00  0.00    +0.000 HD
BRANCH  19  21
ATOM     21  C   UNL     1      -1.043  10.178  17.841  0.00  0.00    +0.000 A 
ATOM     22  C   UNL     1      -2.237   9.764  17.235  0.00  0.00    +0.000 A 
ATOM     23  C   UNL     1      -3.452  10.358  17.589  0.00  0.00    +0.000 A 
ATOM     24  C   UNL     1      -3.448  11.356  18.550  0.00  0.00    +0.000 A 
ATOM     25  C   UNL     1      -2.250  11.778  19.131  0.00  0.00    +0.000 A 
ATOM     26  C   UNL     1      -1.036  11.212  18.777  0.00  0.00    +0.000 A 
ATOM     27  C   UNL     1      -2.478  12.874  20.119  0.00  0.00    +0.000 C 
ATOM     28  C   UNL     1      -4.010  12.915  20.190  0.00  0.00    +0.000 C 
ATOM     29  N   UNL     1      -4.531  12.066  19.104  0.00  0.00    +0.000 N 
ATOM     30  C   UNL     1      -5.854  11.914  18.732  0.00  0.00    +0.000 C 
ATOM     31  C   UNL     1      -6.881  12.730  19.482  0.00  0.00    +0.000 C 
ATOM     32  O   UNL     1      -6.247  11.178  17.827  0.00  0.00    +0.000 OA
ENDBRANCH  19  21
ENDBRANCH   1  19
TORSDOF 4
ENDMDL
MODEL 9
REMARK VINA RESULT:      -7.8      1.612      2.502
REMARK  Name = 
REMARK  6 active torsions:
REMARK  status: ('A' for Active; 'I' for Inactive)
REMARK    1  A    between atoms: C_1  and  C_2
REMARK    2  A    between atoms: C_2  and  N_3
REMARK    3  A    between atoms: C_11  and  S_12
REMARK    4  A    between atoms: S_12  and  N_15
REMARK    5  A    between atoms: N_15  and  C_16
REMARK    6  A    between atoms: C_25  and  C_26
REMARK                            x       y       z     vdW  Elec       q    Type
REMARK                         _______ _______ _______ _____ _____    ______ ____
ROOT
ATOM      1  S   UNL     1       0.870   8.795  20.967  0.00  0.00    +0.000 S 
ATOM      2  O   UNL     1      -0.481   8.286  21.052  0.00  0.00    +0.000 OA
ATOM      3  O   UNL     1       1.653   8.944  22.180  0.00  0.00    +0.000 OA
ENDROOT
BRANCH   1  12
ATOM      4  N   UNL     1       4.095   5.557  17.209  0.00  0.00    +0.000 N 
ATOM      5  C   UNL     1       3.955   4.262  17.751  0.00  0.00    +0.000 C 
ATOM      6  O   UNL     1       4.436   3.233  17.295  0.00  0.00    +0.000 OA
ATOM      7  C   UNL     1       3.143   4.499  18.927  0.00  0.00    +0.000 A 
ATOM      8  C   UNL     1       2.714   3.601  19.897  0.00  0.00    +0.000 A 
ATOM      9  C   UNL     1       1.968   4.133  20.957  0.00  0.00    +0.000 A 
ATOM     10  C   UNL     1       1.648   5.507  21.021  0.00  0.00    +0.000 A 
ATOM     11  C   UNL     1       2.056   6.420  20.008  0.00  0.00    +0.000 A 
ATOM     12  C   UNL     1       1.830   7.820  19.824  0.00  0.00    +0.000 A 
ATOM     13  C   UNL     1       2.402   8.513  18.725  0.00  0.00    +0.000 A 
ATOM     14  C   UNL     1       3.200   7.861  17.766  0.00  0.00    +0.000 A 
ATOM     15  C   UNL     1       3.379   6.502  17.950  0.00  0.00    +0.000 A 
ATOM     16  C   UNL     1       2.810   5.842  19.019  0.00  0.00    +0.000 A 
BRANCH   4  18
ATOM     17  C   UNL     1       6.382   5.976  16.396  0.00  0.00    +0.000 C 
ATOM     18  C   UNL     1       4.914   5.817  16.047  0.00  0.00    +0.000 C 
ENDBRANCH   4  18
ENDBRANCH   1  12
BRANCH   1  19
ATOM     19  N   UNL     1       0.819  10.356  20.272  0.00  0.00    +0.000 N 
ATOM     20  H   UNL     1       1.683  10.831  20.543  0.00  0.00    +0.000 HD
BRANCH  19  21
ATOM     21  C   UNL     1      -0.355  11.122  20.529  0.00  0.00    +0.000 A 
ATOM     22  C   UNL     1      -1.244  11.364  19.475  0.00  0.00    +0.000 A 
ATOM     23  C   UNL     1      -2.471  11.990  19.714  0.00  0.00    +0.000 A 
ATOM     24  C   UNL     1      -2.786  12.358  21.013  0.00  0.00    +0.000 A 
ATOM     25  C   UNL     1      -1.883  12.133  22.054  0.00  0.00    +0.000 A 
ATOM     26  C   UNL     1      -0.656  11.531  21.829  0.00  0.00    +0.000 A 
ATOM     27  C   UNL     1      -2.418  12.628  23.357  0.00  0.00    +0.000 C 
ATOM     28  C   UNL     1      -3.856  13.006  22.981  0.00  0.00    +0.000 C 
ATOM     29  N   UNL     1      -3.963  12.951  21.511  0.00  0.00    +0.000 N 
ATOM     30  C   UNL     1      -5.047  13.332  20.744  0.00  0.00    +0.000 C 
ATOM     31  C   UNL     1      -6.242  13.904  21.471  0.00  0.00    +0.000 C 
ATOM     32  O   UNL     1      -5.100  13.252  19.516  0.00  0.00    +0.000 OA
ENDBRANCH  19  21
ENDBRANCH   1  19
TORSDOF 4
ENDMDL
