MODEL 1
REMARK VINA RESULT:      -8.6      0.000      0.000
REMARK  Name = 
REMARK  3 active torsions:
REMARK  status: ('A' for Active; 'I' for Inactive)
REMARK    1  A    between atoms: C_1  and  N_2
REMARK    2  A    between atoms: C_7  and  C_8
REMARK    3  A    between atoms: C_15  and  C_16
REMARK                            x       y       z     vdW  Elec       q    Type
REMARK                         _______ _______ _______ _____ _____    ______ ____
ROOT
ATOM      1  C   UNL     1       2.581   2.103  17.809  0.00  0.00    +0.000 C 
ATOM      2  N   UNL     1       2.536   2.186  19.253  0.00  0.00    +0.000 NA
ATOM      3  C   UNL     1       1.291   2.708  19.813  0.00  0.00    +0.000 C 
ATOM      4  C   UNL     1       1.593   2.485  21.292  0.00  0.00    +0.000 C 
ATOM      5  C   UNL     1       3.117   2.676  21.395  0.00  0.00    +0.000 C 
ATOM      6  C   UNL     1       3.598   2.928  19.941  0.00  0.00    +0.000 C 
ATOM      7  C   UNL     1       3.671   4.452  19.639  0.00  0.00    +0.000 C 
ATOM      8  C   UNL     1       2.258   5.112  19.893  0.00  0.00    +0.000 C 
ATOM      9  C   UNL     1       1.079   4.194  19.472  0.00  0.00    +0.000 C 
ENDROOT
BRANCH   7  10
ATOM     10  C   UNL     1       4.282   4.773  18.253  0.00  0.00    +0.000 C 
ATOM     11  O   UNL     1       3.585   4.682  17.243  0.00  0.00    +0.000 OA
ATOM     12  N   UNL     1       5.596   5.188  18.130  0.00  0.00    +0.000 N 
ATOM     13  C   UNL     1       6.673   5.266  19.098  0.00  0.00    +0.000 C 
ATOM     14  C   UNL     1       7.506   6.445  18.605  0.00  0.00    +0.000 C 
ATOM     15  C   UNL     1       7.313   6.462  17.089  0.00  0.00    +0.000 C 
ATOM     16  C   UNL     1       6.109   5.567  16.820  0.00  0.00    +0.000 C 
ENDBRANCH   7  10
BRANCH   8  17
ATOM     17  C   UNL     1       2.108   6.582  19.492  0.00  0.00    +0.000 A 
ATOM     18  C   UNL     1       2.366   7.052  18.189  0.00  0.00    +0.000 A 
ATOM     19  C   UNL     1       2.207   8.403  17.861  0.00  0.00    +0.000 A 
ATOM     20  C   UNL     1       1.785   9.304  18.829  0.00  0.00    +0.000 A 
ATOM     21 CL   UNL     1       1.617  10.971  18.438  0.00  0.00    +0.000 Cl
ATOM     22  C   UNL     1       1.498   8.862  20.118  0.00  0.00    +0.000 A 
ATOM     23  C   UNL     1       1.655   7.510  20.443  0.00  0.00    +0.000 A 
ENDBRANCH   8  17
TORSDOF 2
ENDMDL
MODEL 2
REMARK VINA RESULT:      -8.6      1.513      4.796
REMARK  Name = 
REMARK  3 active torsions:
REMARK  status: ('A' for Active; 'I' for Inactive)
REMARK    1  A    between atoms: C_1  and  N_2
REMARK    2  A    between atoms: C_7  and  C_8
REMARK    3  A    between atoms: C_15  and  C_16
REMARK                            x       y       z     vdW  Elec       q    Type
REMARK                         _______ _______ _______ _____ _____    ______ ____
ROOT
ATOM      1  C   UNL     1       7.417   4.369  17.940  0.00  0.00    +0.000 C 
ATOM      2  N   UNL     1       6.784   4.520  16.647  0.00  0.00    +0.000 NA
ATOM      3  C   UNL     1       6.659   5.895  16.168  0.00  0.00    +0.000 C 
ATOM      4  C   UNL     1       6.114   5.603  14.773  0.00  0.00    +0.000 C 
ATOM      5  C   UNL     1       5.275   4.325  14.960  0.00  0.00    +0.000 C 
ATOM      6  C   UNL     1       5.457   3.929  16.449  0.00  0.00    +0.000 C 
ATOM      7  C   UNL     1       4.310   4.518  17.320  0.00  0.00    +0.000 C 
ATOM      8  C   UNL     1       4.267   6.088  17.151  0.00  0.00    +0.000 C 
ATOM      9  C   UNL     1       5.680   6.721  17.022  0.00  0.00    +0.000 C 
ENDROOT
BRANCH   7  10
ATOM     10  C   UNL     1       4.354   4.040  18.793  0.00  0.00    +0.000 C 
ATOM     11  O   UNL     1       5.339   4.290  19.487  0.00  0.00    +0.000 OA
ATOM     12  N   UNL     1       3.290   3.356  19.353  0.00  0.00    +0.000 N 
ATOM     13  C   UNL     1       2.078   2.817  18.766  0.00  0.00    +0.000 C 
ATOM     14  C   UNL     1       1.060   2.923  19.897  0.00  0.00    +0.000 C 
ATOM     15  C   UNL     1       1.878   2.792  21.182  0.00  0.00    +0.000 C 
ATOM     16  C   UNL     1       3.329   3.001  20.766  0.00  0.00    +0.000 C 
ENDBRANCH   7  10
BRANCH   8  17
ATOM     17  C   UNL     1       3.300   6.848  18.062  0.00  0.00    +0.000 A 
ATOM     18  C   UNL     1       2.948   6.401  19.351  0.00  0.00    +0.000 A 
ATOM     19  C   UNL     1       2.067   7.130  20.156  0.00  0.00    +0.000 A 
ATOM     20  C   UNL     1       1.526   8.321  19.687  0.00  0.00    +0.000 A 
ATOM     21 CL   UNL     1       0.419   9.206  20.661  0.00  0.00    +0.000 Cl
ATOM     22  C   UNL     1       1.876   8.798  18.427  0.00  0.00    +0.000 A 
ATOM     23  C   UNL     1       2.760   8.069  17.624  0.00  0.00    +0.000 A 
ENDBRANCH   8  17
TORSDOF 2
ENDMDL
MODEL 3
REMARK VINA RESULT:      -8.3      0.139      1.013
REMARK  Name = 
REMARK  3 active torsions:
REMARK  status: ('A' for Active; 'I' for Inactive)
REMARK    1  A    between atoms: C_1  and  N_2
REMARK    2  A    between atoms: C_7  and  C_8
REMARK    3  A    between atoms: C_15  and  C_16
REMARK                            x       y       z     vdW  Elec       q    Type
REMARK                         _______ _______ _______ _____ _____    ______ ____
ROOT
ATOM      1  C   UNL     1       2.423   2.075  17.915  0.00  0.00    +0.000 C 
ATOM      2  N   UNL     1       2.418   2.163  19.360  0.00  0.00    +0.000 NA
ATOM      3  C   UNL     1       1.195   2.707  19.949  0.00  0.00    +0.000 C 
ATOM      4  C   UNL     1       1.533   2.484  21.421  0.00  0.00    +0.000 C 
ATOM      5  C   UNL     1       3.063   2.653  21.483  0.00  0.00    +0.000 C 
ATOM      6  C   UNL     1       3.509   2.891  20.016  0.00  0.00    +0.000 C 
ATOM      7  C   UNL     1       3.597   4.413  19.706  0.00  0.00    +0.000 C 
ATOM      8  C   UNL     1       2.201   5.096  19.994  0.00  0.00    +0.000 C 
ATOM      9  C   UNL     1       0.997   4.194  19.608  0.00  0.00    +0.000 C 
ENDROOT
BRANCH   7  10
ATOM     10  C   UNL     1       4.175   4.720  18.303  0.00  0.00    +0.000 C 
ATOM     11  O   UNL     1       3.452   4.630  17.311  0.00  0.00    +0.000 OA
ATOM     12  N   UNL     1       5.490   5.119  18.144  0.00  0.00    +0.000 N 
ATOM     13  C   UNL     1       6.593   5.191  19.084  0.00  0.00    +0.000 C 
ATOM     14  C   UNL     1       7.425   6.358  18.563  0.00  0.00    +0.000 C 
ATOM     15  C   UNL     1       7.194   6.369  17.052  0.00  0.00    +0.000 C 
ATOM     16  C   UNL     1       5.974   5.486  16.819  0.00  0.00    +0.000 C 
ENDBRANCH   7  10
BRANCH   8  17
ATOM     17  C   UNL     1       2.063   6.566  19.591  0.00  0.00    +0.000 A 
ATOM     18  C   UNL     1       1.679   7.576  20.494  0.00  0.00    +0.000 A 
ATOM     19  C   UNL     1       1.573   8.911  20.087  0.00  0.00    +0.000 A 
ATOM     20  C   UNL     1       1.855   9.257  18.772  0.00  0.00    +0.000 A 
ATOM     21 CL   UNL     1       1.698  10.892  18.260  0.00  0.00    +0.000 Cl
ATOM     22  C   UNL     1       2.263   8.282  17.866  0.00  0.00    +0.000 A 
ATOM     23  C   UNL     1       2.370   6.949  18.275  0.00  0.00    +0.000 A 
ENDBRANCH   8  17
TORSDOF 2
ENDMDL
MODEL 4
REMARK VINA RESULT:      -8.3      1.454      4.728
REMARK  Name = 
REMARK  3 active torsions:
REMARK  status: ('A' for Active; 'I' for Inactive)
REMARK    1  A    between atoms: C_1  and  N_2
REMARK    2  A    between atoms: C_7  and  C_8
REMARK    3  A    between atoms: C_15  and  C_16
REMARK                            x       y       z     vdW  Elec       q    Type
REMARK                         _______ _______ _______ _____ _____    ______ ____
ROOT
ATOM      1  C   UNL     1       7.210   4.406  18.140  0.00  0.00    +0.000 C 
ATOM      2  N   UNL     1       6.647   4.565  16.816  0.00  0.00    +0.000 NA
ATOM      3  C   UNL     1       6.613   5.936  16.311  0.00  0.00    +0.000 C 
ATOM      4  C   UNL     1       6.121   5.646  14.896  0.00  0.00    +0.000 C 
ATOM      5  C   UNL     1       5.210   4.415  15.063  0.00  0.00    +0.000 C 
ATOM      6  C   UNL     1       5.302   4.037  16.565  0.00  0.00    +0.000 C 
ATOM      7  C   UNL     1       4.148   4.698  17.372  0.00  0.00    +0.000 C 
ATOM      8  C   UNL     1       4.191   6.265  17.176  0.00  0.00    +0.000 C 
ATOM      9  C   UNL     1       5.639   6.824  17.105  0.00  0.00    +0.000 C 
ENDROOT
BRANCH   7  10
ATOM     10  C   UNL     1       4.099   4.245  18.852  0.00  0.00    +0.000 C 
ATOM     11  O   UNL     1       5.008   4.561  19.618  0.00  0.00    +0.000 OA
ATOM     12  N   UNL     1       3.033   3.507  19.338  0.00  0.00    +0.000 N 
ATOM     13  C   UNL     1       1.905   2.890  18.665  0.00  0.00    +0.000 C 
ATOM     14  C   UNL     1       0.795   2.953  19.709  0.00  0.00    +0.000 C 
ATOM     15  C   UNL     1       1.511   2.889  21.058  0.00  0.00    +0.000 C 
ATOM     16  C   UNL     1       2.977   3.176  20.756  0.00  0.00    +0.000 C 
ENDBRANCH   7  10
BRANCH   8  17
ATOM     17  C   UNL     1       3.222   7.087  18.028  0.00  0.00    +0.000 A 
ATOM     18  C   UNL     1       2.614   8.272  17.571  0.00  0.00    +0.000 A 
ATOM     19  C   UNL     1       1.726   8.991  18.379  0.00  0.00    +0.000 A 
ATOM     20  C   UNL     1       1.428   8.533  19.656  0.00  0.00    +0.000 A 
ATOM     21 CL   UNL     1       0.359   9.428  20.664  0.00  0.00    +0.000 Cl
ATOM     22  C   UNL     1       1.995   7.350  20.123  0.00  0.00    +0.000 A 
ATOM     23  C   UNL     1       2.881   6.632  19.313  0.00  0.00    +0.000 A 
ENDBRANCH   8  17
TORSDOF 2
ENDMDL
MODEL 5
REMARK VINA RESULT:      -7.8      1.249      1.478
REMARK  Name = 
REMARK  3 active torsions:
REMARK  status: ('A' for Active; 'I' for Inactive)
REMARK    1  A    between atoms: C_1  and  N_2
REMARK    2  A    between atoms: C_7  and  C_8
REMARK    3  A    between atoms: C_15  and  C_16
REMARK                            x       y       z     vdW  Elec       q    Type
REMARK                         _______ _______ _______ _____ _____    ______ ____
ROOT
ATOM      1  C   UNL     1       4.054   3.482  16.301  0.00  0.00    +0.000 C 
ATOM      2  N   UNL     1       3.743   3.032  17.641  0.00  0.00    +0.000 NA
ATOM      3  C   UNL     1       2.328   3.073  18.003  0.00  0.00    +0.000 C 
ATOM      4  C   UNL     1       2.421   2.397  19.368  0.00  0.00    +0.000 C 
ATOM      5  C   UNL     1       3.800   2.823  19.903  0.00  0.00    +0.000 C 
ATOM      6  C   UNL     1       4.439   3.665  18.766  0.00  0.00    +0.000 C 
ATOM      7  C   UNL     1       4.158   5.180  18.977  0.00  0.00    +0.000 C 
ATOM      8  C   UNL     1       2.600   5.426  19.059  0.00  0.00    +0.000 C 
ATOM      9  C   UNL     1       1.794   4.514  18.094  0.00  0.00    +0.000 C 
ENDROOT
BRANCH   7  10
ATOM     10  C   UNL     1       4.890   6.085  17.956  0.00  0.00    +0.000 C 
ATOM     11  O   UNL     1       4.255   6.616  17.045  0.00  0.00    +0.000 OA
ATOM     12  N   UNL     1       6.248   6.331  18.065  0.00  0.00    +0.000 N 
ATOM     13  C   UNL     1       7.261   5.762  18.933  0.00  0.00    +0.000 C 
ATOM     14  C   UNL     1       8.250   6.909  19.119  0.00  0.00    +0.000 C 
ATOM     15  C   UNL     1       8.160   7.727  17.831  0.00  0.00    +0.000 C 
ATOM     16  C   UNL     1       6.885   7.260  17.139  0.00  0.00    +0.000 C 
ENDBRANCH   7  10
BRANCH   8  17
ATOM     17  C   UNL     1       2.139   6.884  19.106  0.00  0.00    +0.000 A 
ATOM     18  C   UNL     1       1.996   7.681  17.953  0.00  0.00    +0.000 A 
ATOM     19  C   UNL     1       1.563   9.009  18.038  0.00  0.00    +0.000 A 
ATOM     20  C   UNL     1       1.262   9.560  19.277  0.00  0.00    +0.000 A 
ATOM     21 CL   UNL     1       0.757  11.200  19.390  0.00  0.00    +0.000 Cl
ATOM     22  C   UNL     1       1.370   8.787  20.430  0.00  0.00    +0.000 A 
ATOM     23  C   UNL     1       1.801   7.459  20.342  0.00  0.00    +0.000 A 
ENDBRANCH   8  17
TORSDOF 2
ENDMDL
MODEL 6
REMARK VINA RESULT:      -7.7      2.095      4.523
REMARK  Name = 
REMARK  3 active torsions:
REMARK  status: ('A' for Active; 'I' for Inactive)
REMARK    1  A    between atoms: C_1  and  N_2
REMARK    2  A    between atoms: C_7  and  C_8
REMARK    3  A    between atoms: C_15  and  C_16
REMARK                            x       y       z     vdW  Elec       q    Type
REMARK                         _______ _______ _______ _____ _____    ______ ____
ROOT
ATOM      1  C   UNL     1       2.399   3.171  21.233  0.00  0.00    +0.000 C 
ATOM      2  N   UNL     1       2.478   2.557  19.924  0.00  0.00    +0.000 NA
ATOM      3  C   UNL     1       3.780   1.992  19.574  0.00  0.00    +0.000 C 
ATOM      4  C   UNL     1       3.397   1.337  18.250  0.00  0.00    +0.000 C 
ATOM      5  C   UNL     1       2.307   2.261  17.678  0.00  0.00    +0.000 C 
ATOM      6  C   UNL     1       2.087   3.354  18.757  0.00  0.00    +0.000 C 
ATOM      7  C   UNL     1       2.962   4.606  18.461  0.00  0.00    +0.000 C 
ATOM      8  C   UNL     1       4.483   4.184  18.381  0.00  0.00    +0.000 C 
ATOM      9  C   UNL     1       4.857   3.078  19.405  0.00  0.00    +0.000 C 
ENDROOT
BRANCH   7  10
ATOM     10  C   UNL     1       2.682   5.789  19.421  0.00  0.00    +0.000 C 
ATOM     11  O   UNL     1       2.969   5.688  20.614  0.00  0.00    +0.000 OA
ATOM     12  N   UNL     1       2.137   6.972  18.955  0.00  0.00    +0.000 N 
ATOM     13  C   UNL     1       1.591   7.335  17.661  0.00  0.00    +0.000 C 
ATOM     14  C   UNL     1       1.901   8.824  17.553  0.00  0.00    +0.000 C 
ATOM     15  C   UNL     1       1.897   9.338  18.992  0.00  0.00    +0.000 C 
ATOM     16  C   UNL     1       1.971   8.094  19.870  0.00  0.00    +0.000 C 
ENDBRANCH   7  10
BRANCH   8  17
ATOM     17  C   UNL     1       5.501   5.319  18.254  0.00  0.00    +0.000 A 
ATOM     18  C   UNL     1       6.704   5.357  18.986  0.00  0.00    +0.000 A 
ATOM     19  C   UNL     1       7.614   6.409  18.834  0.00  0.00    +0.000 A 
ATOM     20  C   UNL     1       7.337   7.439  17.944  0.00  0.00    +0.000 A 
ATOM     21 CL   UNL     1       8.438   8.749  17.775  0.00  0.00    +0.000 Cl
ATOM     22  C   UNL     1       6.168   7.413  17.189  0.00  0.00    +0.000 A 
ATOM     23  C   UNL     1       5.261   6.359  17.341  0.00  0.00    +0.000 A 
ENDBRANCH   8  17
TORSDOF 2
ENDMDL
MODEL 7
REMARK VINA RESULT:      -7.7      1.241      1.774
REMARK  Name = 
REMARK  3 active torsions:
REMARK  status: ('A' for Active; 'I' for Inactive)
REMARK    1  A    between atoms: C_1  and  N_2
REMARK    2  A    between atoms: C_7  and  C_8
REMARK    3  A    between atoms: C_15  and  C_16
REMARK                            x       y       z     vdW  Elec       q    Type
REMARK                         _______ _______ _______ _____ _____    ______ ____
ROOT
ATOM      1  C   UNL     1       4.101   3.458  16.256  0.00  0.00    +0.000 C 
ATOM      2  N   UNL     1       3.795   2.978  17.586  0.00  0.00    +0.000 NA
ATOM      3  C   UNL     1       2.379   2.994  17.948  0.00  0.00    +0.000 C 
ATOM      4  C   UNL     1       2.481   2.292  19.299  0.00  0.00    +0.000 C 
ATOM      5  C   UNL     1       3.854   2.726  19.844  0.00  0.00    +0.000 C 
ATOM      6  C   UNL     1       4.482   3.598  18.724  0.00  0.00    +0.000 C 
ATOM      7  C   UNL     1       4.181   5.105  18.964  0.00  0.00    +0.000 C 
ATOM      8  C   UNL     1       2.620   5.329  19.050  0.00  0.00    +0.000 C 
ATOM      9  C   UNL     1       1.826   4.425  18.067  0.00  0.00    +0.000 C 
ENDROOT
BRANCH   7  10
ATOM     10  C   UNL     1       4.901   6.040  17.961  0.00  0.00    +0.000 C 
ATOM     11  O   UNL     1       4.261   6.576  17.057  0.00  0.00    +0.000 OA
ATOM     12  N   UNL     1       6.254   6.306  18.078  0.00  0.00    +0.000 N 
ATOM     13  C   UNL     1       7.274   5.738  18.940  0.00  0.00    +0.000 C 
ATOM     14  C   UNL     1       8.243   6.897  19.149  0.00  0.00    +0.000 C 
ATOM     15  C   UNL     1       8.144   7.736  17.875  0.00  0.00    +0.000 C 
ATOM     16  C   UNL     1       6.879   7.260  17.171  0.00  0.00    +0.000 C 
ENDBRANCH   7  10
BRANCH   8  17
ATOM     17  C   UNL     1       2.139   6.780  19.124  0.00  0.00    +0.000 A 
ATOM     18  C   UNL     1       1.891   7.444  20.340  0.00  0.00    +0.000 A 
ATOM     19  C   UNL     1       1.461   8.776  20.365  0.00  0.00    +0.000 A 
ATOM     20  C   UNL     1       1.278   9.465  19.173  0.00  0.00    +0.000 A 
ATOM     21 CL   UNL     1       0.722  11.093  19.198  0.00  0.00    +0.000 Cl
ATOM     22  C   UNL     1       1.542   8.841  17.958  0.00  0.00    +0.000 A 
ATOM     23  C   UNL     1       1.973   7.510  17.935  0.00  0.00    +0.000 A 
ENDBRANCH   8  17
TORSDOF 2
ENDMDL
MODEL 8
REMARK VINA RESULT:      -7.6      2.102      4.465
REMARK  Name = 
REMARK  3 active torsions:
REMARK  status: ('A' for Active; 'I' for Inactive)
REMARK    1  A    between atoms: C_1  and  N_2
REMARK    2  A    between atoms: C_7  and  C_8
REMARK    3  A    between atoms: C_15  and  C_16
REMARK                            x       y       z     vdW  Elec       q    Type
REMARK                         _______ _______ _______ _____ _____    ______ ____
ROOT
ATOM      1  C   UNL     1       2.495   3.151  21.263  0.00  0.00    +0.000 C 
ATOM      2  N   UNL     1       2.534   2.531  19.956  0.00  0.00    +0.000 NA
ATOM      3  C   UNL     1       3.833   1.991  19.558  0.00  0.00    +0.000 C 
ATOM      4  C   UNL     1       3.412   1.319  18.254  0.00  0.00    +0.000 C 
ATOM      5  C   UNL     1       2.280   2.217  17.720  0.00  0.00    +0.000 C 
ATOM      6  C   UNL     1       2.081   3.313  18.801  0.00  0.00    +0.000 C 
ATOM      7  C   UNL     1       2.917   4.580  18.464  0.00  0.00    +0.000 C 
ATOM      8  C   UNL     1       4.442   4.190  18.325  0.00  0.00    +0.000 C 
ATOM      9  C   UNL     1       4.880   3.098  19.340  0.00  0.00    +0.000 C 
ENDROOT
BRANCH   7  10
ATOM     10  C   UNL     1       2.651   5.763  19.427  0.00  0.00    +0.000 C 
ATOM     11  O   UNL     1       2.925   5.651  20.622  0.00  0.00    +0.000 OA
ATOM     12  N   UNL     1       2.131   6.958  18.963  0.00  0.00    +0.000 N 
ATOM     13  C   UNL     1       1.604   7.338  17.666  0.00  0.00    +0.000 C 
ATOM     14  C   UNL     1       1.942   8.822  17.569  0.00  0.00    +0.000 C 
ATOM     15  C   UNL     1       1.935   9.328  19.011  0.00  0.00    +0.000 C 
ATOM     16  C   UNL     1       1.978   8.079  19.883  0.00  0.00    +0.000 C 
ENDBRANCH   7  10
BRANCH   8  17
ATOM     17  C   UNL     1       5.430   5.345  18.152  0.00  0.00    +0.000 A 
ATOM     18  C   UNL     1       5.195   6.434  17.291  0.00  0.00    +0.000 A 
ATOM     19  C   UNL     1       6.121   7.475  17.168  0.00  0.00    +0.000 A 
ATOM     20  C   UNL     1       7.296   7.446  17.908  0.00  0.00    +0.000 A 
ATOM     21 CL   UNL     1       8.451   8.710  17.739  0.00  0.00    +0.000 Cl
ATOM     22  C   UNL     1       7.542   6.395  18.787  0.00  0.00    +0.000 A 
ATOM     23  C   UNL     1       6.613   5.356  18.910  0.00  0.00    +0.000 A 
ENDBRANCH   8  17
TORSDOF 2
ENDMDL
MODEL 9
REMARK VINA RESULT:      -7.3      3.116      4.448
REMARK  Name = 
REMARK  3 active torsions:
REMARK  status: ('A' for Active; 'I' for Inactive)
REMARK    1  A    between atoms: C_1  and  N_2
REMARK    2  A    between atoms: C_7  and  C_8
REMARK    3  A    between atoms: C_15  and  C_16
REMARK                            x       y       z     vdW  Elec       q    Type
REMARK                         _______ _______ _______ _____ _____    ______ ____
ROOT
ATOM      1  C   UNL     1       4.130   2.087  20.507  0.00  0.00    +0.000 C 
ATOM      2  N   UNL     1       2.902   2.620  19.956  0.00  0.00    +0.000 NA
ATOM      3  C   UNL     1       2.474   2.027  18.691  0.00  0.00    +0.000 C 
ATOM      4  C   UNL     1       1.124   2.726  18.556  0.00  0.00    +0.000 C 
ATOM      5  C   UNL     1       1.349   4.101  19.211  0.00  0.00    +0.000 C 
ATOM      6  C   UNL     1       2.805   4.068  19.746  0.00  0.00    +0.000 C 
ATOM      7  C   UNL     1       3.789   4.674  18.705  0.00  0.00    +0.000 C 
ATOM      8  C   UNL     1       3.668   3.890  17.339  0.00  0.00    +0.000 C 
ATOM      9  C   UNL     1       3.433   2.367  17.536  0.00  0.00    +0.000 C 
ENDROOT
BRANCH   7  10
ATOM     10  C   UNL     1       5.238   4.802  19.235  0.00  0.00    +0.000 C 
ATOM     11  O   UNL     1       5.697   3.932  19.975  0.00  0.00    +0.000 OA
ATOM     12  N   UNL     1       6.040   5.869  18.872  0.00  0.00    +0.000 N 
ATOM     13  C   UNL     1       5.747   7.085  18.137  0.00  0.00    +0.000 C 
ATOM     14  C   UNL     1       7.062   7.396  17.430  0.00  0.00    +0.000 C 
ATOM     15  C   UNL     1       8.149   6.835  18.346  0.00  0.00    +0.000 C 
ATOM     16  C   UNL     1       7.427   5.910  19.318  0.00  0.00    +0.000 C 
ENDBRANCH   7  10
BRANCH   8  17
ATOM     17  C   UNL     1       4.680   4.251  16.250  0.00  0.00    +0.000 A 
ATOM     18  C   UNL     1       4.624   5.453  15.518  0.00  0.00    +0.000 A 
ATOM     19  C   UNL     1       5.575   5.751  14.536  0.00  0.00    +0.000 A 
ATOM     20  C   UNL     1       6.602   4.852  14.274  0.00  0.00    +0.000 A 
ATOM     21 CL   UNL     1       7.757   5.200  13.048  0.00  0.00    +0.000 Cl
ATOM     22  C   UNL     1       6.697   3.669  15.001  0.00  0.00    +0.000 A 
ATOM     23  C   UNL     1       5.745   3.375  15.984  0.00  0.00    +0.000 A 
ENDBRANCH   8  17
TORSDOF 2
ENDMDL
