MODEL 1
REMARK VINA RESULT:      -7.4      0.000      0.000
REMARK  Name = 
REMARK  10 active torsions:
REMARK  status: ('A' for Active; 'I' for Inactive)
REMARK    1  A    between atoms: C_1  and  C_2
REMARK    2  A    between atoms: C_2  and  C_3
REMARK    3  A    between atoms: C_3  and  C_4
REMARK    4  A    between atoms: C_4  and  C_5
REMARK    5  A    between atoms: C_5  and  C_6
REMARK    6  A    between atoms: C_6  and  C_7
REMARK    7  A    between atoms: C_7  and  C_8
REMARK    8  A    between atoms: C_8  and  C_9
REMARK    9  A    between atoms: N_11  and  C_12
REMARK   10  A    between atoms: C_15  and  O_16
REMARK                            x       y       z     vdW  Elec       q    Type
REMARK                         _______ _______ _______ _____ _____    ______ ____
ROOT
ATOM      1  C   UNL     1       6.410   4.390  16.601  0.00  0.00    +0.000 A 
ATOM      2  C   UNL     1       5.170   3.902  16.928  0.00  0.00    +0.000 A 
ATOM      3  N   UNL     1       5.116   3.966  18.299  0.00  0.00    +0.000 N 
ATOM      4  N   UNL     1       6.315   4.377  18.777  0.00  0.00    +0.000 NA
ATOM      5  N   UNL     1       7.104   4.654  17.746  0.00  0.00    +0.000 NA
ENDROOT
BRANCH   3   6
ATOM      6  C   UNL     1       3.998   3.729  19.134  0.00  0.00    +0.000 A 
ATOM      7  C   UNL     1       4.110   2.860  20.230  0.00  0.00    +0.000 A 
ATOM      8  C   UNL     1       2.993   2.563  21.009  0.00  0.00    +0.000 A 
ATOM      9  C   UNL     1       1.766   3.138  20.688  0.00  0.00    +0.000 A 
ATOM     10  C   UNL     1       1.646   4.016  19.616  0.00  0.00    +0.000 A 
ATOM     11  C   UNL     1       2.763   4.322  18.837  0.00  0.00    +0.000 A 
BRANCH   9  12
ATOM     12  O   UNL     1       0.647   2.853  21.410  0.00  0.00    +0.000 OA
ATOM     13  H   UNL     1      -0.132   3.090  20.882  0.00  0.00    +0.000 HD
ENDBRANCH   9  12
ENDBRANCH   3   6
BRANCH   1  14
ATOM     14  C   UNL     1       6.975   4.660  15.259  0.00  0.00    +0.000 C 
BRANCH  14  15
ATOM     15  C   UNL     1       6.312   3.819  14.177  0.00  0.00    +0.000 C 
BRANCH  15  16
ATOM     16  C   UNL     1       6.716   4.288  12.782  0.00  0.00    +0.000 C 
BRANCH  16  17
ATOM     17  C   UNL     1       6.842   3.092  11.842  0.00  0.00    +0.000 C 
BRANCH  17  18
ATOM     18  C   UNL     1       5.490   2.431  11.591  0.00  0.00    +0.000 C 
BRANCH  18  19
ATOM     19  C   UNL     1       4.379   3.479  11.534  0.00  0.00    +0.000 C 
BRANCH  19  21
ATOM     20  C   UNL     1       2.936   4.292   9.640  0.00  0.00    +0.000 C 
ATOM     21  C   UNL     1       3.316   3.101  10.506  0.00  0.00    +0.000 C 
ENDBRANCH  19  21
ENDBRANCH  18  19
ENDBRANCH  17  18
ENDBRANCH  16  17
ENDBRANCH  15  16
ENDBRANCH  14  15
ENDBRANCH   1  14
TORSDOF 9
ENDMDL
MODEL 2
REMARK VINA RESULT:      -7.3      1.172      1.589
REMARK  Name = 
REMARK  10 active torsions:
REMARK  status: ('A' for Active; 'I' for Inactive)
REMARK    1  A    between atoms: C_1  and  C_2
REMARK    2  A    between atoms: C_2  and  C_3
REMARK    3  A    between atoms: C_3  and  C_4
REMARK    4  A    between atoms: C_4  and  C_5
REMARK    5  A    between atoms: C_5  and  C_6
REMARK    6  A    between atoms: C_6  and  C_7
REMARK    7  A    between atoms: C_7  and  C_8
REMARK    8  A    between atoms: C_8  and  C_9
REMARK    9  A    between atoms: N_11  and  C_12
REMARK   10  A    between atoms: C_15  and  O_16
REMARK                            x       y       z     vdW  Elec       q    Type
REMARK                         _______ _______ _______ _____ _____    ______ ____
ROOT
ATOM      1  C   UNL     1       5.692   5.271  16.503  0.00  0.00    +0.000 A 
ATOM      2  C   UNL     1       5.460   4.460  17.586  0.00  0.00    +0.000 A 
ATOM      3  N   UNL     1       4.294   4.930  18.137  0.00  0.00    +0.000 N 
ATOM      4  N   UNL     1       3.899   6.043  17.472  0.00  0.00    +0.000 NA
ATOM      5  N   UNL     1       4.738   6.247  16.463  0.00  0.00    +0.000 NA
ENDROOT
BRANCH   3   6
ATOM      6  C   UNL     1       3.532   4.351  19.180  0.00  0.00    +0.000 A 
ATOM      7  C   UNL     1       2.504   5.085  19.791  0.00  0.00    +0.000 A 
ATOM      8  C   UNL     1       1.803   4.548  20.870  0.00  0.00    +0.000 A 
ATOM      9  C   UNL     1       2.135   3.278  21.335  0.00  0.00    +0.000 A 
ATOM     10  C   UNL     1       3.140   2.534  20.726  0.00  0.00    +0.000 A 
ATOM     11  C   UNL     1       3.839   3.064  19.641  0.00  0.00    +0.000 A 
BRANCH   9  12
ATOM     12  O   UNL     1       1.490   2.731  22.402  0.00  0.00    +0.000 OA
ATOM     13  H   UNL     1       2.061   2.051  22.794  0.00  0.00    +0.000 HD
ENDBRANCH   9  12
ENDBRANCH   3   6
BRANCH   1  14
ATOM     14  C   UNL     1       6.747   5.159  15.470  0.00  0.00    +0.000 C 
BRANCH  14  15
ATOM     15  C   UNL     1       6.580   3.913  14.612  0.00  0.00    +0.000 C 
BRANCH  15  16
ATOM     16  C   UNL     1       6.051   4.261  13.223  0.00  0.00    +0.000 C 
BRANCH  16  17
ATOM     17  C   UNL     1       6.552   3.244  12.201  0.00  0.00    +0.000 C 
BRANCH  17  18
ATOM     18  C   UNL     1       5.395   2.534  11.504  0.00  0.00    +0.000 C 
BRANCH  18  19
ATOM     19  C   UNL     1       4.133   3.395  11.540  0.00  0.00    +0.000 C 
BRANCH  19  21
ATOM     20  C   UNL     1       2.867   4.331   9.578  0.00  0.00    +0.000 C 
ATOM     21  C   UNL     1       3.214   3.077  10.364  0.00  0.00    +0.000 C 
ENDBRANCH  19  21
ENDBRANCH  18  19
ENDBRANCH  17  18
ENDBRANCH  16  17
ENDBRANCH  15  16
ENDBRANCH  14  15
ENDBRANCH   1  14
TORSDOF 9
ENDMDL
MODEL 3
REMARK VINA RESULT:      -7.0      4.943      7.219
REMARK  Name = 
REMARK  10 active torsions:
REMARK  status: ('A' for Active; 'I' for Inactive)
REMARK    1  A    between atoms: C_1  and  C_2
REMARK    2  A    between atoms: C_2  and  C_3
REMARK    3  A    between atoms: C_3  and  C_4
REMARK    4  A    between atoms: C_4  and  C_5
REMARK    5  A    between atoms: C_5  and  C_6
REMARK    6  A    between atoms: C_6  and  C_7
REMARK    7  A    between atoms: C_7  and  C_8
REMARK    8  A    between atoms: C_8  and  C_9
REMARK    9  A    between atoms: N_11  and  C_12
REMARK   10  A    between atoms: C_15  and  O_16
REMARK                            x       y       z     vdW  Elec       q    Type
REMARK                         _______ _______ _______ _____ _____    ______ ____
ROOT
ATOM      1  C   UNL     1       6.715   6.449  17.584  0.00  0.00    +0.000 A 
ATOM      2  C   UNL     1       5.450   6.078  17.201  0.00  0.00    +0.000 A 
ATOM      3  N   UNL     1       5.188   4.932  17.911  0.00  0.00    +0.000 N 
ATOM      4  N   UNL     1       6.291   4.575  18.611  0.00  0.00    +0.000 NA
ATOM      5  N   UNL     1       7.221   5.505  18.430  0.00  0.00    +0.000 NA
ENDROOT
BRANCH   3   6
ATOM      6  C   UNL     1       3.962   4.231  18.003  0.00  0.00    +0.000 A 
ATOM      7  C   UNL     1       2.754   4.887  17.718  0.00  0.00    +0.000 A 
ATOM      8  C   UNL     1       1.539   4.224  17.882  0.00  0.00    +0.000 A 
ATOM      9  C   UNL     1       1.537   2.905  18.331  0.00  0.00    +0.000 A 
ATOM     10  C   UNL     1       2.728   2.239  18.598  0.00  0.00    +0.000 A 
ATOM     11  C   UNL     1       3.947   2.896  18.428  0.00  0.00    +0.000 A 
BRANCH   9  12
ATOM     12  O   UNL     1       0.369   2.233  18.527  0.00  0.00    +0.000 OA
ATOM     13  H   UNL     1       0.166   1.724  17.725  0.00  0.00    +0.000 HD
ENDBRANCH   9  12
ENDBRANCH   3   6
BRANCH   1  14
ATOM     14  C   UNL     1       7.470   7.672  17.227  0.00  0.00    +0.000 C 
BRANCH  14  15
ATOM     15  C   UNL     1       8.326   8.176  18.381  0.00  0.00    +0.000 C 
BRANCH  15  16
ATOM     16  C   UNL     1       8.656   9.657  18.224  0.00  0.00    +0.000 C 
BRANCH  16  17
ATOM     17  C   UNL     1       9.262  10.200  19.515  0.00  0.00    +0.000 C 
BRANCH  17  18
ATOM     18  C   UNL     1      10.235  11.342  19.241  0.00  0.00    +0.000 C 
BRANCH  18  19
ATOM     19  C   UNL     1      10.532  11.451  17.746  0.00  0.00    +0.000 C 
BRANCH  19  21
ATOM     20  C   UNL     1      11.565  13.544  18.684  0.00  0.00    +0.000 C 
ATOM     21  C   UNL     1      11.288  12.738  17.426  0.00  0.00    +0.000 C 
ENDBRANCH  19  21
ENDBRANCH  18  19
ENDBRANCH  17  18
ENDBRANCH  16  17
ENDBRANCH  15  16
ENDBRANCH  14  15
ENDBRANCH   1  14
TORSDOF 9
ENDMDL
MODEL 4
REMARK VINA RESULT:      -7.0      5.070      7.309
REMARK  Name = 
REMARK  10 active torsions:
REMARK  status: ('A' for Active; 'I' for Inactive)
REMARK    1  A    between atoms: C_1  and  C_2
REMARK    2  A    between atoms: C_2  and  C_3
REMARK    3  A    between atoms: C_3  and  C_4
REMARK    4  A    between atoms: C_4  and  C_5
REMARK    5  A    between atoms: C_5  and  C_6
REMARK    6  A    between atoms: C_6  and  C_7
REMARK    7  A    between atoms: C_7  and  C_8
REMARK    8  A    between atoms: C_8  and  C_9
REMARK    9  A    between atoms: N_11  and  C_12
REMARK   10  A    between atoms: C_15  and  O_16
REMARK                            x       y       z     vdW  Elec       q    Type
REMARK                         _______ _______ _______ _____ _____    ______ ____
ROOT
ATOM      1  C   UNL     1       6.505   6.631  17.604  0.00  0.00    +0.000 A 
ATOM      2  C   UNL     1       5.782   5.714  18.324  0.00  0.00    +0.000 A 
ATOM      3  N   UNL     1       4.679   5.447  17.551  0.00  0.00    +0.000 N 
ATOM      4  N   UNL     1       4.690   6.251  16.460  0.00  0.00    +0.000 NA
ATOM      5  N   UNL     1       5.809   6.964  16.477  0.00  0.00    +0.000 NA
ENDROOT
BRANCH   3   6
ATOM      6  C   UNL     1       3.693   4.453  17.760  0.00  0.00    +0.000 A 
ATOM      7  C   UNL     1       2.335   4.806  17.798  0.00  0.00    +0.000 A 
ATOM      8  C   UNL     1       1.367   3.845  18.081  0.00  0.00    +0.000 A 
ATOM      9  C   UNL     1       1.761   2.531  18.326  0.00  0.00    +0.000 A 
ATOM     10  C   UNL     1       3.102   2.166  18.272  0.00  0.00    +0.000 A 
ATOM     11  C   UNL     1       4.074   3.123  17.983  0.00  0.00    +0.000 A 
BRANCH   9  12
ATOM     12  O   UNL     1       0.846   1.570  18.630  0.00  0.00    +0.000 OA
ATOM     13  H   UNL     1       0.250   1.458  17.872  0.00  0.00    +0.000 HD
ENDBRANCH   9  12
ENDBRANCH   3   6
BRANCH   1  14
ATOM     14  C   UNL     1       7.844   7.192  17.897  0.00  0.00    +0.000 C 
BRANCH  14  15
ATOM     15  C   UNL     1       7.885   8.703  17.713  0.00  0.00    +0.000 C 
BRANCH  15  16
ATOM     16  C   UNL     1       8.835   9.359  18.711  0.00  0.00    +0.000 C 
BRANCH  16  17
ATOM     17  C   UNL     1       9.124  10.799  18.293  0.00  0.00    +0.000 C 
BRANCH  17  18
ATOM     18  C   UNL     1       9.508  11.663  19.490  0.00  0.00    +0.000 C 
BRANCH  18  19
ATOM     19  C   UNL     1      10.870  12.318  19.268  0.00  0.00    +0.000 C 
BRANCH  19  21
ATOM     20  C   UNL     1      11.859  13.041  17.071  0.00  0.00    +0.000 C 
ATOM     21  C   UNL     1      11.497  11.858  17.954  0.00  0.00    +0.000 C 
ENDBRANCH  19  21
ENDBRANCH  18  19
ENDBRANCH  17  18
ENDBRANCH  16  17
ENDBRANCH  15  16
ENDBRANCH  14  15
ENDBRANCH   1  14
TORSDOF 9
ENDMDL
MODEL 5
REMARK VINA RESULT:      -7.0      5.051      7.220
REMARK  Name = 
REMARK  10 active torsions:
REMARK  status: ('A' for Active; 'I' for Inactive)
REMARK    1  A    between atoms: C_1  and  C_2
REMARK    2  A    between atoms: C_2  and  C_3
REMARK    3  A    between atoms: C_3  and  C_4
REMARK    4  A    between atoms: C_4  and  C_5
REMARK    5  A    between atoms: C_5  and  C_6
REMARK    6  A    between atoms: C_6  and  C_7
REMARK    7  A    between atoms: C_7  and  C_8
REMARK    8  A    between atoms: C_8  and  C_9
REMARK    9  A    between atoms: N_11  and  C_12
REMARK   10  A    between atoms: C_15  and  O_16
REMARK                            x       y       z     vdW  Elec       q    Type
REMARK                         _______ _______ _______ _____ _____    ______ ____
ROOT
ATOM      1  C   UNL     1       6.564   6.457  17.567  0.00  0.00    +0.000 A 
ATOM      2  C   UNL     1       5.655   5.803  18.360  0.00  0.00    +0.000 A 
ATOM      3  N   UNL     1       4.734   5.282  17.485  0.00  0.00    +0.000 N 
ATOM      4  N   UNL     1       5.022   5.696  16.228  0.00  0.00    +0.000 NA
ATOM      5  N   UNL     1       6.147   6.400  16.268  0.00  0.00    +0.000 NA
ENDROOT
BRANCH   3   6
ATOM      6  C   UNL     1       3.675   4.387  17.773  0.00  0.00    +0.000 A 
ATOM      7  C   UNL     1       3.907   3.003  17.780  0.00  0.00    +0.000 A 
ATOM      8  C   UNL     1       2.853   2.114  17.986  0.00  0.00    +0.000 A 
ATOM      9  C   UNL     1       1.568   2.615  18.183  0.00  0.00    +0.000 A 
ATOM     10  C   UNL     1       1.329   3.985  18.197  0.00  0.00    +0.000 A 
ATOM     11  C   UNL     1       2.383   4.878  17.999  0.00  0.00    +0.000 A 
BRANCH   9  12
ATOM     12  O   UNL     1       0.509   1.778  18.363  0.00  0.00    +0.000 OA
ATOM     13  H   UNL     1       0.847   0.889  18.561  0.00  0.00    +0.000 HD
ENDBRANCH   9  12
ENDBRANCH   3   6
BRANCH   1  14
ATOM     14  C   UNL     1       7.835   7.110  17.958  0.00  0.00    +0.000 C 
BRANCH  14  15
ATOM     15  C   UNL     1       7.838   8.598  17.638  0.00  0.00    +0.000 C 
BRANCH  15  16
ATOM     16  C   UNL     1       8.741   9.371  18.594  0.00  0.00    +0.000 C 
BRANCH  16  17
ATOM     17  C   UNL     1       8.953  10.793  18.083  0.00  0.00    +0.000 C 
BRANCH  17  18
ATOM     18  C   UNL     1       9.688  11.653  19.106  0.00  0.00    +0.000 C 
BRANCH  18  19
ATOM     19  C   UNL     1      11.196  11.425  19.019  0.00  0.00    +0.000 C 
BRANCH  19  21
ATOM     20  C   UNL     1      11.086  13.621  17.796  0.00  0.00    +0.000 C 
ATOM     21  C   UNL     1      11.826  12.300  17.939  0.00  0.00    +0.000 C 
ENDBRANCH  19  21
ENDBRANCH  18  19
ENDBRANCH  17  18
ENDBRANCH  16  17
ENDBRANCH  15  16
ENDBRANCH  14  15
ENDBRANCH   1  14
TORSDOF 9
ENDMDL
MODEL 6
REMARK VINA RESULT:      -6.9      1.035      1.364
REMARK  Name = 
REMARK  10 active torsions:
REMARK  status: ('A' for Active; 'I' for Inactive)
REMARK    1  A    between atoms: C_1  and  C_2
REMARK    2  A    between atoms: C_2  and  C_3
REMARK    3  A    between atoms: C_3  and  C_4
REMARK    4  A    between atoms: C_4  and  C_5
REMARK    5  A    between atoms: C_5  and  C_6
REMARK    6  A    between atoms: C_6  and  C_7
REMARK    7  A    between atoms: C_7  and  C_8
REMARK    8  A    between atoms: C_8  and  C_9
REMARK    9  A    between atoms: N_11  and  C_12
REMARK   10  A    between atoms: C_15  and  O_16
REMARK                            x       y       z     vdW  Elec       q    Type
REMARK                         _______ _______ _______ _____ _____    ______ ____
ROOT
ATOM      1  C   UNL     1       5.362   4.723  16.059  0.00  0.00    +0.000 A 
ATOM      2  C   UNL     1       4.262   4.129  16.625  0.00  0.00    +0.000 A 
ATOM      3  N   UNL     1       4.501   4.160  17.977  0.00  0.00    +0.000 N 
ATOM      4  N   UNL     1       5.740   4.658  18.204  0.00  0.00    +0.000 NA
ATOM      5  N   UNL     1       6.265   5.020  17.039  0.00  0.00    +0.000 NA
ENDROOT
BRANCH   3   6
ATOM      6  C   UNL     1       3.610   3.815  19.022  0.00  0.00    +0.000 A 
ATOM      7  C   UNL     1       3.228   4.780  19.967  0.00  0.00    +0.000 A 
ATOM      8  C   UNL     1       2.414   4.428  21.042  0.00  0.00    +0.000 A 
ATOM      9  C   UNL     1       1.985   3.109  21.168  0.00  0.00    +0.000 A 
ATOM     10  C   UNL     1       2.341   2.148  20.228  0.00  0.00    +0.000 A 
ATOM     11  C   UNL     1       3.150   2.498  19.146  0.00  0.00    +0.000 A 
BRANCH   9  12
ATOM     12  O   UNL     1       1.209   2.721  22.218  0.00  0.00    +0.000 OA
ATOM     13  H   UNL     1       0.278   2.765  21.948  0.00  0.00    +0.000 HD
ENDBRANCH   9  12
ENDBRANCH   3   6
BRANCH   1  14
ATOM     14  C   UNL     1       5.602   5.067  14.638  0.00  0.00    +0.000 C 
BRANCH  14  15
ATOM     15  C   UNL     1       6.851   4.393  14.088  0.00  0.00    +0.000 C 
BRANCH  15  16
ATOM     16  C   UNL     1       6.520   3.488  12.905  0.00  0.00    +0.000 C 
BRANCH  16  17
ATOM     17  C   UNL     1       5.017   3.502  12.637  0.00  0.00    +0.000 C 
BRANCH  17  18
ATOM     18  C   UNL     1       4.706   3.187  11.177  0.00  0.00    +0.000 C 
BRANCH  18  19
ATOM     19  C   UNL     1       3.268   3.573  10.836  0.00  0.00    +0.000 C 
BRANCH  19  21
ATOM     20  C   UNL     1       2.117   5.007   9.119  0.00  0.00    +0.000 C 
ATOM     21  C   UNL     1       3.118   3.886   9.349  0.00  0.00    +0.000 C 
ENDBRANCH  19  21
ENDBRANCH  18  19
ENDBRANCH  17  18
ENDBRANCH  16  17
ENDBRANCH  15  16
ENDBRANCH  14  15
ENDBRANCH   1  14
TORSDOF 9
ENDMDL
MODEL 7
REMARK VINA RESULT:      -6.9      1.069      1.284
REMARK  Name = 
REMARK  10 active torsions:
REMARK  status: ('A' for Active; 'I' for Inactive)
REMARK    1  A    between atoms: C_1  and  C_2
REMARK    2  A    between atoms: C_2  and  C_3
REMARK    3  A    between atoms: C_3  and  C_4
REMARK    4  A    between atoms: C_4  and  C_5
REMARK    5  A    between atoms: C_5  and  C_6
REMARK    6  A    between atoms: C_6  and  C_7
REMARK    7  A    between atoms: C_7  and  C_8
REMARK    8  A    between atoms: C_8  and  C_9
REMARK    9  A    between atoms: N_11  and  C_12
REMARK   10  A    between atoms: C_15  and  O_16
REMARK                            x       y       z     vdW  Elec       q    Type
REMARK                         _______ _______ _______ _____ _____    ______ ____
ROOT
ATOM      1  C   UNL     1       6.592   4.425  15.733  0.00  0.00    +0.000 A 
ATOM      2  C   UNL     1       5.293   4.026  15.923  0.00  0.00    +0.000 A 
ATOM      3  N   UNL     1       5.091   4.115  17.278  0.00  0.00    +0.000 N 
ATOM      4  N   UNL     1       6.254   4.454  17.885  0.00  0.00    +0.000 NA
ATOM      5  N   UNL     1       7.171   4.660  16.947  0.00  0.00    +0.000 NA
ENDROOT
BRANCH   3   6
ATOM      6  C   UNL     1       3.873   3.968  17.985  0.00  0.00    +0.000 A 
ATOM      7  C   UNL     1       3.747   4.485  19.284  0.00  0.00    +0.000 A 
ATOM      8  C   UNL     1       2.578   4.275  20.013  0.00  0.00    +0.000 A 
ATOM      9  C   UNL     1       1.538   3.547  19.439  0.00  0.00    +0.000 A 
ATOM     10  C   UNL     1       1.644   3.046  18.146  0.00  0.00    +0.000 A 
ATOM     11  C   UNL     1       2.810   3.260  17.410  0.00  0.00    +0.000 A 
BRANCH   9  12
ATOM     12  O   UNL     1       0.391   3.300  20.130  0.00  0.00    +0.000 OA
ATOM     13  H   UNL     1       0.025   2.453  19.830  0.00  0.00    +0.000 HD
ENDBRANCH   9  12
ENDBRANCH   3   6
BRANCH   1  14
ATOM     14  C   UNL     1       7.320   4.635  14.460  0.00  0.00    +0.000 C 
BRANCH  14  15
ATOM     15  C   UNL     1       6.376   4.742  13.270  0.00  0.00    +0.000 C 
BRANCH  15  16
ATOM     16  C   UNL     1       6.860   3.894  12.098  0.00  0.00    +0.000 C 
BRANCH  16  17
ATOM     17  C   UNL     1       5.805   2.854  11.730  0.00  0.00    +0.000 C 
BRANCH  17  18
ATOM     18  C   UNL     1       4.419   3.269  12.214  0.00  0.00    +0.000 C 
BRANCH  18  19
ATOM     19  C   UNL     1       3.386   3.104  11.100  0.00  0.00    +0.000 C 
BRANCH  19  21
ATOM     20  C   UNL     1       2.449   4.552   9.269  0.00  0.00    +0.000 C 
ATOM     21  C   UNL     1       3.713   3.999   9.907  0.00  0.00    +0.000 C 
ENDBRANCH  19  21
ENDBRANCH  18  19
ENDBRANCH  17  18
ENDBRANCH  16  17
ENDBRANCH  15  16
ENDBRANCH  14  15
ENDBRANCH   1  14
TORSDOF 9
ENDMDL
MODEL 8
REMARK VINA RESULT:      -6.9      5.140      7.538
REMARK  Name = 
REMARK  10 active torsions:
REMARK  status: ('A' for Active; 'I' for Inactive)
REMARK    1  A    between atoms: C_1  and  C_2
REMARK    2  A    between atoms: C_2  and  C_3
REMARK    3  A    between atoms: C_3  and  C_4
REMARK    4  A    between atoms: C_4  and  C_5
REMARK    5  A    between atoms: C_5  and  C_6
REMARK    6  A    between atoms: C_6  and  C_7
REMARK    7  A    between atoms: C_7  and  C_8
REMARK    8  A    between atoms: C_8  and  C_9
REMARK    9  A    between atoms: N_11  and  C_12
REMARK   10  A    between atoms: C_15  and  O_16
REMARK                            x       y       z     vdW  Elec       q    Type
REMARK                         _______ _______ _______ _____ _____    ______ ____
ROOT
ATOM      1  C   UNL     1       6.678   6.673  17.443  0.00  0.00    +0.000 A 
ATOM      2  C   UNL     1       5.788   6.007  18.249  0.00  0.00    +0.000 A 
ATOM      3  N   UNL     1       4.856   5.483  17.389  0.00  0.00    +0.000 N 
ATOM      4  N   UNL     1       5.118   5.905  16.129  0.00  0.00    +0.000 NA
ATOM      5  N   UNL     1       6.238   6.618  16.152  0.00  0.00    +0.000 NA
ENDROOT
BRANCH   3   6
ATOM      6  C   UNL     1       3.810   4.577  17.691  0.00  0.00    +0.000 A 
ATOM      7  C   UNL     1       4.047   3.194  17.660  0.00  0.00    +0.000 A 
ATOM      8  C   UNL     1       3.003   2.297  17.880  0.00  0.00    +0.000 A 
ATOM      9  C   UNL     1       1.724   2.788  18.131  0.00  0.00    +0.000 A 
ATOM     10  C   UNL     1       1.481   4.157  18.183  0.00  0.00    +0.000 A 
ATOM     11  C   UNL     1       2.524   5.059  17.970  0.00  0.00    +0.000 A 
BRANCH   9  12
ATOM     12  O   UNL     1       0.674   1.943  18.326  0.00  0.00    +0.000 OA
ATOM     13  H   UNL     1       0.648   1.693  19.263  0.00  0.00    +0.000 HD
ENDBRANCH   9  12
ENDBRANCH   3   6
BRANCH   1  14
ATOM     14  C   UNL     1       7.950   7.333  17.814  0.00  0.00    +0.000 C 
BRANCH  14  15
ATOM     15  C   UNL     1       7.847   8.851  17.753  0.00  0.00    +0.000 C 
BRANCH  15  16
ATOM     16  C   UNL     1       8.769   9.513  18.774  0.00  0.00    +0.000 C 
BRANCH  16  17
ATOM     17  C   UNL     1       9.394  10.772  18.179  0.00  0.00    +0.000 C 
BRANCH  17  18
ATOM     18  C   UNL     1      10.263  11.501  19.198  0.00  0.00    +0.000 C 
BRANCH  18  19
ATOM     19  C   UNL     1       9.424  12.468  20.031  0.00  0.00    +0.000 C 
BRANCH  19  21
ATOM     20  C   UNL     1       8.490  11.789  22.266  0.00  0.00    +0.000 C 
ATOM     21  C   UNL     1       9.711  12.305  21.522  0.00  0.00    +0.000 C 
ENDBRANCH  19  21
ENDBRANCH  18  19
ENDBRANCH  17  18
ENDBRANCH  16  17
ENDBRANCH  15  16
ENDBRANCH  14  15
ENDBRANCH   1  14
TORSDOF 9
ENDMDL
MODEL 9
REMARK VINA RESULT:      -6.8      4.821      6.985
REMARK  Name = 
REMARK  10 active torsions:
REMARK  status: ('A' for Active; 'I' for Inactive)
REMARK    1  A    between atoms: C_1  and  C_2
REMARK    2  A    between atoms: C_2  and  C_3
REMARK    3  A    between atoms: C_3  and  C_4
REMARK    4  A    between atoms: C_4  and  C_5
REMARK    5  A    between atoms: C_5  and  C_6
REMARK    6  A    between atoms: C_6  and  C_7
REMARK    7  A    between atoms: C_7  and  C_8
REMARK    8  A    between atoms: C_8  and  C_9
REMARK    9  A    between atoms: N_11  and  C_12
REMARK   10  A    between atoms: C_15  and  O_16
REMARK                            x       y       z     vdW  Elec       q    Type
REMARK                         _______ _______ _______ _____ _____    ______ ____
ROOT
ATOM      1  C   UNL     1       6.604   6.327  18.019  0.00  0.00    +0.000 A 
ATOM      2  C   UNL     1       5.262   6.041  17.988  0.00  0.00    +0.000 A 
ATOM      3  N   UNL     1       5.097   5.019  18.889  0.00  0.00    +0.000 N 
ATOM      4  N   UNL     1       6.308   4.638  19.364  0.00  0.00    +0.000 NA
ATOM      5  N   UNL     1       7.230   5.443  18.850  0.00  0.00    +0.000 NA
ENDROOT
BRANCH   3   6
ATOM      6  C   UNL     1       3.882   4.458  19.353  0.00  0.00    +0.000 A 
ATOM      7  C   UNL     1       2.896   5.284  19.914  0.00  0.00    +0.000 A 
ATOM      8  C   UNL     1       1.732   4.730  20.443  0.00  0.00    +0.000 A 
ATOM      9  C   UNL     1       1.558   3.348  20.407  0.00  0.00    +0.000 A 
ATOM     10  C   UNL     1       2.519   2.521  19.836  0.00  0.00    +0.000 A 
ATOM     11  C   UNL     1       3.684   3.073  19.300  0.00  0.00    +0.000 A 
BRANCH   9  12
ATOM     12  O   UNL     1       0.445   2.767  20.935  0.00  0.00    +0.000 OA
ATOM     13  H   UNL     1      -0.039   3.434  21.448  0.00  0.00    +0.000 HD
ENDBRANCH   9  12
ENDBRANCH   3   6
BRANCH   1  14
ATOM     14  C   UNL     1       7.335   7.418  17.336  0.00  0.00    +0.000 C 
BRANCH  14  15
ATOM     15  C   UNL     1       8.383   8.058  18.235  0.00  0.00    +0.000 C 
BRANCH  15  16
ATOM     16  C   UNL     1       8.346   9.581  18.137  0.00  0.00    +0.000 C 
BRANCH  16  17
ATOM     17  C   UNL     1       9.265  10.198  19.188  0.00  0.00    +0.000 C 
BRANCH  17  18
ATOM     18  C   UNL     1       9.722  11.595  18.781  0.00  0.00    +0.000 C 
BRANCH  18  19
ATOM     19  C   UNL     1      10.934  11.518  17.853  0.00  0.00    +0.000 C 
BRANCH  19  21
ATOM     20  C   UNL     1      10.291  13.948  17.744  0.00  0.00    +0.000 C 
ATOM     21  C   UNL     1      11.285  12.892  17.289  0.00  0.00    +0.000 C 
ENDBRANCH  19  21
ENDBRANCH  18  19
ENDBRANCH  17  18
ENDBRANCH  16  17
ENDBRANCH  15  16
ENDBRANCH  14  15
ENDBRANCH   1  14
TORSDOF 9
ENDMDL
