MODEL 1
REMARK VINA RESULT:      -6.5      0.000      0.000
REMARK  Name = 
REMARK  2 active torsions:
REMARK  status: ('A' for Active; 'I' for Inactive)
REMARK    1  A    between atoms: C_1  and  C_2
REMARK    2  A    between atoms: C_2  and  N_3
REMARK                            x       y       z     vdW  Elec       q    Type
REMARK                         _______ _______ _______ _____ _____    ______ ____
ROOT
ATOM      1  N   UNL     1       4.620   4.098  17.735  0.00  0.00    +0.000 N 
ATOM      2  C   UNL     1       4.943   4.745  18.910  0.00  0.00    +0.000 C 
ATOM      3  N   UNL     1       5.985   5.407  19.257  0.00  0.00    +0.000 NA
ATOM      4  S   UNL     1       7.228   5.464  18.231  0.00  0.00    +0.000 S 
ATOM      5  O   UNL     1       8.188   4.441  18.600  0.00  0.00    +0.000 OA
ATOM      6  O   UNL     1       7.643   6.846  18.089  0.00  0.00    +0.000 OA
ATOM      7  C   UNL     1       6.615   4.980  16.649  0.00  0.00    +0.000 A 
ATOM      8  C   UNL     1       7.399   5.274  15.523  0.00  0.00    +0.000 A 
ATOM      9  C   UNL     1       6.951   4.884  14.272  0.00  0.00    +0.000 A 
ATOM     10 CL   UNL     1       7.880   5.237  12.872  0.00  0.00    +0.000 Cl
ATOM     11  C   UNL     1       5.745   4.204  14.151  0.00  0.00    +0.000 A 
ATOM     12  C   UNL     1       4.979   3.914  15.291  0.00  0.00    +0.000 A 
ATOM     13  C   UNL     1       5.387   4.312  16.577  0.00  0.00    +0.000 A 
ENDROOT
BRANCH   1  15
ATOM     14  C   UNL     1       2.144   4.065  17.823  0.00  0.00    +0.000 C 
ATOM     15  C   UNL     1       3.420   3.249  17.688  0.00  0.00    +0.000 C 
ENDBRANCH   1  15
TORSDOF 1
ENDMDL
MODEL 2
REMARK VINA RESULT:      -6.3      2.800      4.302
REMARK  Name = 
REMARK  2 active torsions:
REMARK  status: ('A' for Active; 'I' for Inactive)
REMARK    1  A    between atoms: C_1  and  C_2
REMARK    2  A    between atoms: C_2  and  N_3
REMARK                            x       y       z     vdW  Elec       q    Type
REMARK                         _______ _______ _______ _____ _____    ______ ____
ROOT
ATOM      1  N   UNL     1       5.786   4.278  16.073  0.00  0.00    +0.000 N 
ATOM      2  C   UNL     1       7.145   4.327  16.304  0.00  0.00    +0.000 C 
ATOM      3  N   UNL     1       7.823   4.803  17.282  0.00  0.00    +0.000 NA
ATOM      4  S   UNL     1       7.032   5.585  18.450  0.00  0.00    +0.000 S 
ATOM      5  O   UNL     1       7.087   7.009  18.180  0.00  0.00    +0.000 OA
ATOM      6  O   UNL     1       7.467   5.061  19.730  0.00  0.00    +0.000 OA
ATOM      7  C   UNL     1       5.329   5.147  18.303  0.00  0.00    +0.000 A 
ATOM      8  C   UNL     1       4.487   5.411  19.393  0.00  0.00    +0.000 A 
ATOM      9  C   UNL     1       3.142   5.097  19.293  0.00  0.00    +0.000 A 
ATOM     10 CL   UNL     1       2.084   5.397  20.613  0.00  0.00    +0.000 Cl
ATOM     11  C   UNL     1       2.647   4.539  18.120  0.00  0.00    +0.000 A 
ATOM     12  C   UNL     1       3.506   4.289  17.040  0.00  0.00    +0.000 A 
ATOM     13  C   UNL     1       4.882   4.572  17.107  0.00  0.00    +0.000 A 
ENDROOT
BRANCH   1  15
ATOM     14  C   UNL     1       6.355   3.996  13.677  0.00  0.00    +0.000 C 
ATOM     15  C   UNL     1       5.297   3.837  14.758  0.00  0.00    +0.000 C 
ENDBRANCH   1  15
TORSDOF 1
ENDMDL
MODEL 3
REMARK VINA RESULT:      -6.3      3.807      4.510
REMARK  Name = 
REMARK  2 active torsions:
REMARK  status: ('A' for Active; 'I' for Inactive)
REMARK    1  A    between atoms: C_1  and  C_2
REMARK    2  A    between atoms: C_2  and  N_3
REMARK                            x       y       z     vdW  Elec       q    Type
REMARK                         _______ _______ _______ _____ _____    ______ ____
ROOT
ATOM      1  N   UNL     1       2.381   6.119  19.415  0.00  0.00    +0.000 N 
ATOM      2  C   UNL     1       1.814   5.230  20.305  0.00  0.00    +0.000 C 
ATOM      3  N   UNL     1       1.698   3.954  20.273  0.00  0.00    +0.000 NA
ATOM      4  S   UNL     1       2.191   3.177  18.948  0.00  0.00    +0.000 S 
ATOM      5  O   UNL     1       1.047   2.949  18.086  0.00  0.00    +0.000 OA
ATOM      6  O   UNL     1       3.039   2.072  19.352  0.00  0.00    +0.000 OA
ATOM      7  C   UNL     1       3.235   4.285  18.057  0.00  0.00    +0.000 A 
ATOM      8  C   UNL     1       4.062   3.749  17.059  0.00  0.00    +0.000 A 
ATOM      9  C   UNL     1       4.874   4.602  16.330  0.00  0.00    +0.000 A 
ATOM     10 CL   UNL     1       5.907   3.978  15.108  0.00  0.00    +0.000 Cl
ATOM     11  C   UNL     1       4.850   5.967  16.588  0.00  0.00    +0.000 A 
ATOM     12  C   UNL     1       4.010   6.483  17.586  0.00  0.00    +0.000 A 
ATOM     13  C   UNL     1       3.187   5.650  18.364  0.00  0.00    +0.000 A 
ENDROOT
BRANCH   1  15
ATOM     14  C   UNL     1       1.421   7.854  20.902  0.00  0.00    +0.000 C 
ATOM     15  C   UNL     1       2.197   7.563  19.627  0.00  0.00    +0.000 C 
ENDBRANCH   1  15
TORSDOF 1
ENDMDL
MODEL 4
REMARK VINA RESULT:      -6.1      4.266      5.212
REMARK  Name = 
REMARK  2 active torsions:
REMARK  status: ('A' for Active; 'I' for Inactive)
REMARK    1  A    between atoms: C_1  and  C_2
REMARK    2  A    between atoms: C_2  and  N_3
REMARK                            x       y       z     vdW  Elec       q    Type
REMARK                         _______ _______ _______ _____ _____    ______ ____
ROOT
ATOM      1  N   UNL     1       2.942   3.594  20.287  0.00  0.00    +0.000 N 
ATOM      2  C   UNL     1       3.628   2.622  19.589  0.00  0.00    +0.000 C 
ATOM      3  N   UNL     1       3.976   2.547  18.358  0.00  0.00    +0.000 NA
ATOM      4  S   UNL     1       3.485   3.710  17.354  0.00  0.00    +0.000 S 
ATOM      5  O   UNL     1       2.283   3.265  16.675  0.00  0.00    +0.000 OA
ATOM      6  O   UNL     1       4.629   4.177  16.596  0.00  0.00    +0.000 OA
ATOM      7  C   UNL     1       2.979   5.074  18.352  0.00  0.00    +0.000 A 
ATOM      8  C   UNL     1       2.837   6.325  17.732  0.00  0.00    +0.000 A 
ATOM      9  C   UNL     1       2.420   7.406  18.489  0.00  0.00    +0.000 A 
ATOM     10 CL   UNL     1       2.246   8.954  17.765  0.00  0.00    +0.000 Cl
ATOM     11  C   UNL     1       2.140   7.237  19.840  0.00  0.00    +0.000 A 
ATOM     12  C   UNL     1       2.282   5.976  20.439  0.00  0.00    +0.000 A 
ATOM     13  C   UNL     1       2.725   4.857  19.712  0.00  0.00    +0.000 A 
ENDROOT
BRANCH   1  15
ATOM     14  C   UNL     1       1.205   2.545  21.711  0.00  0.00    +0.000 C 
ATOM     15  C   UNL     1       2.513   3.320  21.667  0.00  0.00    +0.000 C 
ENDBRANCH   1  15
TORSDOF 1
ENDMDL
MODEL 5
REMARK VINA RESULT:      -6.1      2.453      3.546
REMARK  Name = 
REMARK  2 active torsions:
REMARK  status: ('A' for Active; 'I' for Inactive)
REMARK    1  A    between atoms: C_1  and  C_2
REMARK    2  A    between atoms: C_2  and  N_3
REMARK                            x       y       z     vdW  Elec       q    Type
REMARK                         _______ _______ _______ _____ _____    ______ ____
ROOT
ATOM      1  N   UNL     1       6.704   5.589  18.195  0.00  0.00    +0.000 N 
ATOM      2  C   UNL     1       5.908   5.150  19.234  0.00  0.00    +0.000 C 
ATOM      3  N   UNL     1       4.792   4.520  19.241  0.00  0.00    +0.000 NA
ATOM      4  S   UNL     1       4.072   4.229  17.828  0.00  0.00    +0.000 S 
ATOM      5  O   UNL     1       3.083   5.261  17.585  0.00  0.00    +0.000 OA
ATOM      6  O   UNL     1       3.700   2.828  17.782  0.00  0.00    +0.000 OA
ATOM      7  C   UNL     1       5.292   4.445  16.572  0.00  0.00    +0.000 A 
ATOM      8  C   UNL     1       5.022   3.923  15.298  0.00  0.00    +0.000 A 
ATOM      9  C   UNL     1       5.954   4.100  14.289  0.00  0.00    +0.000 A 
ATOM     10 CL   UNL     1       5.663   3.463  12.721  0.00  0.00    +0.000 Cl
ATOM     11  C   UNL     1       7.129   4.796  14.548  0.00  0.00    +0.000 A 
ATOM     12  C   UNL     1       7.375   5.316  15.827  0.00  0.00    +0.000 A 
ATOM     13  C   UNL     1       6.466   5.140  16.885  0.00  0.00    +0.000 A 
ENDROOT
BRANCH   1  15
ATOM     14  C   UNL     1       7.701   7.828  17.832  0.00  0.00    +0.000 C 
ATOM     15  C   UNL     1       7.849   6.464  18.487  0.00  0.00    +0.000 C 
ENDBRANCH   1  15
TORSDOF 1
ENDMDL
MODEL 6
REMARK VINA RESULT:      -6.1      3.211      3.734
REMARK  Name = 
REMARK  2 active torsions:
REMARK  status: ('A' for Active; 'I' for Inactive)
REMARK    1  A    between atoms: C_1  and  C_2
REMARK    2  A    between atoms: C_2  and  N_3
REMARK                            x       y       z     vdW  Elec       q    Type
REMARK                         _______ _______ _______ _____ _____    ______ ____
ROOT
ATOM      1  N   UNL     1       2.871   6.291  19.094  0.00  0.00    +0.000 N 
ATOM      2  C   UNL     1       2.629   5.427  20.142  0.00  0.00    +0.000 C 
ATOM      3  N   UNL     1       2.931   4.192  20.312  0.00  0.00    +0.000 NA
ATOM      4  S   UNL     1       3.638   3.406  19.095  0.00  0.00    +0.000 S 
ATOM      5  O   UNL     1       2.622   2.689  18.348  0.00  0.00    +0.000 OA
ATOM      6  O   UNL     1       4.801   2.710  19.610  0.00  0.00    +0.000 OA
ATOM      7  C   UNL     1       4.260   4.627  17.983  0.00  0.00    +0.000 A 
ATOM      8  C   UNL     1       5.209   4.224  17.030  0.00  0.00    +0.000 A 
ATOM      9  C   UNL     1       5.696   5.159  16.132  0.00  0.00    +0.000 A 
ATOM     10 CL   UNL     1       6.865   4.704  14.960  0.00  0.00    +0.000 Cl
ATOM     11  C   UNL     1       5.234   6.469  16.179  0.00  0.00    +0.000 A 
ATOM     12  C   UNL     1       4.280   6.848  17.136  0.00  0.00    +0.000 A 
ATOM     13  C   UNL     1       3.777   5.937  18.081  0.00  0.00    +0.000 A 
ENDROOT
BRANCH   1  15
ATOM     14  C   UNL     1       1.641   7.960  20.452  0.00  0.00    +0.000 C 
ATOM     15  C   UNL     1       2.232   7.615  19.093  0.00  0.00    +0.000 C 
ENDBRANCH   1  15
TORSDOF 1
ENDMDL
MODEL 7
REMARK VINA RESULT:      -6.1      3.567      4.114
REMARK  Name = 
REMARK  2 active torsions:
REMARK  status: ('A' for Active; 'I' for Inactive)
REMARK    1  A    between atoms: C_1  and  C_2
REMARK    2  A    between atoms: C_2  and  N_3
REMARK                            x       y       z     vdW  Elec       q    Type
REMARK                         _______ _______ _______ _____ _____    ______ ____
ROOT
ATOM      1  N   UNL     1       2.751   6.534  18.747  0.00  0.00    +0.000 N 
ATOM      2  C   UNL     1       2.131   5.726  19.678  0.00  0.00    +0.000 C 
ATOM      3  N   UNL     1       1.992   4.453  19.740  0.00  0.00    +0.000 NA
ATOM      4  S   UNL     1       2.525   3.567  18.502  0.00  0.00    +0.000 S 
ATOM      5  O   UNL     1       1.415   3.291  17.611  0.00  0.00    +0.000 OA
ATOM      6  O   UNL     1       3.335   2.485  19.027  0.00  0.00    +0.000 OA
ATOM      7  C   UNL     1       3.627   4.587  17.574  0.00  0.00    +0.000 A 
ATOM      8  C   UNL     1       4.486   3.961  16.657  0.00  0.00    +0.000 A 
ATOM      9  C   UNL     1       5.343   4.741  15.901  0.00  0.00    +0.000 A 
ATOM     10 CL   UNL     1       6.416   4.008  14.778  0.00  0.00    +0.000 Cl
ATOM     11  C   UNL     1       5.335   6.123  16.051  0.00  0.00    +0.000 A 
ATOM     12  C   UNL     1       4.463   6.729  16.969  0.00  0.00    +0.000 A 
ATOM     13  C   UNL     1       3.592   5.972  17.772  0.00  0.00    +0.000 A 
ENDROOT
BRANCH   1  15
ATOM     14  C   UNL     1       1.587   8.514  17.817  0.00  0.00    +0.000 C 
ATOM     15  C   UNL     1       2.586   7.992  18.838  0.00  0.00    +0.000 C 
ENDBRANCH   1  15
TORSDOF 1
ENDMDL
MODEL 8
REMARK VINA RESULT:      -6.0      4.460      5.852
REMARK  Name = 
REMARK  2 active torsions:
REMARK  status: ('A' for Active; 'I' for Inactive)
REMARK    1  A    between atoms: C_1  and  C_2
REMARK    2  A    between atoms: C_2  and  N_3
REMARK                            x       y       z     vdW  Elec       q    Type
REMARK                         _______ _______ _______ _____ _____    ______ ____
ROOT
ATOM      1  N   UNL     1       3.721   3.842  17.577  0.00  0.00    +0.000 N 
ATOM      2  C   UNL     1       3.374   2.519  17.763  0.00  0.00    +0.000 C 
ATOM      3  N   UNL     1       2.770   1.928  18.727  0.00  0.00    +0.000 NA
ATOM      4  S   UNL     1       2.397   2.792  20.037  0.00  0.00    +0.000 S 
ATOM      5  O   UNL     1       3.431   2.599  21.035  0.00  0.00    +0.000 OA
ATOM      6  O   UNL     1       1.004   2.552  20.364  0.00  0.00    +0.000 OA
ATOM      7  C   UNL     1       2.498   4.493  19.581  0.00  0.00    +0.000 A 
ATOM      8  C   UNL     1       1.894   5.437  20.426  0.00  0.00    +0.000 A 
ATOM      9  C   UNL     1       1.980   6.780  20.101  0.00  0.00    +0.000 A 
ATOM     10 CL   UNL     1       1.242   7.962  21.106  0.00  0.00    +0.000 Cl
ATOM     11  C   UNL     1       2.667   7.173  18.958  0.00  0.00    +0.000 A 
ATOM     12  C   UNL     1       3.269   6.213  18.131  0.00  0.00    +0.000 A 
ATOM     13  C   UNL     1       3.187   4.838  18.411  0.00  0.00    +0.000 A 
ENDROOT
BRANCH   1  15
ATOM     14  C   UNL     1       6.050   4.288  16.858  0.00  0.00    +0.000 C 
ATOM     15  C   UNL     1       4.589   4.204  16.446  0.00  0.00    +0.000 C 
ENDBRANCH   1  15
TORSDOF 1
ENDMDL
MODEL 9
REMARK VINA RESULT:      -5.9      3.290      4.152
REMARK  Name = 
REMARK  2 active torsions:
REMARK  status: ('A' for Active; 'I' for Inactive)
REMARK    1  A    between atoms: C_1  and  C_2
REMARK    2  A    between atoms: C_2  and  N_3
REMARK                            x       y       z     vdW  Elec       q    Type
REMARK                         _______ _______ _______ _____ _____    ______ ____
ROOT
ATOM      1  N   UNL     1       4.776   4.257  18.357  0.00  0.00    +0.000 N 
ATOM      2  C   UNL     1       6.097   4.209  17.961  0.00  0.00    +0.000 C 
ATOM      3  N   UNL     1       6.803   5.017  17.258  0.00  0.00    +0.000 NA
ATOM      4  S   UNL     1       6.071   6.295  16.601  0.00  0.00    +0.000 S 
ATOM      5  O   UNL     1       5.711   5.977  15.233  0.00  0.00    +0.000 OA
ATOM      6  O   UNL     1       6.856   7.477  16.901  0.00  0.00    +0.000 OA
ATOM      7  C   UNL     1       4.539   6.506  17.450  0.00  0.00    +0.000 A 
ATOM      8  C   UNL     1       3.876   7.735  17.313  0.00  0.00    +0.000 A 
ATOM      9  C   UNL     1       2.660   7.917  17.951  0.00  0.00    +0.000 A 
ATOM     10 CL   UNL     1       1.826   9.412  17.813  0.00  0.00    +0.000 Cl
ATOM     11  C   UNL     1       2.113   6.884  18.704  0.00  0.00    +0.000 A 
ATOM     12  C   UNL     1       2.791   5.661  18.823  0.00  0.00    +0.000 A 
ATOM     13  C   UNL     1       4.037   5.442  18.210  0.00  0.00    +0.000 A 
ENDROOT
BRANCH   1  15
ATOM     14  C   UNL     1       3.559   2.129  17.995  0.00  0.00    +0.000 C 
ATOM     15  C   UNL     1       4.178   3.081  19.007  0.00  0.00    +0.000 C 
ENDBRANCH   1  15
TORSDOF 1
ENDMDL
