MODEL 1
REMARK VINA RESULT:      -7.7      0.000      0.000
REMARK  Name = 
REMARK  9 active torsions:
REMARK  status: ('A' for Active; 'I' for Inactive)
REMARK    1  A    between atoms: C_1  and  C_2
REMARK    2  A    between atoms: C_2  and  N_3
REMARK    3  A    between atoms: N_3  and  C_4
REMARK    4  A    between atoms: N_3  and  C_6
REMARK    5  A    between atoms: C_4  and  C_5
REMARK    6  A    between atoms: C_6  and  C_7
REMARK    7  A    between atoms: C_7  and  O_8
REMARK    8  A    between atoms: O_8  and  C_9
REMARK    9  A    between atoms: C_12  and  C_13
REMARK                            x       y       z     vdW  Elec       q    Type
REMARK                         _______ _______ _______ _____ _____    ______ ____
ROOT
ATOM      1  C   UNL     1       7.722   7.063  18.185  0.00  0.00    +0.000 A 
ATOM      2  C   UNL     1       6.719   7.266  17.227  0.00  0.00    +0.000 A 
ATOM      3  C   UNL     1       5.922   6.219  16.847  0.00  0.00    +0.000 A 
ATOM      4  C   UNL     1       6.075   4.959  17.380  0.00  0.00    +0.000 A 
ATOM      5  C   UNL     1       7.019   4.748  18.397  0.00  0.00    +0.000 A 
ATOM      6  C   UNL     1       7.867   5.796  18.764  0.00  0.00    +0.000 A 
ENDROOT
BRANCH   4   7
ATOM      7  C   UNL     1       4.980   4.045  17.118  0.00  0.00    +0.000 C 
ATOM      8  C   UNL     1       3.866   3.879  17.830  0.00  0.00    +0.000 C 
ATOM      9  C   UNL     1       3.392   2.444  17.805  0.00  0.00    +0.000 C 
ATOM     10  O   UNL     1       4.010   1.463  17.433  0.00  0.00    +0.000 OA
ATOM     11  N   UNL     1       2.163   2.467  18.414  0.00  0.00    +0.000 N 
ATOM     12  C   UNL     1       1.986   3.657  19.114  0.00  0.00    +0.000 A 
ATOM     13  C   UNL     1       0.958   3.896  20.000  0.00  0.00    +0.000 A 
ATOM     14  C   UNL     1       0.908   5.155  20.592  0.00  0.00    +0.000 A 
ATOM     15  C   UNL     1       1.871   6.127  20.247  0.00  0.00    +0.000 A 
ATOM     16 CL   UNL     1       1.724   7.694  20.961  0.00  0.00    +0.000 Cl
ATOM     17  C   UNL     1       2.914   5.861  19.343  0.00  0.00    +0.000 A 
ATOM     18  C   UNL     1       3.009   4.581  18.805  0.00  0.00    +0.000 A 
ATOM     19  H   UNL     1       1.543   1.677  18.394  0.00  0.00    +0.000 HD
ENDBRANCH   4   7
BRANCH   1  20
ATOM     20  O   UNL     1       8.594   8.049  18.593  0.00  0.00    +0.000 OA
BRANCH  20  21
ATOM     21  C   UNL     1       8.309   9.317  17.988  0.00  0.00    +0.000 C 
BRANCH  21  22
ATOM     22  C   UNL     1       9.003  10.457  18.728  0.00  0.00    +0.000 C 
BRANCH  22  23
ATOM     23  N   UNL     1       9.423  11.556  17.828  0.00  0.00    +0.000 NA
BRANCH  23  25
ATOM     24  C   UNL     1       7.538  13.150  17.346  0.00  0.00    +0.000 C 
ATOM     25  C   UNL     1       8.736  12.794  18.221  0.00  0.00    +0.000 C 
ENDBRANCH  23  25
BRANCH  23  26
ATOM     26  C   UNL     1      10.879  11.695  17.667  0.00  0.00    +0.000 C 
ATOM     27  C   UNL     1      11.365  12.986  17.016  0.00  0.00    +0.000 C 
ENDBRANCH  23  26
ENDBRANCH  22  23
ENDBRANCH  21  22
ENDBRANCH  20  21
ENDBRANCH   1  20
TORSDOF 7
ENDMDL
MODEL 2
REMARK VINA RESULT:      -7.6      0.749      1.390
REMARK  Name = 
REMARK  9 active torsions:
REMARK  status: ('A' for Active; 'I' for Inactive)
REMARK    1  A    between atoms: C_1  and  C_2
REMARK    2  A    between atoms: C_2  and  N_3
REMARK    3  A    between atoms: N_3  and  C_4
REMARK    4  A    between atoms: N_3  and  C_6
REMARK    5  A    between atoms: C_4  and  C_5
REMARK    6  A    between atoms: C_6  and  C_7
REMARK    7  A    between atoms: C_7  and  O_8
REMARK    8  A    between atoms: O_8  and  C_9
REMARK    9  A    between atoms: C_12  and  C_13
REMARK                            x       y       z     vdW  Elec       q    Type
REMARK                         _______ _______ _______ _____ _____    ______ ____
ROOT
ATOM      1  C   UNL     1       7.731   7.078  18.189  0.00  0.00    +0.000 A 
ATOM      2  C   UNL     1       6.724   7.260  17.230  0.00  0.00    +0.000 A 
ATOM      3  C   UNL     1       5.933   6.201  16.870  0.00  0.00    +0.000 A 
ATOM      4  C   UNL     1       6.095   4.951  17.424  0.00  0.00    +0.000 A 
ATOM      5  C   UNL     1       7.043   4.763  18.441  0.00  0.00    +0.000 A 
ATOM      6  C   UNL     1       7.885   5.822  18.789  0.00  0.00    +0.000 A 
ENDROOT
BRANCH   4   7
ATOM      7  C   UNL     1       5.005   4.026  17.180  0.00  0.00    +0.000 C 
ATOM      8  C   UNL     1       3.891   3.869  17.894  0.00  0.00    +0.000 C 
ATOM      9  C   UNL     1       3.425   2.431  17.898  0.00  0.00    +0.000 C 
ATOM     10  O   UNL     1       4.048   1.446  17.547  0.00  0.00    +0.000 OA
ATOM     11  N   UNL     1       2.196   2.461  18.505  0.00  0.00    +0.000 N 
ATOM     12  C   UNL     1       2.011   3.663  19.181  0.00  0.00    +0.000 A 
ATOM     13  C   UNL     1       0.982   3.915  20.061  0.00  0.00    +0.000 A 
ATOM     14  C   UNL     1       0.924   5.186  20.627  0.00  0.00    +0.000 A 
ATOM     15  C   UNL     1       1.883   6.156  20.263  0.00  0.00    +0.000 A 
ATOM     16 CL   UNL     1       1.727   7.737  20.944  0.00  0.00    +0.000 Cl
ATOM     17  C   UNL     1       2.928   5.877  19.365  0.00  0.00    +0.000 A 
ATOM     18  C   UNL     1       3.030   4.587  18.854  0.00  0.00    +0.000 A 
ATOM     19  H   UNL     1       1.579   1.667  18.502  0.00  0.00    +0.000 HD
ENDBRANCH   4   7
BRANCH   1  20
ATOM     20  O   UNL     1       8.597   8.076  18.578  0.00  0.00    +0.000 OA
BRANCH  20  21
ATOM     21  C   UNL     1       8.233   9.357  18.047  0.00  0.00    +0.000 C 
BRANCH  21  22
ATOM     22  C   UNL     1       9.358  10.373  18.218  0.00  0.00    +0.000 C 
BRANCH  22  23
ATOM     23  N   UNL     1       8.984  11.504  19.098  0.00  0.00    +0.000 NA
BRANCH  23  25
ATOM     24  C   UNL     1      11.211  11.927  20.188  0.00  0.00    +0.000 C 
ATOM     25  C   UNL     1       9.774  11.437  20.336  0.00  0.00    +0.000 C 
ENDBRANCH  23  25
BRANCH  23  26
ATOM     26  C   UNL     1       8.993  12.821  18.443  0.00  0.00    +0.000 C 
ATOM     27  C   UNL     1       7.915  13.059  17.390  0.00  0.00    +0.000 C 
ENDBRANCH  23  26
ENDBRANCH  22  23
ENDBRANCH  21  22
ENDBRANCH  20  21
ENDBRANCH   1  20
TORSDOF 7
ENDMDL
MODEL 3
REMARK VINA RESULT:      -7.4      0.869      1.501
REMARK  Name = 
REMARK  9 active torsions:
REMARK  status: ('A' for Active; 'I' for Inactive)
REMARK    1  A    between atoms: C_1  and  C_2
REMARK    2  A    between atoms: C_2  and  N_3
REMARK    3  A    between atoms: N_3  and  C_4
REMARK    4  A    between atoms: N_3  and  C_6
REMARK    5  A    between atoms: C_4  and  C_5
REMARK    6  A    between atoms: C_6  and  C_7
REMARK    7  A    between atoms: C_7  and  O_8
REMARK    8  A    between atoms: O_8  and  C_9
REMARK    9  A    between atoms: C_12  and  C_13
REMARK                            x       y       z     vdW  Elec       q    Type
REMARK                         _______ _______ _______ _____ _____    ______ ____
ROOT
ATOM      1  C   UNL     1       7.644   7.066  18.133  0.00  0.00    +0.000 A 
ATOM      2  C   UNL     1       6.614   7.235  17.198  0.00  0.00    +0.000 A 
ATOM      3  C   UNL     1       5.838   6.164  16.842  0.00  0.00    +0.000 A 
ATOM      4  C   UNL     1       6.039   4.912  17.379  0.00  0.00    +0.000 A 
ATOM      5  C   UNL     1       7.012   4.734  18.374  0.00  0.00    +0.000 A 
ATOM      6  C   UNL     1       7.839   5.807  18.716  0.00  0.00    +0.000 A 
ENDROOT
BRANCH   4   7
ATOM      7  C   UNL     1       4.964   3.966  17.148  0.00  0.00    +0.000 C 
ATOM      8  C   UNL     1       3.859   3.792  17.871  0.00  0.00    +0.000 C 
ATOM      9  C   UNL     1       3.419   2.345  17.885  0.00  0.00    +0.000 C 
ATOM     10  O   UNL     1       4.058   1.371  17.534  0.00  0.00    +0.000 OA
ATOM     11  N   UNL     1       2.194   2.356  18.502  0.00  0.00    +0.000 N 
ATOM     12  C   UNL     1       1.992   3.558  19.172  0.00  0.00    +0.000 A 
ATOM     13  C   UNL     1       0.965   3.796  20.059  0.00  0.00    +0.000 A 
ATOM     14  C   UNL     1       0.889   5.068  20.620  0.00  0.00    +0.000 A 
ATOM     15  C   UNL     1       1.826   6.053  20.244  0.00  0.00    +0.000 A 
ATOM     16 CL   UNL     1       1.646   7.634  20.918  0.00  0.00    +0.000 Cl
ATOM     17  C   UNL     1       2.869   5.789  19.339  0.00  0.00    +0.000 A 
ATOM     18  C   UNL     1       2.991   4.498  18.833  0.00  0.00    +0.000 A 
ATOM     19  H   UNL     1       1.593   1.550  18.507  0.00  0.00    +0.000 HD
ENDBRANCH   4   7
BRANCH   1  20
ATOM     20  O   UNL     1       8.497   8.079  18.515  0.00  0.00    +0.000 OA
BRANCH  20  21
ATOM     21  C   UNL     1       8.244   9.303  17.814  0.00  0.00    +0.000 C 
BRANCH  21  22
ATOM     22  C   UNL     1       8.505  10.518  18.699  0.00  0.00    +0.000 C 
BRANCH  22  23
ATOM     23  N   UNL     1       9.945  10.744  18.958  0.00  0.00    +0.000 NA
BRANCH  23  25
ATOM     24  C   UNL     1      11.657  12.312  17.991  0.00  0.00    +0.000 C 
ATOM     25  C   UNL     1      10.582  11.260  17.738  0.00  0.00    +0.000 C 
ENDBRANCH  23  25
BRANCH  23  26
ATOM     26  C   UNL     1      10.236  11.523  20.170  0.00  0.00    +0.000 C 
ATOM     27  C   UNL     1       9.179  11.483  21.269  0.00  0.00    +0.000 C 
ENDBRANCH  23  26
ENDBRANCH  22  23
ENDBRANCH  21  22
ENDBRANCH  20  21
ENDBRANCH   1  20
TORSDOF 7
ENDMDL
MODEL 4
REMARK VINA RESULT:      -7.4      5.019      7.961
REMARK  Name = 
REMARK  9 active torsions:
REMARK  status: ('A' for Active; 'I' for Inactive)
REMARK    1  A    between atoms: C_1  and  C_2
REMARK    2  A    between atoms: C_2  and  N_3
REMARK    3  A    between atoms: N_3  and  C_4
REMARK    4  A    between atoms: N_3  and  C_6
REMARK    5  A    between atoms: C_4  and  C_5
REMARK    6  A    between atoms: C_6  and  C_7
REMARK    7  A    between atoms: C_7  and  O_8
REMARK    8  A    between atoms: O_8  and  C_9
REMARK    9  A    between atoms: C_12  and  C_13
REMARK                            x       y       z     vdW  Elec       q    Type
REMARK                         _______ _______ _______ _____ _____    ______ ____
ROOT
ATOM      1  C   UNL     1       0.721   9.628  19.664  0.00  0.00    +0.000 A 
ATOM      2  C   UNL     1       1.371   8.525  20.237  0.00  0.00    +0.000 A 
ATOM      3  C   UNL     1       2.209   7.759  19.471  0.00  0.00    +0.000 A 
ATOM      4  C   UNL     1       2.437   8.038  18.142  0.00  0.00    +0.000 A 
ATOM      5  C   UNL     1       1.861   9.181  17.566  0.00  0.00    +0.000 A 
ATOM      6  C   UNL     1       0.970   9.947  18.323  0.00  0.00    +0.000 A 
ENDROOT
BRANCH   4   7
ATOM      7  C   UNL     1       3.565   7.342  17.554  0.00  0.00    +0.000 C 
ATOM      8  C   UNL     1       3.882   6.054  17.672  0.00  0.00    +0.000 C 
ATOM      9  C   UNL     1       5.379   5.841  17.669  0.00  0.00    +0.000 C 
ATOM     10  O   UNL     1       6.249   6.681  17.805  0.00  0.00    +0.000 OA
ATOM     11  N   UNL     1       5.542   4.481  17.612  0.00  0.00    +0.000 N 
ATOM     12  C   UNL     1       4.354   3.831  17.933  0.00  0.00    +0.000 A 
ATOM     13  C   UNL     1       4.243   2.479  18.174  0.00  0.00    +0.000 A 
ATOM     14  C   UNL     1       2.972   1.983  18.450  0.00  0.00    +0.000 A 
ATOM     15  C   UNL     1       1.864   2.858  18.441  0.00  0.00    +0.000 A 
ATOM     16 CL   UNL     1       0.300   2.179  18.724  0.00  0.00    +0.000 Cl
ATOM     17  C   UNL     1       2.000   4.236  18.196  0.00  0.00    +0.000 A 
ATOM     18  C   UNL     1       3.278   4.745  17.992  0.00  0.00    +0.000 A 
ATOM     19  H   UNL     1       6.436   4.057  17.437  0.00  0.00    +0.000 HD
ENDBRANCH   4   7
BRANCH   1  20
ATOM     20  O   UNL     1      -0.169  10.425  20.350  0.00  0.00    +0.000 OA
BRANCH  20  21
ATOM     21  C   UNL     1      -0.666  11.506  19.550  0.00  0.00    +0.000 C 
BRANCH  21  22
ATOM     22  C   UNL     1      -2.184  11.622  19.649  0.00  0.00    +0.000 C 
BRANCH  22  23
ATOM     23  N   UNL     1      -2.862  11.447  18.345  0.00  0.00    +0.000 NA
BRANCH  23  25
ATOM     24  C   UNL     1      -2.272   9.939  16.419  0.00  0.00    +0.000 C 
ATOM     25  C   UNL     1      -2.677  10.062  17.885  0.00  0.00    +0.000 C 
ENDBRANCH  23  25
BRANCH  23  26
ATOM     26  C   UNL     1      -4.255  11.916  18.308  0.00  0.00    +0.000 C 
ATOM     27  C   UNL     1      -5.333  10.836  18.326  0.00  0.00    +0.000 C 
ENDBRANCH  23  26
ENDBRANCH  22  23
ENDBRANCH  21  22
ENDBRANCH  20  21
ENDBRANCH   1  20
TORSDOF 7
ENDMDL
MODEL 5
REMARK VINA RESULT:      -7.3      4.948      7.880
REMARK  Name = 
REMARK  9 active torsions:
REMARK  status: ('A' for Active; 'I' for Inactive)
REMARK    1  A    between atoms: C_1  and  C_2
REMARK    2  A    between atoms: C_2  and  N_3
REMARK    3  A    between atoms: N_3  and  C_4
REMARK    4  A    between atoms: N_3  and  C_6
REMARK    5  A    between atoms: C_4  and  C_5
REMARK    6  A    between atoms: C_6  and  C_7
REMARK    7  A    between atoms: C_7  and  O_8
REMARK    8  A    between atoms: O_8  and  C_9
REMARK    9  A    between atoms: C_12  and  C_13
REMARK                            x       y       z     vdW  Elec       q    Type
REMARK                         _______ _______ _______ _____ _____    ______ ____
ROOT
ATOM      1  C   UNL     1       0.998   9.763  19.780  0.00  0.00    +0.000 A 
ATOM      2  C   UNL     1       1.445   9.331  18.523  0.00  0.00    +0.000 A 
ATOM      3  C   UNL     1       1.950   8.065  18.382  0.00  0.00    +0.000 A 
ATOM      4  C   UNL     1       2.034   7.193  19.444  0.00  0.00    +0.000 A 
ATOM      5  C   UNL     1       1.521   7.575  20.694  0.00  0.00    +0.000 A 
ATOM      6  C   UNL     1       1.042   8.877  20.863  0.00  0.00    +0.000 A 
ENDROOT
BRANCH   4   7
ATOM      7  C   UNL     1       2.293   5.812  19.086  0.00  0.00    +0.000 C 
ATOM      8  C   UNL     1       3.257   5.340  18.298  0.00  0.00    +0.000 C 
ATOM      9  C   UNL     1       2.803   4.125  17.521  0.00  0.00    +0.000 C 
ATOM     10  O   UNL     1       1.664   3.720  17.374  0.00  0.00    +0.000 OA
ATOM     11  N   UNL     1       3.935   3.654  16.908  0.00  0.00    +0.000 N 
ATOM     12  C   UNL     1       4.940   4.617  16.927  0.00  0.00    +0.000 A 
ATOM     13  C   UNL     1       6.114   4.535  16.211  0.00  0.00    +0.000 A 
ATOM     14  C   UNL     1       7.030   5.572  16.369  0.00  0.00    +0.000 A 
ATOM     15  C   UNL     1       6.741   6.629  17.259  0.00  0.00    +0.000 A 
ATOM     16 CL   UNL     1       7.940   7.856  17.467  0.00  0.00    +0.000 Cl
ATOM     17  C   UNL     1       5.534   6.695  17.977  0.00  0.00    +0.000 A 
ATOM     18  C   UNL     1       4.587   5.698  17.766  0.00  0.00    +0.000 A 
ATOM     19  H   UNL     1       3.962   2.759  16.453  0.00  0.00    +0.000 HD
ENDBRANCH   4   7
BRANCH   1  20
ATOM     20  O   UNL     1       0.516  11.032  20.019  0.00  0.00    +0.000 OA
BRANCH  20  21
ATOM     21  C   UNL     1      -0.322  11.509  18.958  0.00  0.00    +0.000 C 
BRANCH  21  22
ATOM     22  C   UNL     1      -1.761  11.703  19.428  0.00  0.00    +0.000 C 
BRANCH  22  23
ATOM     23  N   UNL     1      -2.757  11.214  18.448  0.00  0.00    +0.000 NA
BRANCH  23  25
ATOM     24  C   UNL     1      -5.246  11.159  18.084  0.00  0.00    +0.000 C 
ATOM     25  C   UNL     1      -4.046  11.877  18.695  0.00  0.00    +0.000 C 
ENDBRANCH  23  25
BRANCH  23  26
ATOM     26  C   UNL     1      -2.313  11.255  17.046  0.00  0.00    +0.000 C 
ATOM     27  C   UNL     1      -2.335   9.930  16.291  0.00  0.00    +0.000 C 
ENDBRANCH  23  26
ENDBRANCH  22  23
ENDBRANCH  21  22
ENDBRANCH  20  21
ENDBRANCH   1  20
TORSDOF 7
ENDMDL
MODEL 6
REMARK VINA RESULT:      -7.2      5.016      7.928
REMARK  Name = 
REMARK  9 active torsions:
REMARK  status: ('A' for Active; 'I' for Inactive)
REMARK    1  A    between atoms: C_1  and  C_2
REMARK    2  A    between atoms: C_2  and  N_3
REMARK    3  A    between atoms: N_3  and  C_4
REMARK    4  A    between atoms: N_3  and  C_6
REMARK    5  A    between atoms: C_4  and  C_5
REMARK    6  A    between atoms: C_6  and  C_7
REMARK    7  A    between atoms: C_7  and  O_8
REMARK    8  A    between atoms: O_8  and  C_9
REMARK    9  A    between atoms: C_12  and  C_13
REMARK                            x       y       z     vdW  Elec       q    Type
REMARK                         _______ _______ _______ _____ _____    ______ ____
ROOT
ATOM      1  C   UNL     1       1.145  10.027  19.665  0.00  0.00    +0.000 A 
ATOM      2  C   UNL     1       1.558   9.539  18.417  0.00  0.00    +0.000 A 
ATOM      3  C   UNL     1       1.985   8.243  18.304  0.00  0.00    +0.000 A 
ATOM      4  C   UNL     1       2.022   7.392  19.387  0.00  0.00    +0.000 A 
ATOM      5  C   UNL     1       1.540   7.833  20.629  0.00  0.00    +0.000 A 
ATOM      6  C   UNL     1       1.141   9.165  20.769  0.00  0.00    +0.000 A 
ENDROOT
BRANCH   4   7
ATOM      7  C   UNL     1       2.197   5.990  19.061  0.00  0.00    +0.000 C 
ATOM      8  C   UNL     1       3.120   5.444  18.272  0.00  0.00    +0.000 C 
ATOM      9  C   UNL     1       2.585   4.238  17.532  0.00  0.00    +0.000 C 
ATOM     10  O   UNL     1       1.423   3.896  17.412  0.00  0.00    +0.000 OA
ATOM     11  N   UNL     1       3.680   3.687  16.917  0.00  0.00    +0.000 N 
ATOM     12  C   UNL     1       4.738   4.590  16.898  0.00  0.00    +0.000 A 
ATOM     13  C   UNL     1       5.895   4.423  16.169  0.00  0.00    +0.000 A 
ATOM     14  C   UNL     1       6.871   5.409  16.288  0.00  0.00    +0.000 A 
ATOM     15  C   UNL     1       6.657   6.502  17.154  0.00  0.00    +0.000 A 
ATOM     16 CL   UNL     1       7.927   7.663  17.315  0.00  0.00    +0.000 Cl
ATOM     17  C   UNL     1       5.466   6.656  17.886  0.00  0.00    +0.000 A 
ATOM     18  C   UNL     1       4.460   5.710  17.714  0.00  0.00    +0.000 A 
ATOM     19  H   UNL     1       3.648   2.781  16.485  0.00  0.00    +0.000 HD
ENDBRANCH   4   7
BRANCH   1  20
ATOM     20  O   UNL     1       0.741  11.327  19.875  0.00  0.00    +0.000 OA
BRANCH  20  21
ATOM     21  C   UNL     1      -0.220  11.767  18.906  0.00  0.00    +0.000 C 
BRANCH  21  22
ATOM     22  C   UNL     1      -1.647  11.606  19.422  0.00  0.00    +0.000 C 
BRANCH  22  23
ATOM     23  N   UNL     1      -2.669  11.952  18.408  0.00  0.00    +0.000 NA
BRANCH  23  25
ATOM     24  C   UNL     1      -2.992   9.675  17.390  0.00  0.00    +0.000 C 
ATOM     25  C   UNL     1      -2.483  11.103  17.222  0.00  0.00    +0.000 C 
ENDBRANCH  23  25
BRANCH  23  26
ATOM     26  C   UNL     1      -4.049  11.993  18.915  0.00  0.00    +0.000 C 
ATOM     27  C   UNL     1      -4.246  12.629  20.287  0.00  0.00    +0.000 C 
ENDBRANCH  23  26
ENDBRANCH  22  23
ENDBRANCH  21  22
ENDBRANCH  20  21
ENDBRANCH   1  20
TORSDOF 7
ENDMDL
MODEL 7
REMARK VINA RESULT:      -7.2      4.919      8.405
REMARK  Name = 
REMARK  9 active torsions:
REMARK  status: ('A' for Active; 'I' for Inactive)
REMARK    1  A    between atoms: C_1  and  C_2
REMARK    2  A    between atoms: C_2  and  N_3
REMARK    3  A    between atoms: N_3  and  C_4
REMARK    4  A    between atoms: N_3  and  C_6
REMARK    5  A    between atoms: C_4  and  C_5
REMARK    6  A    between atoms: C_6  and  C_7
REMARK    7  A    between atoms: C_7  and  O_8
REMARK    8  A    between atoms: O_8  and  C_9
REMARK    9  A    between atoms: C_12  and  C_13
REMARK                            x       y       z     vdW  Elec       q    Type
REMARK                         _______ _______ _______ _____ _____    ______ ____
ROOT
ATOM      1  C   UNL     1       3.510   6.787  18.132  0.00  0.00    +0.000 A 
ATOM      2  C   UNL     1       2.968   8.006  17.703  0.00  0.00    +0.000 A 
ATOM      3  C   UNL     1       2.028   8.639  18.474  0.00  0.00    +0.000 A 
ATOM      4  C   UNL     1       1.594   8.111  19.669  0.00  0.00    +0.000 A 
ATOM      5  C   UNL     1       2.179   6.933  20.158  0.00  0.00    +0.000 A 
ATOM      6  C   UNL     1       3.107   6.254  19.363  0.00  0.00    +0.000 A 
ENDROOT
BRANCH   4   7
ATOM      7  C   UNL     1       0.844   9.026  20.508  0.00  0.00    +0.000 C 
ATOM      8  C   UNL     1      -0.053   9.934  20.127  0.00  0.00    +0.000 C 
ATOM      9  C   UNL     1      -0.019  11.161  21.010  0.00  0.00    +0.000 C 
ATOM     10  O   UNL     1       0.840  11.476  21.813  0.00  0.00    +0.000 OA
ATOM     11  N   UNL     1      -1.099  11.909  20.617  0.00  0.00    +0.000 N 
ATOM     12  C   UNL     1      -1.576  11.471  19.386  0.00  0.00    +0.000 A 
ATOM     13  C   UNL     1      -2.507  12.144  18.624  0.00  0.00    +0.000 A 
ATOM     14  C   UNL     1      -2.901  11.549  17.428  0.00  0.00    +0.000 A 
ATOM     15  C   UNL     1      -2.369  10.294  17.064  0.00  0.00    +0.000 A 
ATOM     16 CL   UNL     1      -2.942   9.570  15.603  0.00  0.00    +0.000 Cl
ATOM     17  C   UNL     1      -1.418   9.626  17.855  0.00  0.00    +0.000 A 
ATOM     18  C   UNL     1      -0.968  10.251  19.013  0.00  0.00    +0.000 A 
ATOM     19  H   UNL     1      -1.417  12.705  21.142  0.00  0.00    +0.000 HD
ENDBRANCH   4   7
BRANCH   1  20
ATOM     20  O   UNL     1       4.427   6.065  17.400  0.00  0.00    +0.000 OA
BRANCH  20  21
ATOM     21  C   UNL     1       4.805   4.843  18.046  0.00  0.00    +0.000 C 
BRANCH  21  22
ATOM     22  C   UNL     1       4.302   3.625  17.277  0.00  0.00    +0.000 C 
BRANCH  22  23
ATOM     23  N   UNL     1       3.698   2.598  18.155  0.00  0.00    +0.000 NA
BRANCH  23  25
ATOM     24  C   UNL     1       3.197   2.624  20.620  0.00  0.00    +0.000 C 
ATOM     25  C   UNL     1       4.241   2.741  19.514  0.00  0.00    +0.000 C 
ENDBRANCH  23  25
BRANCH  23  26
ATOM     26  C   UNL     1       2.230   2.523  18.094  0.00  0.00    +0.000 C 
ATOM     27  C   UNL     1       1.513   3.761  17.562  0.00  0.00    +0.000 C 
ENDBRANCH  23  26
ENDBRANCH  22  23
ENDBRANCH  21  22
ENDBRANCH  20  21
ENDBRANCH   1  20
TORSDOF 7
ENDMDL
MODEL 8
REMARK VINA RESULT:      -7.2      5.478      9.576
REMARK  Name = 
REMARK  9 active torsions:
REMARK  status: ('A' for Active; 'I' for Inactive)
REMARK    1  A    between atoms: C_1  and  C_2
REMARK    2  A    between atoms: C_2  and  N_3
REMARK    3  A    between atoms: N_3  and  C_4
REMARK    4  A    between atoms: N_3  and  C_6
REMARK    5  A    between atoms: C_4  and  C_5
REMARK    6  A    between atoms: C_6  and  C_7
REMARK    7  A    between atoms: C_7  and  O_8
REMARK    8  A    between atoms: O_8  and  C_9
REMARK    9  A    between atoms: C_12  and  C_13
REMARK                            x       y       z     vdW  Elec       q    Type
REMARK                         _______ _______ _______ _____ _____    ______ ____
ROOT
ATOM      1  C   UNL     1       2.619   7.484  19.018  0.00  0.00    +0.000 A 
ATOM      2  C   UNL     1       1.793   7.893  20.074  0.00  0.00    +0.000 A 
ATOM      3  C   UNL     1       1.032   9.024  19.941  0.00  0.00    +0.000 A 
ATOM      4  C   UNL     1       1.051   9.781  18.790  0.00  0.00    +0.000 A 
ATOM      5  C   UNL     1       1.808   9.349  17.690  0.00  0.00    +0.000 A 
ATOM      6  C   UNL     1       2.622   8.221  17.827  0.00  0.00    +0.000 A 
ENDROOT
BRANCH   4   7
ATOM      7  C   UNL     1      -0.019  10.754  18.679  0.00  0.00    +0.000 C 
ATOM      8  C   UNL     1       0.069  12.079  18.778  0.00  0.00    +0.000 C 
ATOM      9  C   UNL     1      -1.170  12.679  19.404  0.00  0.00    +0.000 C 
ATOM     10  O   UNL     1      -2.058  12.097  19.999  0.00  0.00    +0.000 OA
ATOM     11  N   UNL     1      -1.011  14.034  19.272  0.00  0.00    +0.000 N 
ATOM     12  C   UNL     1       0.311  14.346  18.968  0.00  0.00    +0.000 A 
ATOM     13  C   UNL     1       0.837  15.619  18.984  0.00  0.00    +0.000 A 
ATOM     14  C   UNL     1       2.174  15.761  18.620  0.00  0.00    +0.000 A 
ATOM     15  C   UNL     1       2.914  14.625  18.228  0.00  0.00    +0.000 A 
ATOM     16 CL   UNL     1       4.549  14.865  17.723  0.00  0.00    +0.000 Cl
ATOM     17  C   UNL     1       2.358  13.334  18.222  0.00  0.00    +0.000 A 
ATOM     18  C   UNL     1       1.045  13.180  18.654  0.00  0.00    +0.000 A 
ATOM     19  H   UNL     1      -1.758  14.680  19.458  0.00  0.00    +0.000 HD
ENDBRANCH   4   7
BRANCH   1  20
ATOM     20  O   UNL     1       3.447   6.384  19.083  0.00  0.00    +0.000 OA
BRANCH  20  21
ATOM     21  C   UNL     1       3.255   5.487  17.982  0.00  0.00    +0.000 C 
BRANCH  21  22
ATOM     22  C   UNL     1       2.292   4.359  18.342  0.00  0.00    +0.000 C 
BRANCH  22  23
ATOM     23  N   UNL     1       2.595   3.739  19.652  0.00  0.00    +0.000 NA
BRANCH  23  25
ATOM     24  C   UNL     1       1.468   2.644  21.616  0.00  0.00    +0.000 C 
ATOM     25  C   UNL     1       1.345   3.565  20.407  0.00  0.00    +0.000 C 
ENDBRANCH  23  25
BRANCH  23  26
ATOM     26  C   UNL     1       3.433   2.533  19.582  0.00  0.00    +0.000 C 
ATOM     27  C   UNL     1       3.344   1.722  18.293  0.00  0.00    +0.000 C 
ENDBRANCH  23  26
ENDBRANCH  22  23
ENDBRANCH  21  22
ENDBRANCH  20  21
ENDBRANCH   1  20
TORSDOF 7
ENDMDL
MODEL 9
REMARK VINA RESULT:      -7.1      5.501      8.550
REMARK  Name = 
REMARK  9 active torsions:
REMARK  status: ('A' for Active; 'I' for Inactive)
REMARK    1  A    between atoms: C_1  and  C_2
REMARK    2  A    between atoms: C_2  and  N_3
REMARK    3  A    between atoms: N_3  and  C_4
REMARK    4  A    between atoms: N_3  and  C_6
REMARK    5  A    between atoms: C_4  and  C_5
REMARK    6  A    between atoms: C_6  and  C_7
REMARK    7  A    between atoms: C_7  and  O_8
REMARK    8  A    between atoms: O_8  and  C_9
REMARK    9  A    between atoms: C_12  and  C_13
REMARK                            x       y       z     vdW  Elec       q    Type
REMARK                         _______ _______ _______ _____ _____    ______ ____
ROOT
ATOM      1  C   UNL     1       2.344   7.393  19.473  0.00  0.00    +0.000 A 
ATOM      2  C   UNL     1       1.602   8.048  20.466  0.00  0.00    +0.000 A 
ATOM      3  C   UNL     1       0.910   9.188  20.154  0.00  0.00    +0.000 A 
ATOM      4  C   UNL     1       0.918   9.719  18.883  0.00  0.00    +0.000 A 
ATOM      5  C   UNL     1       1.589   9.039  17.854  0.00  0.00    +0.000 A 
ATOM      6  C   UNL     1       2.334   7.899  18.167  0.00  0.00    +0.000 A 
ENDROOT
BRANCH   4   7
ATOM      7  C   UNL     1      -0.090  10.730  18.633  0.00  0.00    +0.000 C 
ATOM      8  C   UNL     1       0.048  12.053  18.692  0.00  0.00    +0.000 C 
ATOM      9  C   UNL     1      -1.216  12.729  19.174  0.00  0.00    +0.000 C 
ATOM     10  O   UNL     1      -2.182  12.210  19.701  0.00  0.00    +0.000 OA
ATOM     11  N   UNL     1      -0.984  14.071  19.009  0.00  0.00    +0.000 N 
ATOM     12  C   UNL     1       0.374  14.314  18.822  0.00  0.00    +0.000 A 
ATOM     13  C   UNL     1       0.954  15.564  18.842  0.00  0.00    +0.000 A 
ATOM     14  C   UNL     1       2.323  15.634  18.604  0.00  0.00    +0.000 A 
ATOM     15  C   UNL     1       3.045  14.453  18.326  0.00  0.00    +0.000 A 
ATOM     16 CL   UNL     1       4.730  14.605  17.973  0.00  0.00    +0.000 Cl
ATOM     17  C   UNL     1       2.434  13.187  18.314  0.00  0.00    +0.000 A 
ATOM     18  C   UNL     1       1.080  13.107  18.623  0.00  0.00    +0.000 A 
ATOM     19  H   UNL     1      -1.715  14.754  19.098  0.00  0.00    +0.000 HD
ENDBRANCH   4   7
BRANCH   1  20
ATOM     20  O   UNL     1       3.102   6.267  19.710  0.00  0.00    +0.000 OA
BRANCH  20  21
ATOM     21  C   UNL     1       3.876   5.876  18.568  0.00  0.00    +0.000 C 
BRANCH  21  22
ATOM     22  C   UNL     1       5.013   4.936  18.959  0.00  0.00    +0.000 C 
BRANCH  22  23
ATOM     23  N   UNL     1       6.130   4.950  17.989  0.00  0.00    +0.000 NA
BRANCH  23  25
ATOM     24  C   UNL     1       5.869   4.069  15.647  0.00  0.00    +0.000 C 
ATOM     25  C   UNL     1       5.599   5.195  16.640  0.00  0.00    +0.000 C 
ENDBRANCH  23  25
BRANCH  23  26
ATOM     26  C   UNL     1       7.258   5.817  18.362  0.00  0.00    +0.000 C 
ATOM     27  C   UNL     1       7.452   7.073  17.520  0.00  0.00    +0.000 C 
ENDBRANCH  23  26
ENDBRANCH  22  23
ENDBRANCH  21  22
ENDBRANCH  20  21
ENDBRANCH   1  20
TORSDOF 7
ENDMDL
