MODEL 1
REMARK VINA RESULT:      -6.1      0.000      0.000
REMARK  Name = 
REMARK  12 active torsions:
REMARK  status: ('A' for Active; 'I' for Inactive)
REMARK    1  A    between atoms: C_1  and  C_2
REMARK    2  A    between atoms: C_2  and  C_3
REMARK    3  A    between atoms: C_3  and  C_4
REMARK    4  A    between atoms: C_4  and  C_5
REMARK    5  A    between atoms: C_5  and  C_6
REMARK    6  A    between atoms: C_6  and  C_7
REMARK    7  A    between atoms: C_7  and  C_8
REMARK    8  A    between atoms: C_8  and  O_9
REMARK    9  A    between atoms: O_9  and  C_10
REMARK   10  A    between atoms: C_10  and  N_11
REMARK   11  A    between atoms: C_15  and  C_16
REMARK   12  A    between atoms: N_17  and  O_18
REMARK                            x       y       z     vdW  Elec       q    Type
REMARK                         _______ _______ _______ _____ _____    ______ ____
ROOT
ATOM      1  C   UNL     1       3.222   3.402  17.179  0.00  0.00    +0.000 C 
ENDROOT
BRANCH   1   2
ATOM      2  N   UNL     1       4.449   4.163  16.912  0.00  0.00    +0.000 N 
ATOM      3  C   UNL     1       4.674   4.681  15.680  0.00  0.00    +0.000 A 
ATOM      4  C   UNL     1       5.842   5.398  15.425  0.00  0.00    +0.000 A 
ATOM      5  C   UNL     1       6.786   5.561  16.434  0.00  0.00    +0.000 A 
ATOM      6  C   UNL     1       6.540   5.000  17.684  0.00  0.00    +0.000 A 
ATOM      7  C   UNL     1       5.356   4.307  17.904  0.00  0.00    +0.000 A 
BRANCH   6   8
ATOM      8  C   UNL     1       7.528   5.122  18.765  0.00  0.00    +0.000 C 
ATOM      9  N   UNL     1       7.140   5.296  19.986  0.00  0.00    +0.000 NA
BRANCH   9  10
ATOM     10  O   UNL     1       8.273   5.367  20.807  0.00  0.00    +0.000 OA
ATOM     11  H   UNL     1       8.851   5.994  20.333  0.00  0.00    +0.000 HD
ENDBRANCH   9  10
ENDBRANCH   6   8
ENDBRANCH   1   2
BRANCH   1  12
ATOM     12  O   UNL     1       3.530   2.378  18.107  0.00  0.00    +0.000 OA
BRANCH  12  13
ATOM     13  C   UNL     1       2.372   1.777  18.694  0.00  0.00    +0.000 C 
BRANCH  13  14
ATOM     14  C   UNL     1       1.301   2.805  19.062  0.00  0.00    +0.000 C 
BRANCH  14  15
ATOM     15  C   UNL     1       1.405   3.292  20.510  0.00  0.00    +0.000 C 
BRANCH  15  16
ATOM     16  C   UNL     1       1.520   4.814  20.591  0.00  0.00    +0.000 C 
BRANCH  16  17
ATOM     17  C   UNL     1       1.858   5.420  19.234  0.00  0.00    +0.000 C 
BRANCH  17  18
ATOM     18  C   UNL     1       2.750   6.650  19.400  0.00  0.00    +0.000 C 
BRANCH  18  20
ATOM     19  C   UNL     1       2.151   8.505  17.806  0.00  0.00    +0.000 C 
ATOM     20  C   UNL     1       3.041   7.298  18.049  0.00  0.00    +0.000 C 
ENDBRANCH  18  20
ENDBRANCH  17  18
ENDBRANCH  16  17
ENDBRANCH  15  16
ENDBRANCH  14  15
ENDBRANCH  13  14
ENDBRANCH  12  13
ENDBRANCH   1  12
TORSDOF 11
ENDMDL
MODEL 2
REMARK VINA RESULT:      -6.0      2.479      4.151
REMARK  Name = 
REMARK  12 active torsions:
REMARK  status: ('A' for Active; 'I' for Inactive)
REMARK    1  A    between atoms: C_1  and  C_2
REMARK    2  A    between atoms: C_2  and  C_3
REMARK    3  A    between atoms: C_3  and  C_4
REMARK    4  A    between atoms: C_4  and  C_5
REMARK    5  A    between atoms: C_5  and  C_6
REMARK    6  A    between atoms: C_6  and  C_7
REMARK    7  A    between atoms: C_7  and  C_8
REMARK    8  A    between atoms: C_8  and  O_9
REMARK    9  A    between atoms: O_9  and  C_10
REMARK   10  A    between atoms: C_10  and  N_11
REMARK   11  A    between atoms: C_15  and  C_16
REMARK   12  A    between atoms: N_17  and  O_18
REMARK                            x       y       z     vdW  Elec       q    Type
REMARK                         _______ _______ _______ _____ _____    ______ ____
ROOT
ATOM      1  C   UNL     1       3.598   6.182  17.851  0.00  0.00    +0.000 C 
ENDROOT
BRANCH   1   2
ATOM      2  N   UNL     1       4.917   5.642  17.499  0.00  0.00    +0.000 N 
ATOM      3  C   UNL     1       5.817   5.356  18.471  0.00  0.00    +0.000 A 
ATOM      4  C   UNL     1       7.072   4.850  18.136  0.00  0.00    +0.000 A 
ATOM      5  C   UNL     1       7.404   4.659  16.798  0.00  0.00    +0.000 A 
ATOM      6  C   UNL     1       6.469   4.981  15.819  0.00  0.00    +0.000 A 
ATOM      7  C   UNL     1       5.223   5.469  16.193  0.00  0.00    +0.000 A 
BRANCH   6   8
ATOM      8  C   UNL     1       6.795   4.826  14.394  0.00  0.00    +0.000 C 
ATOM      9  N   UNL     1       7.778   5.485  13.874  0.00  0.00    +0.000 NA
BRANCH   9  10
ATOM     10  O   UNL     1       7.876   5.145  12.519  0.00  0.00    +0.000 OA
ATOM     11  H   UNL     1       7.955   4.172  12.540  0.00  0.00    +0.000 HD
ENDBRANCH   9  10
ENDBRANCH   6   8
ENDBRANCH   1   2
BRANCH   1  12
ATOM     12  O   UNL     1       3.512   6.255  19.263  0.00  0.00    +0.000 OA
BRANCH  12  13
ATOM     13  C   UNL     1       2.391   7.013  19.725  0.00  0.00    +0.000 C 
BRANCH  13  14
ATOM     14  C   UNL     1       1.580   6.271  20.789  0.00  0.00    +0.000 C 
BRANCH  14  15
ATOM     15  C   UNL     1       1.969   4.796  20.923  0.00  0.00    +0.000 C 
BRANCH  15  16
ATOM     16  C   UNL     1       0.916   3.873  20.311  0.00  0.00    +0.000 C 
BRANCH  16  17
ATOM     17  C   UNL     1       1.524   2.543  19.878  0.00  0.00    +0.000 C 
BRANCH  17  18
ATOM     18  C   UNL     1       1.516   2.417  18.355  0.00  0.00    +0.000 C 
BRANCH  18  20
ATOM     19  C   UNL     1       3.966   2.310  18.928  0.00  0.00    +0.000 C 
ATOM     20  C   UNL     1       2.932   2.222  17.818  0.00  0.00    +0.000 C 
ENDBRANCH  18  20
ENDBRANCH  17  18
ENDBRANCH  16  17
ENDBRANCH  15  16
ENDBRANCH  14  15
ENDBRANCH  13  14
ENDBRANCH  12  13
ENDBRANCH   1  12
TORSDOF 11
ENDMDL
MODEL 3
REMARK VINA RESULT:      -5.9      3.625      6.790
REMARK  Name = 
REMARK  12 active torsions:
REMARK  status: ('A' for Active; 'I' for Inactive)
REMARK    1  A    between atoms: C_1  and  C_2
REMARK    2  A    between atoms: C_2  and  C_3
REMARK    3  A    between atoms: C_3  and  C_4
REMARK    4  A    between atoms: C_4  and  C_5
REMARK    5  A    between atoms: C_5  and  C_6
REMARK    6  A    between atoms: C_6  and  C_7
REMARK    7  A    between atoms: C_7  and  C_8
REMARK    8  A    between atoms: C_8  and  O_9
REMARK    9  A    between atoms: O_9  and  C_10
REMARK   10  A    between atoms: C_10  and  N_11
REMARK   11  A    between atoms: C_15  and  C_16
REMARK   12  A    between atoms: N_17  and  O_18
REMARK                            x       y       z     vdW  Elec       q    Type
REMARK                         _______ _______ _______ _____ _____    ______ ____
ROOT
ATOM      1  C   UNL     1       5.407   5.875  16.056  0.00  0.00    +0.000 C 
ENDROOT
BRANCH   1   2
ATOM      2  N   UNL     1       4.283   5.973  16.996  0.00  0.00    +0.000 N 
ATOM      3  C   UNL     1       3.944   7.173  17.528  0.00  0.00    +0.000 A 
ATOM      4  C   UNL     1       2.882   7.264  18.427  0.00  0.00    +0.000 A 
ATOM      5  C   UNL     1       2.184   6.116  18.790  0.00  0.00    +0.000 A 
ATOM      6  C   UNL     1       2.567   4.894  18.245  0.00  0.00    +0.000 A 
ATOM      7  C   UNL     1       3.621   4.846  17.341  0.00  0.00    +0.000 A 
BRANCH   6   8
ATOM      8  C   UNL     1       1.877   3.655  18.630  0.00  0.00    +0.000 C 
ATOM      9  N   UNL     1       0.757   3.705  19.273  0.00  0.00    +0.000 NA
BRANCH   9  10
ATOM     10  O   UNL     1       0.315   2.395  19.501  0.00  0.00    +0.000 OA
ATOM     11  H   UNL     1       0.771   2.149  20.328  0.00  0.00    +0.000 HD
ENDBRANCH   9  10
ENDBRANCH   6   8
ENDBRANCH   1   2
BRANCH   1  12
ATOM     12  O   UNL     1       5.958   4.575  16.160  0.00  0.00    +0.000 OA
BRANCH  12  13
ATOM     13  C   UNL     1       6.593   4.130  14.958  0.00  0.00    +0.000 C 
BRANCH  13  14
ATOM     14  C   UNL     1       5.602   3.940  13.808  0.00  0.00    +0.000 C 
BRANCH  14  15
ATOM     15  C   UNL     1       6.259   3.420  12.526  0.00  0.00    +0.000 C 
BRANCH  15  16
ATOM     16  C   UNL     1       5.233   2.823  11.564  0.00  0.00    +0.000 C 
BRANCH  16  17
ATOM     17  C   UNL     1       4.031   3.744  11.388  0.00  0.00    +0.000 C 
BRANCH  17  18
ATOM     18  C   UNL     1       3.085   3.198  10.318  0.00  0.00    +0.000 C 
BRANCH  18  20
ATOM     19  C   UNL     1       2.047   5.071   8.994  0.00  0.00    +0.000 C 
ATOM     20  C   UNL     1       3.160   4.038   9.046  0.00  0.00    +0.000 C 
ENDBRANCH  18  20
ENDBRANCH  17  18
ENDBRANCH  16  17
ENDBRANCH  15  16
ENDBRANCH  14  15
ENDBRANCH  13  14
ENDBRANCH  12  13
ENDBRANCH   1  12
TORSDOF 11
ENDMDL
MODEL 4
REMARK VINA RESULT:      -5.9      3.255      6.389
REMARK  Name = 
REMARK  12 active torsions:
REMARK  status: ('A' for Active; 'I' for Inactive)
REMARK    1  A    between atoms: C_1  and  C_2
REMARK    2  A    between atoms: C_2  and  C_3
REMARK    3  A    between atoms: C_3  and  C_4
REMARK    4  A    between atoms: C_4  and  C_5
REMARK    5  A    between atoms: C_5  and  C_6
REMARK    6  A    between atoms: C_6  and  C_7
REMARK    7  A    between atoms: C_7  and  C_8
REMARK    8  A    between atoms: C_8  and  O_9
REMARK    9  A    between atoms: O_9  and  C_10
REMARK   10  A    between atoms: C_10  and  N_11
REMARK   11  A    between atoms: C_15  and  C_16
REMARK   12  A    between atoms: N_17  and  O_18
REMARK                            x       y       z     vdW  Elec       q    Type
REMARK                         _______ _______ _______ _____ _____    ______ ____
ROOT
ATOM      1  C   UNL     1       5.214   5.689  17.428  0.00  0.00    +0.000 C 
ENDROOT
BRANCH   1   2
ATOM      2  N   UNL     1       4.168   4.704  17.729  0.00  0.00    +0.000 N 
ATOM      3  C   UNL     1       3.653   3.934  16.739  0.00  0.00    +0.000 A 
ATOM      4  C   UNL     1       2.654   3.004  17.025  0.00  0.00    +0.000 A 
ATOM      5  C   UNL     1       2.174   2.884  18.326  0.00  0.00    +0.000 A 
ATOM      6  C   UNL     1       2.705   3.702  19.318  0.00  0.00    +0.000 A 
ATOM      7  C   UNL     1       3.710   4.606  18.998  0.00  0.00    +0.000 A 
BRANCH   6   8
ATOM      8  C   UNL     1       2.199   3.630  20.696  0.00  0.00    +0.000 C 
ATOM      9  N   UNL     1       1.785   2.505  21.181  0.00  0.00    +0.000 NA
BRANCH   9  10
ATOM     10  O   UNL     1       1.373   2.714  22.503  0.00  0.00    +0.000 OA
ATOM     11  H   UNL     1       0.607   2.117  22.593  0.00  0.00    +0.000 HD
ENDBRANCH   9  10
ENDBRANCH   6   8
ENDBRANCH   1   2
BRANCH   1  12
ATOM     12  O   UNL     1       6.450   5.006  17.331  0.00  0.00    +0.000 OA
BRANCH  12  13
ATOM     13  C   UNL     1       7.128   5.230  16.091  0.00  0.00    +0.000 C 
BRANCH  13  14
ATOM     14  C   UNL     1       6.192   5.135  14.885  0.00  0.00    +0.000 C 
BRANCH  14  15
ATOM     15  C   UNL     1       6.191   3.750  14.231  0.00  0.00    +0.000 C 
BRANCH  15  16
ATOM     16  C   UNL     1       6.533   3.825  12.743  0.00  0.00    +0.000 C 
BRANCH  16  17
ATOM     17  C   UNL     1       5.596   2.956  11.911  0.00  0.00    +0.000 C 
BRANCH  17  18
ATOM     18  C   UNL     1       4.236   3.634  11.747  0.00  0.00    +0.000 C 
BRANCH  18  20
ATOM     19  C   UNL     1       3.016   4.156   9.607  0.00  0.00    +0.000 C 
ATOM     20  C   UNL     1       3.484   3.060  10.549  0.00  0.00    +0.000 C 
ENDBRANCH  18  20
ENDBRANCH  17  18
ENDBRANCH  16  17
ENDBRANCH  15  16
ENDBRANCH  14  15
ENDBRANCH  13  14
ENDBRANCH  12  13
ENDBRANCH   1  12
TORSDOF 11
ENDMDL
MODEL 5
REMARK VINA RESULT:      -5.8      3.668      5.864
REMARK  Name = 
REMARK  12 active torsions:
REMARK  status: ('A' for Active; 'I' for Inactive)
REMARK    1  A    between atoms: C_1  and  C_2
REMARK    2  A    between atoms: C_2  and  C_3
REMARK    3  A    between atoms: C_3  and  C_4
REMARK    4  A    between atoms: C_4  and  C_5
REMARK    5  A    between atoms: C_5  and  C_6
REMARK    6  A    between atoms: C_6  and  C_7
REMARK    7  A    between atoms: C_7  and  C_8
REMARK    8  A    between atoms: C_8  and  O_9
REMARK    9  A    between atoms: O_9  and  C_10
REMARK   10  A    between atoms: C_10  and  N_11
REMARK   11  A    between atoms: C_15  and  C_16
REMARK   12  A    between atoms: N_17  and  O_18
REMARK                            x       y       z     vdW  Elec       q    Type
REMARK                         _______ _______ _______ _____ _____    ______ ____
ROOT
ATOM      1  C   UNL     1       3.185   6.104  18.973  0.00  0.00    +0.000 C 
ENDROOT
BRANCH   1   2
ATOM      2  N   UNL     1       2.392   7.333  19.101  0.00  0.00    +0.000 N 
ATOM      3  C   UNL     1       2.226   8.149  18.031  0.00  0.00    +0.000 A 
ATOM      4  C   UNL     1       1.480   9.320  18.155  0.00  0.00    +0.000 A 
ATOM      5  C   UNL     1       0.922   9.657  19.385  0.00  0.00    +0.000 A 
ATOM      6  C   UNL     1       1.127   8.812  20.471  0.00  0.00    +0.000 A 
ATOM      7  C   UNL     1       1.864   7.646  20.305  0.00  0.00    +0.000 A 
BRANCH   6   8
ATOM      8  C   UNL     1       0.583   9.151  21.794  0.00  0.00    +0.000 C 
ATOM      9  N   UNL     1       0.419  10.387  22.135  0.00  0.00    +0.000 NA
BRANCH   9  10
ATOM     10  O   UNL     1      -0.119  10.426  23.427  0.00  0.00    +0.000 OA
ATOM     11  H   UNL     1       0.611  10.088  23.981  0.00  0.00    +0.000 HD
ENDBRANCH   9  10
ENDBRANCH   6   8
ENDBRANCH   1   2
BRANCH   1  12
ATOM     12  O   UNL     1       3.272   5.774  17.600  0.00  0.00    +0.000 OA
BRANCH  12  13
ATOM     13  C   UNL     1       4.053   4.602  17.345  0.00  0.00    +0.000 C 
BRANCH  13  14
ATOM     14  C   UNL     1       4.800   4.114  18.588  0.00  0.00    +0.000 C 
BRANCH  14  15
ATOM     15  C   UNL     1       4.334   2.737  19.069  0.00  0.00    +0.000 C 
BRANCH  15  16
ATOM     16  C   UNL     1       3.207   2.182  18.198  0.00  0.00    +0.000 C 
BRANCH  16  17
ATOM     17  C   UNL     1       1.949   1.914  19.017  0.00  0.00    +0.000 C 
BRANCH  17  18
ATOM     18  C   UNL     1       1.092   3.176  19.116  0.00  0.00    +0.000 C 
BRANCH  18  20
ATOM     19  C   UNL     1       1.504   2.599  21.532  0.00  0.00    +0.000 C 
ATOM     20  C   UNL     1       0.984   3.648  20.563  0.00  0.00    +0.000 C 
ENDBRANCH  18  20
ENDBRANCH  17  18
ENDBRANCH  16  17
ENDBRANCH  15  16
ENDBRANCH  14  15
ENDBRANCH  13  14
ENDBRANCH  12  13
ENDBRANCH   1  12
TORSDOF 11
ENDMDL
MODEL 6
REMARK VINA RESULT:      -5.8      0.722      1.092
REMARK  Name = 
REMARK  12 active torsions:
REMARK  status: ('A' for Active; 'I' for Inactive)
REMARK    1  A    between atoms: C_1  and  C_2
REMARK    2  A    between atoms: C_2  and  C_3
REMARK    3  A    between atoms: C_3  and  C_4
REMARK    4  A    between atoms: C_4  and  C_5
REMARK    5  A    between atoms: C_5  and  C_6
REMARK    6  A    between atoms: C_6  and  C_7
REMARK    7  A    between atoms: C_7  and  C_8
REMARK    8  A    between atoms: C_8  and  O_9
REMARK    9  A    between atoms: O_9  and  C_10
REMARK   10  A    between atoms: C_10  and  N_11
REMARK   11  A    between atoms: C_15  and  C_16
REMARK   12  A    between atoms: N_17  and  O_18
REMARK                            x       y       z     vdW  Elec       q    Type
REMARK                         _______ _______ _______ _____ _____    ______ ____
ROOT
ATOM      1  C   UNL     1       3.274   3.544  17.093  0.00  0.00    +0.000 C 
ENDROOT
BRANCH   1   2
ATOM      2  N   UNL     1       4.566   4.167  16.779  0.00  0.00    +0.000 N 
ATOM      3  C   UNL     1       4.925   4.376  15.489  0.00  0.00    +0.000 A 
ATOM      4  C   UNL     1       6.155   4.961  15.191  0.00  0.00    +0.000 A 
ATOM      5  C   UNL     1       7.021   5.311  16.223  0.00  0.00    +0.000 A 
ATOM      6  C   UNL     1       6.636   5.066  17.538  0.00  0.00    +0.000 A 
ATOM      7  C   UNL     1       5.395   4.495  17.795  0.00  0.00    +0.000 A 
BRANCH   6   8
ATOM      8  C   UNL     1       7.537   5.390  18.653  0.00  0.00    +0.000 C 
ATOM      9  N   UNL     1       7.185   5.136  19.871  0.00  0.00    +0.000 NA
BRANCH   9  10
ATOM     10  O   UNL     1       8.223   5.529  20.726  0.00  0.00    +0.000 OA
ATOM     11  H   UNL     1       8.180   4.869  21.444  0.00  0.00    +0.000 HD
ENDBRANCH   9  10
ENDBRANCH   6   8
ENDBRANCH   1   2
BRANCH   1  12
ATOM     12  O   UNL     1       3.521   2.250  17.610  0.00  0.00    +0.000 OA
BRANCH  12  13
ATOM     13  C   UNL     1       2.707   1.924  18.740  0.00  0.00    +0.000 C 
BRANCH  13  14
ATOM     14  C   UNL     1       3.349   2.339  20.065  0.00  0.00    +0.000 C 
BRANCH  14  15
ATOM     15  C   UNL     1       2.352   2.951  21.053  0.00  0.00    +0.000 C 
BRANCH  15  16
ATOM     16  C   UNL     1       1.087   3.443  20.352  0.00  0.00    +0.000 C 
BRANCH  16  17
ATOM     17  C   UNL     1       1.306   4.802  19.696  0.00  0.00    +0.000 C 
BRANCH  17  18
ATOM     18  C   UNL     1       1.859   5.806  20.707  0.00  0.00    +0.000 C 
BRANCH  18  20
ATOM     19  C   UNL     1       2.695   7.123  18.731  0.00  0.00    +0.000 C 
ATOM     20  C   UNL     1       1.998   7.190  20.079  0.00  0.00    +0.000 C 
ENDBRANCH  18  20
ENDBRANCH  17  18
ENDBRANCH  16  17
ENDBRANCH  15  16
ENDBRANCH  14  15
ENDBRANCH  13  14
ENDBRANCH  12  13
ENDBRANCH   1  12
TORSDOF 11
ENDMDL
MODEL 7
REMARK VINA RESULT:      -5.8      2.875      6.195
REMARK  Name = 
REMARK  12 active torsions:
REMARK  status: ('A' for Active; 'I' for Inactive)
REMARK    1  A    between atoms: C_1  and  C_2
REMARK    2  A    between atoms: C_2  and  C_3
REMARK    3  A    between atoms: C_3  and  C_4
REMARK    4  A    between atoms: C_4  and  C_5
REMARK    5  A    between atoms: C_5  and  C_6
REMARK    6  A    between atoms: C_6  and  C_7
REMARK    7  A    between atoms: C_7  and  C_8
REMARK    8  A    between atoms: C_8  and  O_9
REMARK    9  A    between atoms: O_9  and  C_10
REMARK   10  A    between atoms: C_10  and  N_11
REMARK   11  A    between atoms: C_15  and  C_16
REMARK   12  A    between atoms: N_17  and  O_18
REMARK                            x       y       z     vdW  Elec       q    Type
REMARK                         _______ _______ _______ _____ _____    ______ ____
ROOT
ATOM      1  C   UNL     1       5.455   4.646  19.186  0.00  0.00    +0.000 C 
ENDROOT
BRANCH   1   2
ATOM      2  N   UNL     1       4.032   4.360  18.968  0.00  0.00    +0.000 N 
ATOM      3  C   UNL     1       3.419   4.781  17.835  0.00  0.00    +0.000 A 
ATOM      4  C   UNL     1       2.066   4.515  17.632  0.00  0.00    +0.000 A 
ATOM      5  C   UNL     1       1.342   3.834  18.606  0.00  0.00    +0.000 A 
ATOM      6  C   UNL     1       1.991   3.432  19.769  0.00  0.00    +0.000 A 
ATOM      7  C   UNL     1       3.345   3.701  19.928  0.00  0.00    +0.000 A 
BRANCH   6   8
ATOM      8  C   UNL     1       1.253   2.740  20.836  0.00  0.00    +0.000 C 
ATOM      9  N   UNL     1       1.710   2.732  22.045  0.00  0.00    +0.000 NA
BRANCH   9  10
ATOM     10  O   UNL     1       0.815   2.020  22.855  0.00  0.00    +0.000 OA
ATOM     11  H   UNL     1       1.369   1.305  23.220  0.00  0.00    +0.000 HD
ENDBRANCH   9  10
ENDBRANCH   6   8
ENDBRANCH   1   2
BRANCH   1  12
ATOM     12  O   UNL     1       6.202   3.947  18.207  0.00  0.00    +0.000 OA
BRANCH  12  13
ATOM     13  C   UNL     1       7.352   4.666  17.749  0.00  0.00    +0.000 C 
BRANCH  13  14
ATOM     14  C   UNL     1       7.040   5.571  16.556  0.00  0.00    +0.000 C 
BRANCH  14  15
ATOM     15  C   UNL     1       6.865   4.801  15.244  0.00  0.00    +0.000 C 
BRANCH  15  16
ATOM     16  C   UNL     1       5.402   4.442  14.987  0.00  0.00    +0.000 C 
BRANCH  16  17
ATOM     17  C   UNL     1       5.137   4.210  13.504  0.00  0.00    +0.000 C 
BRANCH  17  18
ATOM     18  C   UNL     1       6.202   3.292  12.903  0.00  0.00    +0.000 C 
BRANCH  18  20
ATOM     19  C   UNL     1       4.312   3.142  11.246  0.00  0.00    +0.000 C 
ATOM     20  C   UNL     1       5.691   2.630  11.627  0.00  0.00    +0.000 C 
ENDBRANCH  18  20
ENDBRANCH  17  18
ENDBRANCH  16  17
ENDBRANCH  15  16
ENDBRANCH  14  15
ENDBRANCH  13  14
ENDBRANCH  12  13
ENDBRANCH   1  12
TORSDOF 11
ENDMDL
MODEL 8
REMARK VINA RESULT:      -5.8      1.466      3.083
REMARK  Name = 
REMARK  12 active torsions:
REMARK  status: ('A' for Active; 'I' for Inactive)
REMARK    1  A    between atoms: C_1  and  C_2
REMARK    2  A    between atoms: C_2  and  C_3
REMARK    3  A    between atoms: C_3  and  C_4
REMARK    4  A    between atoms: C_4  and  C_5
REMARK    5  A    between atoms: C_5  and  C_6
REMARK    6  A    between atoms: C_6  and  C_7
REMARK    7  A    between atoms: C_7  and  C_8
REMARK    8  A    between atoms: C_8  and  O_9
REMARK    9  A    between atoms: O_9  and  C_10
REMARK   10  A    between atoms: C_10  and  N_11
REMARK   11  A    between atoms: C_15  and  C_16
REMARK   12  A    between atoms: N_17  and  O_18
REMARK                            x       y       z     vdW  Elec       q    Type
REMARK                         _______ _______ _______ _____ _____    ______ ____
ROOT
ATOM      1  C   UNL     1       3.362   6.247  17.569  0.00  0.00    +0.000 C 
ENDROOT
BRANCH   1   2
ATOM      2  N   UNL     1       4.680   5.692  17.235  0.00  0.00    +0.000 N 
ATOM      3  C   UNL     1       4.927   5.232  15.985  0.00  0.00    +0.000 A 
ATOM      4  C   UNL     1       6.176   4.698  15.670  0.00  0.00    +0.000 A 
ATOM      5  C   UNL     1       7.161   4.622  16.650  0.00  0.00    +0.000 A 
ATOM      6  C   UNL     1       6.873   5.082  17.931  0.00  0.00    +0.000 A 
ATOM      7  C   UNL     1       5.622   5.622  18.203  0.00  0.00    +0.000 A 
BRANCH   6   8
ATOM      8  C   UNL     1       7.876   4.987  19.002  0.00  0.00    +0.000 C 
ATOM      9  N   UNL     1       7.551   5.250  20.225  0.00  0.00    +0.000 NA
BRANCH   9  10
ATOM     10  O   UNL     1       8.680   5.072  21.035  0.00  0.00    +0.000 OA
ATOM     11  H   UNL     1       8.304   5.048  21.936  0.00  0.00    +0.000 HD
ENDBRANCH   9  10
ENDBRANCH   6   8
ENDBRANCH   1   2
BRANCH   1  12
ATOM     12  O   UNL     1       3.382   6.647  18.927  0.00  0.00    +0.000 OA
BRANCH  12  13
ATOM     13  C   UNL     1       2.150   7.227  19.367  0.00  0.00    +0.000 C 
BRANCH  13  14
ATOM     14  C   UNL     1       1.542   6.481  20.556  0.00  0.00    +0.000 C 
BRANCH  14  15
ATOM     15  C   UNL     1       2.077   5.054  20.710  0.00  0.00    +0.000 C 
BRANCH  15  16
ATOM     16  C   UNL     1       1.014   4.009  20.373  0.00  0.00    +0.000 C 
BRANCH  16  17
ATOM     17  C   UNL     1       1.645   2.683  19.965  0.00  0.00    +0.000 C 
BRANCH  17  18
ATOM     18  C   UNL     1       3.141   2.678  20.281  0.00  0.00    +0.000 C 
BRANCH  18  20
ATOM     19  C   UNL     1       3.063   1.929  17.878  0.00  0.00    +0.000 C 
ATOM     20  C   UNL     1       3.958   2.327  19.040  0.00  0.00    +0.000 C 
ENDBRANCH  18  20
ENDBRANCH  17  18
ENDBRANCH  16  17
ENDBRANCH  15  16
ENDBRANCH  14  15
ENDBRANCH  13  14
ENDBRANCH  12  13
ENDBRANCH   1  12
TORSDOF 11
ENDMDL
MODEL 9
REMARK VINA RESULT:      -5.7      3.647      6.309
REMARK  Name = 
REMARK  12 active torsions:
REMARK  status: ('A' for Active; 'I' for Inactive)
REMARK    1  A    between atoms: C_1  and  C_2
REMARK    2  A    between atoms: C_2  and  C_3
REMARK    3  A    between atoms: C_3  and  C_4
REMARK    4  A    between atoms: C_4  and  C_5
REMARK    5  A    between atoms: C_5  and  C_6
REMARK    6  A    between atoms: C_6  and  C_7
REMARK    7  A    between atoms: C_7  and  C_8
REMARK    8  A    between atoms: C_8  and  O_9
REMARK    9  A    between atoms: O_9  and  C_10
REMARK   10  A    between atoms: C_10  and  N_11
REMARK   11  A    between atoms: C_15  and  C_16
REMARK   12  A    between atoms: N_17  and  O_18
REMARK                            x       y       z     vdW  Elec       q    Type
REMARK                         _______ _______ _______ _____ _____    ______ ____
ROOT
ATOM      1  C   UNL     1       6.431   5.850  17.359  0.00  0.00    +0.000 C 
ENDROOT
BRANCH   1   2
ATOM      2  N   UNL     1       5.216   5.154  17.799  0.00  0.00    +0.000 N 
ATOM      3  C   UNL     1       3.996   5.612  17.423  0.00  0.00    +0.000 A 
ATOM      4  C   UNL     1       2.842   4.955  17.847  0.00  0.00    +0.000 A 
ATOM      5  C   UNL     1       2.946   3.840  18.673  0.00  0.00    +0.000 A 
ATOM      6  C   UNL     1       4.210   3.404  19.061  0.00  0.00    +0.000 A 
ATOM      7  C   UNL     1       5.337   4.076  18.605  0.00  0.00    +0.000 A 
BRANCH   6   8
ATOM      8  C   UNL     1       4.359   2.252  19.961  0.00  0.00    +0.000 C 
ATOM      9  N   UNL     1       5.195   2.297  20.946  0.00  0.00    +0.000 NA
BRANCH   9  10
ATOM     10  O   UNL     1       5.129   1.084  21.643  0.00  0.00    +0.000 OA
ATOM     11  H   UNL     1       5.176   1.362  22.577  0.00  0.00    +0.000 HD
ENDBRANCH   9  10
ENDBRANCH   6   8
ENDBRANCH   1   2
BRANCH   1  12
ATOM     12  O   UNL     1       6.325   6.090  15.968  0.00  0.00    +0.000 OA
BRANCH  12  13
ATOM     13  C   UNL     1       6.786   4.999  15.166  0.00  0.00    +0.000 C 
BRANCH  13  14
ATOM     14  C   UNL     1       5.691   4.438  14.256  0.00  0.00    +0.000 C 
BRANCH  14  15
ATOM     15  C   UNL     1       6.244   3.706  13.030  0.00  0.00    +0.000 C 
BRANCH  15  16
ATOM     16  C   UNL     1       5.144   2.972  12.263  0.00  0.00    +0.000 C 
BRANCH  16  17
ATOM     17  C   UNL     1       4.728   3.740  11.013  0.00  0.00    +0.000 C 
BRANCH  17  18
ATOM     18  C   UNL     1       3.276   3.431  10.649  0.00  0.00    +0.000 C 
BRANCH  18  20
ATOM     19  C   UNL     1       2.114   5.056   9.116  0.00  0.00    +0.000 C 
ATOM     20  C   UNL     1       2.986   3.814   9.200  0.00  0.00    +0.000 C 
ENDBRANCH  18  20
ENDBRANCH  17  18
ENDBRANCH  16  17
ENDBRANCH  15  16
ENDBRANCH  14  15
ENDBRANCH  13  14
ENDBRANCH  12  13
ENDBRANCH   1  12
TORSDOF 11
ENDMDL
