MODEL 1
REMARK VINA RESULT:      -7.5      0.000      0.000
REMARK  Name = 
REMARK  5 active torsions:
REMARK  status: ('A' for Active; 'I' for Inactive)
REMARK    1  A    between atoms: C_1  and  C_2
REMARK    2  A    between atoms: C_2  and  C_3
REMARK    3  A    between atoms: C_2  and  C_16
REMARK    4  A    between atoms: C_3  and  N_4
REMARK    5  A    between atoms: C_5  and  C_7
REMARK                            x       y       z     vdW  Elec       q    Type
REMARK                         _______ _______ _______ _____ _____    ______ ____
ROOT
ATOM      1  N   UNL     1       4.591   5.528  17.889  0.00  0.00    +0.000 N 
ATOM      2  C   UNL     1       5.820   4.913  17.722  0.00  0.00    +0.000 C 
ATOM      3  O   UNL     1       6.501   4.525  18.670  0.00  0.00    +0.000 OA
ATOM      4  H   UNL     1       4.229   5.986  17.058  0.00  0.00    +0.000 HD
ENDROOT
BRANCH   2   5
ATOM      5  C   UNL     1       6.223   4.780  16.303  0.00  0.00    +0.000 A 
ATOM      6  N   UNL     1       7.266   5.524  15.746  0.00  0.00    +0.000 NA
ATOM      7  C   UNL     1       7.286   5.129  14.499  0.00  0.00    +0.000 A 
ATOM      8  N   UNL     1       6.315   4.186  14.313  0.00  0.00    +0.000 N 
ATOM      9  N   UNL     1       5.614   3.954  15.428  0.00  0.00    +0.000 NA
ATOM     10  C   UNL     1       5.984   3.588  13.040  0.00  0.00    +0.000 C 
ATOM     11  C   UNL     1       7.108   3.797  12.024  0.00  0.00    +0.000 C 
ATOM     12  C   UNL     1       7.658   5.223  12.113  0.00  0.00    +0.000 C 
ATOM     13  N   UNL     1       8.080   5.514  13.477  0.00  0.00    +0.000 N 
ATOM     14  H   UNL     1       8.619   6.365  13.612  0.00  0.00    +0.000 HD
ENDBRANCH   2   5
BRANCH   1  15
ATOM     15  C   UNL     1       4.090   5.899  19.200  0.00  0.00    +0.000 C 
BRANCH  15  17
ATOM     16  C   UNL     1       2.113   7.071  20.309  0.00  0.00    +0.000 C 
ATOM     17  C   UNL     1       2.555   6.005  19.303  0.00  0.00    +0.000 C 
BRANCH  17  18
ATOM     18  C   UNL     1       1.902   4.667  19.592  0.00  0.00    +0.000 A 
ATOM     19  C   UNL     1       1.564   4.100  20.806  0.00  0.00    +0.000 A 
ATOM     20  C   UNL     1       0.985   2.807  20.664  0.00  0.00    +0.000 A 
ATOM     21  C   UNL     1       0.860   2.441  19.343  0.00  0.00    +0.000 A 
ATOM     22  S   UNL     1       1.462   3.640  18.287  0.00  0.00    +0.000 S 
ENDBRANCH  17  18
ENDBRANCH  15  17
ENDBRANCH   1  15
TORSDOF 4
ENDMDL
MODEL 2
REMARK VINA RESULT:      -7.2      1.305      2.447
REMARK  Name = 
REMARK  5 active torsions:
REMARK  status: ('A' for Active; 'I' for Inactive)
REMARK    1  A    between atoms: C_1  and  C_2
REMARK    2  A    between atoms: C_2  and  C_3
REMARK    3  A    between atoms: C_2  and  C_16
REMARK    4  A    between atoms: C_3  and  N_4
REMARK    5  A    between atoms: C_5  and  C_7
REMARK                            x       y       z     vdW  Elec       q    Type
REMARK                         _______ _______ _______ _____ _____    ______ ____
ROOT
ATOM      1  N   UNL     1       4.881   3.428  18.116  0.00  0.00    +0.000 N 
ATOM      2  C   UNL     1       5.970   4.251  17.881  0.00  0.00    +0.000 C 
ATOM      3  O   UNL     1       6.551   4.853  18.782  0.00  0.00    +0.000 OA
ATOM      4  H   UNL     1       4.365   3.160  17.284  0.00  0.00    +0.000 HD
ENDROOT
BRANCH   2   5
ATOM      5  C   UNL     1       6.349   4.332  16.451  0.00  0.00    +0.000 A 
ATOM      6  N   UNL     1       7.355   5.184  15.989  0.00  0.00    +0.000 NA
ATOM      7  C   UNL     1       7.362   4.967  14.698  0.00  0.00    +0.000 A 
ATOM      8  N   UNL     1       6.420   4.025  14.397  0.00  0.00    +0.000 N 
ATOM      9  N   UNL     1       5.750   3.614  15.479  0.00  0.00    +0.000 NA
ATOM     10  C   UNL     1       6.084   3.599  13.058  0.00  0.00    +0.000 C 
ATOM     11  C   UNL     1       7.180   3.987  12.064  0.00  0.00    +0.000 C 
ATOM     12  C   UNL     1       7.683   5.407  12.344  0.00  0.00    +0.000 C 
ATOM     13  N   UNL     1       8.122   5.519  13.729  0.00  0.00    +0.000 N 
ATOM     14  H   UNL     1       8.635   6.362  13.973  0.00  0.00    +0.000 HD
ENDBRANCH   2   5
BRANCH   1  15
ATOM     15  C   UNL     1       4.252   3.340  19.421  0.00  0.00    +0.000 C 
BRANCH  15  17
ATOM     16  C   UNL     1       1.931   2.939  18.441  0.00  0.00    +0.000 C 
ATOM     17  C   UNL     1       2.761   3.732  19.452  0.00  0.00    +0.000 C 
BRANCH  17  18
ATOM     18  C   UNL     1       2.554   5.226  19.287  0.00  0.00    +0.000 A 
ATOM     19  C   UNL     1       2.748   6.021  18.174  0.00  0.00    +0.000 A 
ATOM     20  C   UNL     1       2.465   7.394  18.425  0.00  0.00    +0.000 A 
ATOM     21  C   UNL     1       2.025   7.602  19.711  0.00  0.00    +0.000 A 
ATOM     22  S   UNL     1       1.979   6.153  20.615  0.00  0.00    +0.000 S 
ENDBRANCH  17  18
ENDBRANCH  15  17
ENDBRANCH   1  15
TORSDOF 4
ENDMDL
MODEL 3
REMARK VINA RESULT:      -7.2      0.643      1.367
REMARK  Name = 
REMARK  5 active torsions:
REMARK  status: ('A' for Active; 'I' for Inactive)
REMARK    1  A    between atoms: C_1  and  C_2
REMARK    2  A    between atoms: C_2  and  C_3
REMARK    3  A    between atoms: C_2  and  C_16
REMARK    4  A    between atoms: C_3  and  N_4
REMARK    5  A    between atoms: C_5  and  C_7
REMARK                            x       y       z     vdW  Elec       q    Type
REMARK                         _______ _______ _______ _____ _____    ______ ____
ROOT
ATOM      1  N   UNL     1       4.647   5.422  17.735  0.00  0.00    +0.000 N 
ATOM      2  C   UNL     1       5.911   4.898  17.523  0.00  0.00    +0.000 C 
ATOM      3  O   UNL     1       6.673   4.612  18.445  0.00  0.00    +0.000 OA
ATOM      4  H   UNL     1       4.204   5.808  16.908  0.00  0.00    +0.000 HD
ENDROOT
BRANCH   2   5
ATOM      5  C   UNL     1       6.244   4.727  16.090  0.00  0.00    +0.000 A 
ATOM      6  N   UNL     1       5.632   3.760  15.287  0.00  0.00    +0.000 NA
ATOM      7  C   UNL     1       6.207   3.928  14.123  0.00  0.00    +0.000 A 
ATOM      8  N   UNL     1       7.110   4.949  14.213  0.00  0.00    +0.000 N 
ATOM      9  N   UNL     1       7.170   5.465  15.445  0.00  0.00    +0.000 NA
ATOM     10  C   UNL     1       7.995   5.358  13.147  0.00  0.00    +0.000 C 
ATOM     11  C   UNL     1       7.516   4.824  11.796  0.00  0.00    +0.000 C 
ATOM     12  C   UNL     1       7.046   3.372  11.927  0.00  0.00    +0.000 C 
ATOM     13  N   UNL     1       6.025   3.267  12.961  0.00  0.00    +0.000 N 
ATOM     14  H   UNL     1       5.520   2.385  13.009  0.00  0.00    +0.000 HD
ENDBRANCH   2   5
BRANCH   1  15
ATOM     15  C   UNL     1       4.191   5.817  19.056  0.00  0.00    +0.000 C 
BRANCH  15  17
ATOM     16  C   UNL     1       2.251   7.104  20.099  0.00  0.00    +0.000 C 
ATOM     17  C   UNL     1       2.661   5.929  19.209  0.00  0.00    +0.000 C 
BRANCH  17  18
ATOM     18  C   UNL     1       2.033   4.632  19.681  0.00  0.00    +0.000 A 
ATOM     19  C   UNL     1       1.795   4.189  20.968  0.00  0.00    +0.000 A 
ATOM     20  C   UNL     1       1.204   2.894  21.002  0.00  0.00    +0.000 A 
ATOM     21  C   UNL     1       0.970   2.401  19.739  0.00  0.00    +0.000 A 
ATOM     22  S   UNL     1       1.485   3.485  18.524  0.00  0.00    +0.000 S 
ENDBRANCH  17  18
ENDBRANCH  15  17
ENDBRANCH   1  15
TORSDOF 4
ENDMDL
MODEL 4
REMARK VINA RESULT:      -7.0      1.638      2.887
REMARK  Name = 
REMARK  5 active torsions:
REMARK  status: ('A' for Active; 'I' for Inactive)
REMARK    1  A    between atoms: C_1  and  C_2
REMARK    2  A    between atoms: C_2  and  C_3
REMARK    3  A    between atoms: C_2  and  C_16
REMARK    4  A    between atoms: C_3  and  N_4
REMARK    5  A    between atoms: C_5  and  C_7
REMARK                            x       y       z     vdW  Elec       q    Type
REMARK                         _______ _______ _______ _____ _____    ______ ____
ROOT
ATOM      1  N   UNL     1       4.777   5.675  17.985  0.00  0.00    +0.000 N 
ATOM      2  C   UNL     1       5.745   4.713  17.749  0.00  0.00    +0.000 C 
ATOM      3  O   UNL     1       6.194   3.993  18.639  0.00  0.00    +0.000 OA
ATOM      4  H   UNL     1       4.644   6.337  17.228  0.00  0.00    +0.000 HD
ENDROOT
BRANCH   2   5
ATOM      5  C   UNL     1       6.178   4.649  16.334  0.00  0.00    +0.000 A 
ATOM      6  N   UNL     1       7.186   5.469  15.820  0.00  0.00    +0.000 NA
ATOM      7  C   UNL     1       7.248   5.116  14.561  0.00  0.00    +0.000 A 
ATOM      8  N   UNL     1       6.336   4.126  14.328  0.00  0.00    +0.000 N 
ATOM      9  N   UNL     1       5.631   3.819  15.422  0.00  0.00    +0.000 NA
ATOM     10  C   UNL     1       6.060   3.553  13.031  0.00  0.00    +0.000 C 
ATOM     11  C   UNL     1       7.187   3.857  12.043  0.00  0.00    +0.000 C 
ATOM     12  C   UNL     1       7.653   5.309  12.187  0.00  0.00    +0.000 C 
ATOM     13  N   UNL     1       8.036   5.578  13.567  0.00  0.00    +0.000 N 
ATOM     14  H   UNL     1       8.524   6.453  13.738  0.00  0.00    +0.000 HD
ENDBRANCH   2   5
BRANCH   1  15
ATOM     15  C   UNL     1       4.338   6.008  19.328  0.00  0.00    +0.000 C 
BRANCH  15  17
ATOM     16  C   UNL     1       2.101   4.940  18.724  0.00  0.00    +0.000 C 
ATOM     17  C   UNL     1       2.809   6.036  19.523  0.00  0.00    +0.000 C 
BRANCH  17  18
ATOM     18  C   UNL     1       2.215   7.402  19.236  0.00  0.00    +0.000 A 
ATOM     19  C   UNL     1       2.180   8.111  18.050  0.00  0.00    +0.000 A 
ATOM     20  C   UNL     1       1.550   9.381  18.190  0.00  0.00    +0.000 A 
ATOM     21  C   UNL     1       1.086   9.588  19.468  0.00  0.00    +0.000 A 
ATOM     22  S   UNL     1       1.434   8.269  20.497  0.00  0.00    +0.000 S 
ENDBRANCH  17  18
ENDBRANCH  15  17
ENDBRANCH   1  15
TORSDOF 4
ENDMDL
MODEL 5
REMARK VINA RESULT:      -7.0      1.556      2.834
REMARK  Name = 
REMARK  5 active torsions:
REMARK  status: ('A' for Active; 'I' for Inactive)
REMARK    1  A    between atoms: C_1  and  C_2
REMARK    2  A    between atoms: C_2  and  C_3
REMARK    3  A    between atoms: C_2  and  C_16
REMARK    4  A    between atoms: C_3  and  N_4
REMARK    5  A    between atoms: C_5  and  C_7
REMARK                            x       y       z     vdW  Elec       q    Type
REMARK                         _______ _______ _______ _____ _____    ______ ____
ROOT
ATOM      1  N   UNL     1       4.953   5.094  18.006  0.00  0.00    +0.000 N 
ATOM      2  C   UNL     1       6.255   4.761  17.669  0.00  0.00    +0.000 C 
ATOM      3  O   UNL     1       7.136   4.597  18.511  0.00  0.00    +0.000 OA
ATOM      4  H   UNL     1       4.380   5.406  17.229  0.00  0.00    +0.000 HD
ENDROOT
BRANCH   2   5
ATOM      5  C   UNL     1       6.470   4.633  16.209  0.00  0.00    +0.000 A 
ATOM      6  N   UNL     1       5.787   3.696  15.430  0.00  0.00    +0.000 NA
ATOM      7  C   UNL     1       6.268   3.896  14.229  0.00  0.00    +0.000 A 
ATOM      8  N   UNL     1       7.184   4.908  14.277  0.00  0.00    +0.000 N 
ATOM      9  N   UNL     1       7.348   5.385  15.515  0.00  0.00    +0.000 NA
ATOM     10  C   UNL     1       7.984   5.344  13.156  0.00  0.00    +0.000 C 
ATOM     11  C   UNL     1       7.393   4.856  11.832  0.00  0.00    +0.000 C 
ATOM     12  C   UNL     1       6.922   3.404  11.956  0.00  0.00    +0.000 C 
ATOM     13  N   UNL     1       5.986   3.272  13.065  0.00  0.00    +0.000 N 
ATOM     14  H   UNL     1       5.480   2.393  13.127  0.00  0.00    +0.000 HD
ENDBRANCH   2   5
BRANCH   1  15
ATOM     15  C   UNL     1       4.574   5.426  19.368  0.00  0.00    +0.000 C 
BRANCH  15  17
ATOM     16  C   UNL     1       2.325   4.403  18.728  0.00  0.00    +0.000 C 
ATOM     17  C   UNL     1       3.058   5.380  19.650  0.00  0.00    +0.000 C 
BRANCH  17  18
ATOM     18  C   UNL     1       2.423   6.757  19.612  0.00  0.00    +0.000 A 
ATOM     19  C   UNL     1       1.734   7.433  20.601  0.00  0.00    +0.000 A 
ATOM     20  C   UNL     1       1.266   8.707  20.171  0.00  0.00    +0.000 A 
ATOM     21  C   UNL     1       1.645   8.985  18.878  0.00  0.00    +0.000 A 
ATOM     22  S   UNL     1       2.538   7.705  18.183  0.00  0.00    +0.000 S 
ENDBRANCH  17  18
ENDBRANCH  15  17
ENDBRANCH   1  15
TORSDOF 4
ENDMDL
MODEL 6
REMARK VINA RESULT:      -6.8      3.674      6.747
REMARK  Name = 
REMARK  5 active torsions:
REMARK  status: ('A' for Active; 'I' for Inactive)
REMARK    1  A    between atoms: C_1  and  C_2
REMARK    2  A    between atoms: C_2  and  C_3
REMARK    3  A    between atoms: C_2  and  C_16
REMARK    4  A    between atoms: C_3  and  N_4
REMARK    5  A    between atoms: C_5  and  C_7
REMARK                            x       y       z     vdW  Elec       q    Type
REMARK                         _______ _______ _______ _____ _____    ______ ____
ROOT
ATOM      1  N   UNL     1       3.768   6.036  18.983  0.00  0.00    +0.000 N 
ATOM      2  C   UNL     1       3.559   7.015  18.026  0.00  0.00    +0.000 C 
ATOM      3  O   UNL     1       4.183   7.051  16.967  0.00  0.00    +0.000 OA
ATOM      4  H   UNL     1       3.353   6.232  19.888  0.00  0.00    +0.000 HD
ENDROOT
BRANCH   2   5
ATOM      5  C   UNL     1       2.524   8.003  18.412  0.00  0.00    +0.000 A 
ATOM      6  N   UNL     1       2.037   8.965  17.523  0.00  0.00    +0.000 NA
ATOM      7  C   UNL     1       1.171   9.630  18.246  0.00  0.00    +0.000 A 
ATOM      8  N   UNL     1       1.128   9.092  19.500  0.00  0.00    +0.000 N 
ATOM      9  N   UNL     1       1.981   8.072  19.645  0.00  0.00    +0.000 NA
ATOM     10  C   UNL     1       0.349   9.624  20.595  0.00  0.00    +0.000 C 
ATOM     11  C   UNL     1      -0.736  10.575  20.089  0.00  0.00    +0.000 C 
ATOM     12  C   UNL     1      -0.185  11.486  18.990  0.00  0.00    +0.000 C 
ATOM     13  N   UNL     1       0.396  10.686  17.919  0.00  0.00    +0.000 N 
ATOM     14  H   UNL     1       0.632  11.181  17.063  0.00  0.00    +0.000 HD
ENDBRANCH   2   5
BRANCH   1  15
ATOM     15  C   UNL     1       4.849   5.073  18.872  0.00  0.00    +0.000 C 
BRANCH  15  17
ATOM     16  C   UNL     1       4.487   3.573  16.841  0.00  0.00    +0.000 C 
ATOM     17  C   UNL     1       4.428   3.679  18.366  0.00  0.00    +0.000 C 
BRANCH  17  18
ATOM     18  C   UNL     1       3.072   3.258  18.898  0.00  0.00    +0.000 A 
ATOM     19  C   UNL     1       1.886   3.056  18.218  0.00  0.00    +0.000 A 
ATOM     20  C   UNL     1       0.815   2.685  19.080  0.00  0.00    +0.000 A 
ATOM     21  C   UNL     1       1.224   2.575  20.390  0.00  0.00    +0.000 A 
ATOM     22  S   UNL     1       2.881   2.942  20.577  0.00  0.00    +0.000 S 
ENDBRANCH  17  18
ENDBRANCH  15  17
ENDBRANCH   1  15
TORSDOF 4
ENDMDL
MODEL 7
REMARK VINA RESULT:      -6.8      1.663      3.052
REMARK  Name = 
REMARK  5 active torsions:
REMARK  status: ('A' for Active; 'I' for Inactive)
REMARK    1  A    between atoms: C_1  and  C_2
REMARK    2  A    between atoms: C_2  and  C_3
REMARK    3  A    between atoms: C_2  and  C_16
REMARK    4  A    between atoms: C_3  and  N_4
REMARK    5  A    between atoms: C_5  and  C_7
REMARK                            x       y       z     vdW  Elec       q    Type
REMARK                         _______ _______ _______ _____ _____    ______ ____
ROOT
ATOM      1  N   UNL     1       5.009   4.893  18.026  0.00  0.00    +0.000 N 
ATOM      2  C   UNL     1       6.233   5.322  17.541  0.00  0.00    +0.000 C 
ATOM      3  O   UNL     1       7.054   5.911  18.243  0.00  0.00    +0.000 OA
ATOM      4  H   UNL     1       4.344   4.615  17.312  0.00  0.00    +0.000 HD
ENDROOT
BRANCH   2   5
ATOM      5  C   UNL     1       6.442   5.008  16.109  0.00  0.00    +0.000 A 
ATOM      6  N   UNL     1       5.730   4.002  15.450  0.00  0.00    +0.000 NA
ATOM      7  C   UNL     1       6.214   4.038  14.235  0.00  0.00    +0.000 A 
ATOM      8  N   UNL     1       7.160   5.020  14.158  0.00  0.00    +0.000 N 
ATOM      9  N   UNL     1       7.341   5.642  15.328  0.00  0.00    +0.000 NA
ATOM     10  C   UNL     1       7.971   5.290  12.993  0.00  0.00    +0.000 C 
ATOM     11  C   UNL     1       7.363   4.659  11.740  0.00  0.00    +0.000 C 
ATOM     12  C   UNL     1       6.849   3.248  12.041  0.00  0.00    +0.000 C 
ATOM     13  N   UNL     1       5.912   3.283  13.157  0.00  0.00    +0.000 N 
ATOM     14  H   UNL     1       5.380   2.434  13.326  0.00  0.00    +0.000 HD
ENDBRANCH   2   5
BRANCH   1  15
ATOM     15  C   UNL     1       4.544   5.245  19.356  0.00  0.00    +0.000 C 
BRANCH  15  17
ATOM     16  C   UNL     1       2.257   4.323  18.702  0.00  0.00    +0.000 C 
ATOM     17  C   UNL     1       3.015   5.392  19.492  0.00  0.00    +0.000 C 
BRANCH  17  18
ATOM     18  C   UNL     1       2.536   6.786  19.137  0.00  0.00    +0.000 A 
ATOM     19  C   UNL     1       2.627   7.467  17.938  0.00  0.00    +0.000 A 
ATOM     20  C   UNL     1       2.076   8.779  18.009  0.00  0.00    +0.000 A 
ATOM     21  C   UNL     1       1.544   9.047  19.249  0.00  0.00    +0.000 A 
ATOM     22  S   UNL     1       1.732   7.734  20.325  0.00  0.00    +0.000 S 
ENDBRANCH  17  18
ENDBRANCH  15  17
ENDBRANCH   1  15
TORSDOF 4
ENDMDL
MODEL 8
REMARK VINA RESULT:      -6.8      1.475      2.792
REMARK  Name = 
REMARK  5 active torsions:
REMARK  status: ('A' for Active; 'I' for Inactive)
REMARK    1  A    between atoms: C_1  and  C_2
REMARK    2  A    between atoms: C_2  and  C_3
REMARK    3  A    between atoms: C_2  and  C_16
REMARK    4  A    between atoms: C_3  and  N_4
REMARK    5  A    between atoms: C_5  and  C_7
REMARK                            x       y       z     vdW  Elec       q    Type
REMARK                         _______ _______ _______ _____ _____    ______ ____
ROOT
ATOM      1  N   UNL     1       5.040   3.644  17.915  0.00  0.00    +0.000 N 
ATOM      2  C   UNL     1       5.971   4.591  17.522  0.00  0.00    +0.000 C 
ATOM      3  O   UNL     1       6.463   5.401  18.305  0.00  0.00    +0.000 OA
ATOM      4  H   UNL     1       4.558   3.181  17.152  0.00  0.00    +0.000 HD
ENDROOT
BRANCH   2   5
ATOM      5  C   UNL     1       6.300   4.529  16.079  0.00  0.00    +0.000 A 
ATOM      6  N   UNL     1       5.722   3.593  15.217  0.00  0.00    +0.000 NA
ATOM      7  C   UNL     1       6.281   3.861  14.064  0.00  0.00    +0.000 A 
ATOM      8  N   UNL     1       7.141   4.910  14.217  0.00  0.00    +0.000 N 
ATOM      9  N   UNL     1       7.190   5.346  15.480  0.00  0.00    +0.000 NA
ATOM     10  C   UNL     1       8.001   5.425  13.176  0.00  0.00    +0.000 C 
ATOM     11  C   UNL     1       7.534   4.961  11.795  0.00  0.00    +0.000 C 
ATOM     12  C   UNL     1       7.125   3.486  11.832  0.00  0.00    +0.000 C 
ATOM     13  N   UNL     1       6.117   3.270  12.862  0.00  0.00    +0.000 N 
ATOM     14  H   UNL     1       5.650   2.367  12.854  0.00  0.00    +0.000 HD
ENDBRANCH   2   5
BRANCH   1  15
ATOM     15  C   UNL     1       4.463   3.642  19.248  0.00  0.00    +0.000 C 
BRANCH  15  17
ATOM     16  C   UNL     1       2.178   3.167  18.217  0.00  0.00    +0.000 C 
ATOM     17  C   UNL     1       2.949   3.924  19.301  0.00  0.00    +0.000 C 
BRANCH  17  18
ATOM     18  C   UNL     1       2.637   5.408  19.265  0.00  0.00    +0.000 A 
ATOM     19  C   UNL     1       2.810   6.317  18.239  0.00  0.00    +0.000 A 
ATOM     20  C   UNL     1       2.417   7.637  18.603  0.00  0.00    +0.000 A 
ATOM     21  C   UNL     1       1.917   7.690  19.884  0.00  0.00    +0.000 A 
ATOM     22  S   UNL     1       1.948   6.163  20.647  0.00  0.00    +0.000 S 
ENDBRANCH  17  18
ENDBRANCH  15  17
ENDBRANCH   1  15
TORSDOF 4
ENDMDL
MODEL 9
REMARK VINA RESULT:      -6.8      3.618      5.475
REMARK  Name = 
REMARK  5 active torsions:
REMARK  status: ('A' for Active; 'I' for Inactive)
REMARK    1  A    between atoms: C_1  and  C_2
REMARK    2  A    between atoms: C_2  and  C_3
REMARK    3  A    between atoms: C_2  and  C_16
REMARK    4  A    between atoms: C_3  and  N_4
REMARK    5  A    between atoms: C_5  and  C_7
REMARK                            x       y       z     vdW  Elec       q    Type
REMARK                         _______ _______ _______ _____ _____    ______ ____
ROOT
ATOM      1  N   UNL     1       2.305   7.501  19.976  0.00  0.00    +0.000 N 
ATOM      2  C   UNL     1       2.443   6.126  19.894  0.00  0.00    +0.000 C 
ATOM      3  O   UNL     1       1.700   5.349  20.492  0.00  0.00    +0.000 OA
ATOM      4  H   UNL     1       3.094   8.028  19.615  0.00  0.00    +0.000 HD
ENDROOT
BRANCH   2   5
ATOM      5  C   UNL     1       3.566   5.697  19.027  0.00  0.00    +0.000 A 
ATOM      6  N   UNL     1       4.675   5.007  19.523  0.00  0.00    +0.000 NA
ATOM      7  C   UNL     1       5.422   4.837  18.462  0.00  0.00    +0.000 A 
ATOM      8  N   UNL     1       4.793   5.383  17.379  0.00  0.00    +0.000 N 
ATOM      9  N   UNL     1       3.626   5.950  17.704  0.00  0.00    +0.000 NA
ATOM     10  C   UNL     1       5.361   5.462  16.053  0.00  0.00    +0.000 C 
ATOM     11  C   UNL     1       6.535   4.495  15.898  0.00  0.00    +0.000 C 
ATOM     12  C   UNL     1       7.423   4.520  17.145  0.00  0.00    +0.000 C 
ATOM     13  N   UNL     1       6.626   4.242  18.334  0.00  0.00    +0.000 N 
ATOM     14  H   UNL     1       7.142   4.061  19.191  0.00  0.00    +0.000 HD
ENDBRANCH   2   5
BRANCH   1  15
ATOM     15  C   UNL     1       1.373   8.126  20.897  0.00  0.00    +0.000 C 
BRANCH  15  17
ATOM     16  C   UNL     1       1.102   9.961  19.144  0.00  0.00    +0.000 C 
ATOM     17  C   UNL     1       0.425   9.161  20.259  0.00  0.00    +0.000 C 
BRANCH  17  18
ATOM     18  C   UNL     1      -0.208  10.076  21.291  0.00  0.00    +0.000 A 
ATOM     19  C   UNL     1      -0.598   9.800  22.587  0.00  0.00    +0.000 A 
ATOM     20  C   UNL     1      -1.180  10.926  23.236  0.00  0.00    +0.000 A 
ATOM     21  C   UNL     1      -1.181  12.041  22.430  0.00  0.00    +0.000 A 
ATOM     22  S   UNL     1      -0.508  11.721  20.893  0.00  0.00    +0.000 S 
ENDBRANCH  17  18
ENDBRANCH  15  17
ENDBRANCH   1  15
TORSDOF 4
ENDMDL
