MODEL 1
REMARK VINA RESULT:      -8.2      0.000      0.000
REMARK  Name = 
REMARK  8 active torsions:
REMARK  status: ('A' for Active; 'I' for Inactive)
REMARK    1  A    between atoms: C_1  and  C_2
REMARK    2  A    between atoms: C_2  and  O_3
REMARK    3  A    between atoms: C_2  and  C_4
REMARK    4  A    between atoms: C_8  and  C_9
REMARK    5  A    between atoms: C_9  and  C_10
REMARK    6  A    between atoms: C_15  and  C_16
REMARK    7  A    between atoms: C_16  and  C_17
REMARK    8  A    between atoms: C_16  and  O_18
REMARK                            x       y       z     vdW  Elec       q    Type
REMARK                         _______ _______ _______ _____ _____    ______ ____
ROOT
ATOM      1  C   UNL     1       3.147   5.261  19.372  0.00  0.00    +0.000 C 
ENDROOT
BRANCH   1   6
ATOM      2  C   UNL     1       0.309  10.224  21.012  0.00  0.00    +0.000 A 
ATOM      3  N   UNL     1       0.674   9.071  21.543  0.00  0.00    +0.000 NA
ATOM      4  C   UNL     1       1.316   8.392  20.536  0.00  0.00    +0.000 A 
ATOM      5  C   UNL     1       1.876   7.106  20.539  0.00  0.00    +0.000 A 
ATOM      6  C   UNL     1       2.488   6.619  19.369  0.00  0.00    +0.000 A 
ATOM      7  C   UNL     1       2.508   7.418  18.213  0.00  0.00    +0.000 A 
ATOM      8  C   UNL     1       1.962   8.710  18.195  0.00  0.00    +0.000 A 
ATOM      9  C   UNL     1       1.377   9.159  19.380  0.00  0.00    +0.000 A 
ATOM     10  N   UNL     1       0.765  10.337  19.722  0.00  0.00    +0.000 N 
ATOM     11  H   UNL     1       0.647  11.140  19.121  0.00  0.00    +0.000 HD
BRANCH   2  13
ATOM     12  C   UNL     1      -1.035  10.811  23.020  0.00  0.00    +0.000 C 
ATOM     13  C   UNL     1      -0.495  11.288  21.680  0.00  0.00    +0.000 C 
BRANCH  13  14
ATOM     14  O   UNL     1       0.376  12.395  21.893  0.00  0.00    +0.000 OA
ATOM     15  H   UNL     1       0.609  12.719  21.001  0.00  0.00    +0.000 HD
ENDBRANCH  13  14
ENDBRANCH   2  13
ENDBRANCH   1   6
BRANCH   1  16
ATOM     16  C   UNL     1       4.365   5.124  18.488  0.00  0.00    +0.000 A 
ATOM     17  C   UNL     1       5.643   5.456  18.973  0.00  0.00    +0.000 A 
ATOM     18  C   UNL     1       6.783   5.416  18.154  0.00  0.00    +0.000 A 
ATOM     19  C   UNL     1       6.585   5.033  16.828  0.00  0.00    +0.000 A 
ATOM     20  N   UNL     1       7.436   4.910  15.761  0.00  0.00    +0.000 N 
ATOM     21  C   UNL     1       6.707   4.514  14.665  0.00  0.00    +0.000 A 
ATOM     22  N   UNL     1       5.437   4.358  14.983  0.00  0.00    +0.000 NA
ATOM     23  C   UNL     1       5.343   4.678  16.315  0.00  0.00    +0.000 A 
ATOM     24  C   UNL     1       4.219   4.706  17.152  0.00  0.00    +0.000 A 
ATOM     25  H   UNL     1       8.428   5.100  15.750  0.00  0.00    +0.000 HD
BRANCH  21  26
ATOM     26  C   UNL     1       7.345   4.289  13.333  0.00  0.00    +0.000 C 
ATOM     27  C   UNL     1       6.378   3.708  12.310  0.00  0.00    +0.000 C 
BRANCH  26  28
ATOM     28  O   UNL     1       7.832   5.553  12.872  0.00  0.00    +0.000 OA
ATOM     29  H   UNL     1       8.725   5.398  12.516  0.00  0.00    +0.000 HD
ENDBRANCH  26  28
ENDBRANCH  21  26
ENDBRANCH   1  16
TORSDOF 6
ENDMDL
MODEL 2
REMARK VINA RESULT:      -8.1      0.213      9.160
REMARK  Name = 
REMARK  8 active torsions:
REMARK  status: ('A' for Active; 'I' for Inactive)
REMARK    1  A    between atoms: C_1  and  C_2
REMARK    2  A    between atoms: C_2  and  O_3
REMARK    3  A    between atoms: C_2  and  C_4
REMARK    4  A    between atoms: C_8  and  C_9
REMARK    5  A    between atoms: C_9  and  C_10
REMARK    6  A    between atoms: C_15  and  C_16
REMARK    7  A    between atoms: C_16  and  C_17
REMARK    8  A    between atoms: C_16  and  O_18
REMARK                            x       y       z     vdW  Elec       q    Type
REMARK                         _______ _______ _______ _____ _____    ______ ____
ROOT
ATOM      1  C   UNL     1       3.189   5.426  19.390  0.00  0.00    +0.000 C 
ENDROOT
BRANCH   1   6
ATOM      2  C   UNL     1       6.745   4.648  14.687  0.00  0.00    +0.000 A 
ATOM      3  N   UNL     1       5.455   4.616  14.968  0.00  0.00    +0.000 NA
ATOM      4  C   UNL     1       5.367   4.906  16.308  0.00  0.00    +0.000 A 
ATOM      5  C   UNL     1       4.237   4.973  17.137  0.00  0.00    +0.000 A 
ATOM      6  C   UNL     1       4.400   5.292  18.498  0.00  0.00    +0.000 A 
ATOM      7  C   UNL     1       5.690   5.516  19.008  0.00  0.00    +0.000 A 
ATOM      8  C   UNL     1       6.829   5.462  18.192  0.00  0.00    +0.000 A 
ATOM      9  C   UNL     1       6.622   5.156  16.846  0.00  0.00    +0.000 A 
ATOM     10  N   UNL     1       7.478   5.026  15.784  0.00  0.00    +0.000 N 
ATOM     11  H   UNL     1       8.479   5.159  15.810  0.00  0.00    +0.000 HD
BRANCH   2  13
ATOM     12  C   UNL     1       6.350   3.730  12.409  0.00  0.00    +0.000 C 
ATOM     13  C   UNL     1       7.369   4.320  13.372  0.00  0.00    +0.000 C 
BRANCH  13  14
ATOM     14  O   UNL     1       7.870   5.540  12.834  0.00  0.00    +0.000 OA
ATOM     15  H   UNL     1       7.890   6.167  13.583  0.00  0.00    +0.000 HD
ENDBRANCH  13  14
ENDBRANCH   2  13
ENDBRANCH   1   6
BRANCH   1  16
ATOM     16  C   UNL     1       2.476   6.758  19.327  0.00  0.00    +0.000 A 
ATOM     17  C   UNL     1       2.456   7.502  18.134  0.00  0.00    +0.000 A 
ATOM     18  C   UNL     1       1.871   8.777  18.063  0.00  0.00    +0.000 A 
ATOM     19  C   UNL     1       1.311   9.273  19.240  0.00  0.00    +0.000 A 
ATOM     20  N   UNL     1       0.695  10.457  19.546  0.00  0.00    +0.000 N 
ATOM     21  C   UNL     1       0.348  10.437  20.877  0.00  0.00    +0.000 A 
ATOM     22  N   UNL     1       0.693   9.291  21.429  0.00  0.00    +0.000 NA
ATOM     23  C   UNL     1       1.293   8.561  20.433  0.00  0.00    +0.000 A 
ATOM     24  C   UNL     1       1.865   7.282  20.481  0.00  0.00    +0.000 A 
ATOM     25  H   UNL     1       0.538  11.239  18.925  0.00  0.00    +0.000 HD
BRANCH  21  26
ATOM     26  C   UNL     1      -0.346  11.589  21.528  0.00  0.00    +0.000 C 
ATOM     27  C   UNL     1      -1.013  11.205  22.842  0.00  0.00    +0.000 C 
BRANCH  26  28
ATOM     28  O   UNL     1       0.636  12.602  21.764  0.00  0.00    +0.000 OA
ATOM     29  H   UNL     1       0.161  13.381  22.105  0.00  0.00    +0.000 HD
ENDBRANCH  26  28
ENDBRANCH  21  26
ENDBRANCH   1  16
TORSDOF 6
ENDMDL
MODEL 3
REMARK VINA RESULT:      -8.0      4.103      5.505
REMARK  Name = 
REMARK  8 active torsions:
REMARK  status: ('A' for Active; 'I' for Inactive)
REMARK    1  A    between atoms: C_1  and  C_2
REMARK    2  A    between atoms: C_2  and  O_3
REMARK    3  A    between atoms: C_2  and  C_4
REMARK    4  A    between atoms: C_8  and  C_9
REMARK    5  A    between atoms: C_9  and  C_10
REMARK    6  A    between atoms: C_15  and  C_16
REMARK    7  A    between atoms: C_16  and  C_17
REMARK    8  A    between atoms: C_16  and  O_18
REMARK                            x       y       z     vdW  Elec       q    Type
REMARK                         _______ _______ _______ _____ _____    ______ ____
ROOT
ATOM      1  C   UNL     1       1.852   9.663  18.144  0.00  0.00    +0.000 C 
ENDROOT
BRANCH   1   6
ATOM      2  C   UNL     1      -3.888  11.191  17.840  0.00  0.00    +0.000 A 
ATOM      3  N   UNL     1      -3.082  10.270  17.345  0.00  0.00    +0.000 NA
ATOM      4  C   UNL     1      -1.845  10.546  17.873  0.00  0.00    +0.000 A 
ATOM      5  C   UNL     1      -0.615   9.906  17.657  0.00  0.00    +0.000 A 
ATOM      6  C   UNL     1       0.533  10.378  18.319  0.00  0.00    +0.000 A 
ATOM      7  C   UNL     1       0.435  11.495  19.166  0.00  0.00    +0.000 A 
ATOM      8  C   UNL     1      -0.787  12.142  19.400  0.00  0.00    +0.000 A 
ATOM      9  C   UNL     1      -1.903  11.633  18.735  0.00  0.00    +0.000 A 
ATOM     10  N   UNL     1      -3.224  12.000  18.728  0.00  0.00    +0.000 N 
ATOM     11  H   UNL     1      -3.633  12.752  19.264  0.00  0.00    +0.000 HD
BRANCH   2  13
ATOM     12  C   UNL     1      -6.226  10.802  18.594  0.00  0.00    +0.000 C 
ATOM     13  C   UNL     1      -5.331  11.373  17.505  0.00  0.00    +0.000 C 
BRANCH  13  14
ATOM     14  O   UNL     1      -5.559  12.775  17.397  0.00  0.00    +0.000 OA
ATOM     15  H   UNL     1      -5.498  12.977  16.444  0.00  0.00    +0.000 HD
ENDBRANCH  13  14
ENDBRANCH   2  13
ENDBRANCH   1   6
BRANCH   1  16
ATOM     16  C   UNL     1       1.955   8.312  18.813  0.00  0.00    +0.000 A 
ATOM     17  C   UNL     1       1.512   8.133  20.136  0.00  0.00    +0.000 A 
ATOM     18  C   UNL     1       1.666   6.912  20.812  0.00  0.00    +0.000 A 
ATOM     19  C   UNL     1       2.286   5.882  20.107  0.00  0.00    +0.000 A 
ATOM     20  N   UNL     1       2.621   4.597  20.445  0.00  0.00    +0.000 N 
ATOM     21  C   UNL     1       3.243   4.010  19.368  0.00  0.00    +0.000 A 
ATOM     22  N   UNL     1       3.303   4.850  18.352  0.00  0.00    +0.000 NA
ATOM     23  C   UNL     1       2.720   6.012  18.793  0.00  0.00    +0.000 A 
ATOM     24  C   UNL     1       2.541   7.232  18.127  0.00  0.00    +0.000 A 
ATOM     25  H   UNL     1       2.473   4.145  21.336  0.00  0.00    +0.000 HD
BRANCH  21  26
ATOM     26  C   UNL     1       3.735   2.601  19.413  0.00  0.00    +0.000 C 
ATOM     27  C   UNL     1       3.331   1.798  18.183  0.00  0.00    +0.000 C 
BRANCH  26  28
ATOM     28  O   UNL     1       5.162   2.648  19.510  0.00  0.00    +0.000 OA
ATOM     29  H   UNL     1       5.507   2.649  18.600  0.00  0.00    +0.000 HD
ENDBRANCH  26  28
ENDBRANCH  21  26
ENDBRANCH   1  16
TORSDOF 6
ENDMDL
MODEL 4
REMARK VINA RESULT:      -8.0      1.622      2.119
REMARK  Name = 
REMARK  8 active torsions:
REMARK  status: ('A' for Active; 'I' for Inactive)
REMARK    1  A    between atoms: C_1  and  C_2
REMARK    2  A    between atoms: C_2  and  O_3
REMARK    3  A    between atoms: C_2  and  C_4
REMARK    4  A    between atoms: C_8  and  C_9
REMARK    5  A    between atoms: C_9  and  C_10
REMARK    6  A    between atoms: C_15  and  C_16
REMARK    7  A    between atoms: C_16  and  C_17
REMARK    8  A    between atoms: C_16  and  O_18
REMARK                            x       y       z     vdW  Elec       q    Type
REMARK                         _______ _______ _______ _____ _____    ______ ____
ROOT
ATOM      1  C   UNL     1       2.899   4.933  18.974  0.00  0.00    +0.000 C 
ENDROOT
BRANCH   1   6
ATOM      2  C   UNL     1       1.450  10.688  18.594  0.00  0.00    +0.000 A 
ATOM      3  N   UNL     1       2.003   9.756  17.841  0.00  0.00    +0.000 NA
ATOM      4  C   UNL     1       2.015   8.621  18.615  0.00  0.00    +0.000 A 
ATOM      5  C   UNL     1       2.519   7.345  18.325  0.00  0.00    +0.000 A 
ATOM      6  C   UNL     1       2.415   6.327  19.292  0.00  0.00    +0.000 A 
ATOM      7  C   UNL     1       1.831   6.612  20.538  0.00  0.00    +0.000 A 
ATOM      8  C   UNL     1       1.314   7.881  20.842  0.00  0.00    +0.000 A 
ATOM      9  C   UNL     1       1.424   8.855  19.849  0.00  0.00    +0.000 A 
ATOM     10  N   UNL     1       1.036  10.169  19.795  0.00  0.00    +0.000 N 
ATOM     11  H   UNL     1       0.552  10.675  20.524  0.00  0.00    +0.000 HD
BRANCH   2  13
ATOM     12  C   UNL     1       1.269  13.007  19.475  0.00  0.00    +0.000 C 
ATOM     13  C   UNL     1       1.281  12.127  18.235  0.00  0.00    +0.000 C 
BRANCH  13  14
ATOM     14  O   UNL     1       2.392  12.484  17.417  0.00  0.00    +0.000 OA
ATOM     15  H   UNL     1       3.030  12.915  18.017  0.00  0.00    +0.000 HD
ENDBRANCH  13  14
ENDBRANCH   2  13
ENDBRANCH   1   6
BRANCH   1  16
ATOM     16  C   UNL     1       4.188   4.853  18.188  0.00  0.00    +0.000 A 
ATOM     17  C   UNL     1       5.425   5.072  18.818  0.00  0.00    +0.000 A 
ATOM     18  C   UNL     1       6.633   5.083  18.103  0.00  0.00    +0.000 A 
ATOM     19  C   UNL     1       6.545   4.868  16.727  0.00  0.00    +0.000 A 
ATOM     20  N   UNL     1       7.485   4.838  15.731  0.00  0.00    +0.000 N 
ATOM     21  C   UNL     1       6.847   4.606  14.535  0.00  0.00    +0.000 A 
ATOM     22  N   UNL     1       5.549   4.466  14.722  0.00  0.00    +0.000 NA
ATOM     23  C   UNL     1       5.345   4.629  16.069  0.00  0.00    +0.000 A 
ATOM     24  C   UNL     1       4.151   4.603  16.803  0.00  0.00    +0.000 A 
ATOM     25  H   UNL     1       8.479   4.988  15.830  0.00  0.00    +0.000 HD
BRANCH  21  26
ATOM     26  C   UNL     1       7.596   4.516  13.247  0.00  0.00    +0.000 C 
ATOM     27  C   UNL     1       6.766   3.900  12.128  0.00  0.00    +0.000 C 
BRANCH  26  28
ATOM     28  O   UNL     1       7.985   5.844  12.883  0.00  0.00    +0.000 OA
ATOM     29  H   UNL     1       7.308   6.178  12.268  0.00  0.00    +0.000 HD
ENDBRANCH  26  28
ENDBRANCH  21  26
ENDBRANCH   1  16
TORSDOF 6
ENDMDL
MODEL 5
REMARK VINA RESULT:      -7.8      1.474      9.215
REMARK  Name = 
REMARK  8 active torsions:
REMARK  status: ('A' for Active; 'I' for Inactive)
REMARK    1  A    between atoms: C_1  and  C_2
REMARK    2  A    between atoms: C_2  and  O_3
REMARK    3  A    between atoms: C_2  and  C_4
REMARK    4  A    between atoms: C_8  and  C_9
REMARK    5  A    between atoms: C_9  and  C_10
REMARK    6  A    between atoms: C_15  and  C_16
REMARK    7  A    between atoms: C_16  and  C_17
REMARK    8  A    between atoms: C_16  and  O_18
REMARK                            x       y       z     vdW  Elec       q    Type
REMARK                         _______ _______ _______ _____ _____    ______ ____
ROOT
ATOM      1  C   UNL     1       1.896   6.454  20.606  0.00  0.00    +0.000 C 
ENDROOT
BRANCH   1   6
ATOM      2  C   UNL     1       5.697   4.592  16.428  0.00  0.00    +0.000 A 
ATOM      3  N   UNL     1       5.672   5.450  17.431  0.00  0.00    +0.000 NA
ATOM      4  C   UNL     1       4.416   5.339  17.975  0.00  0.00    +0.000 A 
ATOM      5  C   UNL     1       3.837   6.042  19.042  0.00  0.00    +0.000 A 
ATOM      6  C   UNL     1       2.513   5.749  19.422  0.00  0.00    +0.000 A 
ATOM      7  C   UNL     1       1.788   4.777  18.714  0.00  0.00    +0.000 A 
ATOM      8  C   UNL     1       2.354   4.058  17.650  0.00  0.00    +0.000 A 
ATOM      9  C   UNL     1       3.672   4.369  17.316  0.00  0.00    +0.000 A 
ATOM     10  N   UNL     1       4.525   3.880  16.361  0.00  0.00    +0.000 N 
ATOM     11  H   UNL     1       4.318   3.141  15.704  0.00  0.00    +0.000 HD
BRANCH   2  13
ATOM     12  C   UNL     1       6.303   4.027  14.083  0.00  0.00    +0.000 C 
ATOM     13  C   UNL     1       6.820   4.392  15.466  0.00  0.00    +0.000 C 
BRANCH  13  14
ATOM     14  O   UNL     1       7.528   5.626  15.392  0.00  0.00    +0.000 OA
ATOM     15  H   UNL     1       7.423   6.041  16.270  0.00  0.00    +0.000 HD
ENDBRANCH  13  14
ENDBRANCH   2  13
ENDBRANCH   1   6
BRANCH   1  16
ATOM     16  C   UNL     1       1.484   7.889  20.368  0.00  0.00    +0.000 A 
ATOM     17  C   UNL     1       1.639   8.477  19.100  0.00  0.00    +0.000 A 
ATOM     18  C   UNL     1       1.340   9.829  18.866  0.00  0.00    +0.000 A 
ATOM     19  C   UNL     1       0.885  10.566  19.959  0.00  0.00    +0.000 A 
ATOM     20  N   UNL     1       0.532  11.881  20.108  0.00  0.00    +0.000 N 
ATOM     21  C   UNL     1       0.173  12.090  21.419  0.00  0.00    +0.000 A 
ATOM     22  N   UNL     1       0.258  10.969  22.108  0.00  0.00    +0.000 NA
ATOM     23  C   UNL     1       0.700  10.018  21.223  0.00  0.00    +0.000 A 
ATOM     24  C   UNL     1       0.985   8.662  21.434  0.00  0.00    +0.000 A 
ATOM     25  H   UNL     1       0.554  12.600  19.399  0.00  0.00    +0.000 HD
BRANCH  21  26
ATOM     26  C   UNL     1      -0.267  13.430  21.912  0.00  0.00    +0.000 C 
ATOM     27  C   UNL     1      -1.197  13.337  23.114  0.00  0.00    +0.000 C 
BRANCH  26  28
ATOM     28  O   UNL     1       0.910  14.162  22.268  0.00  0.00    +0.000 OA
ATOM     29  H   UNL     1       0.801  15.062  21.912  0.00  0.00    +0.000 HD
ENDBRANCH  26  28
ENDBRANCH  21  26
ENDBRANCH   1  16
TORSDOF 6
ENDMDL
MODEL 6
REMARK VINA RESULT:      -7.8      1.507      8.641
REMARK  Name = 
REMARK  8 active torsions:
REMARK  status: ('A' for Active; 'I' for Inactive)
REMARK    1  A    between atoms: C_1  and  C_2
REMARK    2  A    between atoms: C_2  and  O_3
REMARK    3  A    between atoms: C_2  and  C_4
REMARK    4  A    between atoms: C_8  and  C_9
REMARK    5  A    between atoms: C_9  and  C_10
REMARK    6  A    between atoms: C_15  and  C_16
REMARK    7  A    between atoms: C_16  and  C_17
REMARK    8  A    between atoms: C_16  and  O_18
REMARK                            x       y       z     vdW  Elec       q    Type
REMARK                         _______ _______ _______ _____ _____    ______ ____
ROOT
ATOM      1  C   UNL     1       2.875   4.870  18.916  0.00  0.00    +0.000 C 
ENDROOT
BRANCH   1   6
ATOM      2  C   UNL     1       6.870   4.706  14.513  0.00  0.00    +0.000 A 
ATOM      3  N   UNL     1       5.566   4.577  14.671  0.00  0.00    +0.000 NA
ATOM      4  C   UNL     1       5.342   4.744  16.015  0.00  0.00    +0.000 A 
ATOM      5  C   UNL     1       4.143   4.674  16.739  0.00  0.00    +0.000 A 
ATOM      6  C   UNL     1       4.165   4.883  18.131  0.00  0.00    +0.000 A 
ATOM      7  C   UNL     1       5.389   5.135  18.775  0.00  0.00    +0.000 A 
ATOM      8  C   UNL     1       6.596   5.217  18.065  0.00  0.00    +0.000 A 
ATOM      9  C   UNL     1       6.527   5.018  16.686  0.00  0.00    +0.000 A 
ATOM     10  N   UNL     1       7.479   5.029  15.700  0.00  0.00    +0.000 N 
ATOM     11  H   UNL     1       8.464   5.216  15.829  0.00  0.00    +0.000 HD
BRANCH   2  13
ATOM     12  C   UNL     1       6.739   3.957  12.145  0.00  0.00    +0.000 C 
ATOM     13  C   UNL     1       7.627   4.529  13.239  0.00  0.00    +0.000 C 
BRANCH  13  14
ATOM     14  O   UNL     1       8.083   5.820  12.845  0.00  0.00    +0.000 OA
ATOM     15  H   UNL     1       9.059   5.765  12.849  0.00  0.00    +0.000 HD
ENDBRANCH  13  14
ENDBRANCH   2  13
ENDBRANCH   1   6
BRANCH   1  16
ATOM     16  C   UNL     1       2.383   6.220  19.384  0.00  0.00    +0.000 A 
ATOM     17  C   UNL     1       1.823   6.373  20.665  0.00  0.00    +0.000 A 
ATOM     18  C   UNL     1       1.285   7.594  21.101  0.00  0.00    +0.000 A 
ATOM     19  C   UNL     1       1.331   8.654  20.196  0.00  0.00    +0.000 A 
ATOM     20  N   UNL     1       0.889   9.949  20.261  0.00  0.00    +0.000 N 
ATOM     21  C   UNL     1       1.171  10.568  19.066  0.00  0.00    +0.000 A 
ATOM     22  N   UNL     1       1.790   9.738  18.249  0.00  0.00    +0.000 NA
ATOM     23  C   UNL     1       1.893   8.550  18.929  0.00  0.00    +0.000 A 
ATOM     24  C   UNL     1       2.442   7.328  18.518  0.00  0.00    +0.000 A 
ATOM     25  H   UNL     1       0.409  10.389  21.034  0.00  0.00    +0.000 HD
BRANCH  21  26
ATOM     26  C   UNL     1       0.815  11.996  18.814  0.00  0.00    +0.000 C 
ATOM     27  C   UNL     1       1.991  12.811  18.292  0.00  0.00    +0.000 C 
BRANCH  26  28
ATOM     28  O   UNL     1      -0.245  12.010  17.853  0.00  0.00    +0.000 OA
ATOM     29  H   UNL     1      -0.168  11.188  17.336  0.00  0.00    +0.000 HD
ENDBRANCH  26  28
ENDBRANCH  21  26
ENDBRANCH   1  16
TORSDOF 6
ENDMDL
MODEL 7
REMARK VINA RESULT:      -7.8      4.365     10.092
REMARK  Name = 
REMARK  8 active torsions:
REMARK  status: ('A' for Active; 'I' for Inactive)
REMARK    1  A    between atoms: C_1  and  C_2
REMARK    2  A    between atoms: C_2  and  O_3
REMARK    3  A    between atoms: C_2  and  C_4
REMARK    4  A    between atoms: C_8  and  C_9
REMARK    5  A    between atoms: C_9  and  C_10
REMARK    6  A    between atoms: C_15  and  C_16
REMARK    7  A    between atoms: C_16  and  C_17
REMARK    8  A    between atoms: C_16  and  O_18
REMARK                            x       y       z     vdW  Elec       q    Type
REMARK                         _______ _______ _______ _____ _____    ______ ____
ROOT
ATOM      1  C   UNL     1       0.489  10.710  18.565  0.00  0.00    +0.000 C 
ENDROOT
BRANCH   1   6
ATOM      2  C   UNL     1       3.542   5.622  18.961  0.00  0.00    +0.000 A 
ATOM      3  N   UNL     1       3.293   6.559  18.065  0.00  0.00    +0.000 NA
ATOM      4  C   UNL     1       2.481   7.466  18.701  0.00  0.00    +0.000 A 
ATOM      5  C   UNL     1       1.889   8.638  18.208  0.00  0.00    +0.000 A 
ATOM      6  C   UNL     1       1.085   9.415  19.063  0.00  0.00    +0.000 A 
ATOM      7  C   UNL     1       0.869   8.993  20.386  0.00  0.00    +0.000 A 
ATOM      8  C   UNL     1       1.461   7.829  20.898  0.00  0.00    +0.000 A 
ATOM      9  C   UNL     1       2.262   7.096  20.021  0.00  0.00    +0.000 A 
ATOM     10  N   UNL     1       2.982   5.939  20.173  0.00  0.00    +0.000 N 
ATOM     11  H   UNL     1       3.065   5.400  21.023  0.00  0.00    +0.000 HD
BRANCH   2  13
ATOM     12  C   UNL     1       4.436   4.054  17.250  0.00  0.00    +0.000 C 
ATOM     13  C   UNL     1       4.318   4.368  18.733  0.00  0.00    +0.000 C 
BRANCH  13  14
ATOM     14  O   UNL     1       5.619   4.580  19.273  0.00  0.00    +0.000 OA
ATOM     15  H   UNL     1       6.223   4.053  18.714  0.00  0.00    +0.000 HD
ENDBRANCH  13  14
ENDBRANCH   2  13
ENDBRANCH   1   6
BRANCH   1  16
ATOM     16  C   UNL     1      -0.996  10.680  18.286  0.00  0.00    +0.000 A 
ATOM     17  C   UNL     1      -1.511   9.900  17.235  0.00  0.00    +0.000 A 
ATOM     18  C   UNL     1      -2.874   9.911  16.899  0.00  0.00    +0.000 A 
ATOM     19  C   UNL     1      -3.698  10.739  17.661  0.00  0.00    +0.000 A 
ATOM     20  N   UNL     1      -5.038  11.019  17.606  0.00  0.00    +0.000 N 
ATOM     21  C   UNL     1      -5.333  11.934  18.589  0.00  0.00    +0.000 A 
ATOM     22  N   UNL     1      -4.253  12.236  19.283  0.00  0.00    +0.000 NA
ATOM     23  C   UNL     1      -3.232  11.510  18.720  0.00  0.00    +0.000 A 
ATOM     24  C   UNL     1      -1.871  11.472  19.053  0.00  0.00    +0.000 A 
ATOM     25  H   UNL     1      -5.708  10.652  16.946  0.00  0.00    +0.000 HD
BRANCH  21  26
ATOM     26  C   UNL     1      -6.720  12.449  18.796  0.00  0.00    +0.000 C 
ATOM     27  C   UNL     1      -7.314  13.057  17.533  0.00  0.00    +0.000 C 
BRANCH  26  28
ATOM     28  O   UNL     1      -7.526  11.348  19.227  0.00  0.00    +0.000 OA
ATOM     29  H   UNL     1      -7.080  10.957  19.998  0.00  0.00    +0.000 HD
ENDBRANCH  26  28
ENDBRANCH  21  26
ENDBRANCH   1  16
TORSDOF 6
ENDMDL
MODEL 8
REMARK VINA RESULT:      -7.8      4.214      9.358
REMARK  Name = 
REMARK  8 active torsions:
REMARK  status: ('A' for Active; 'I' for Inactive)
REMARK    1  A    between atoms: C_1  and  C_2
REMARK    2  A    between atoms: C_2  and  O_3
REMARK    3  A    between atoms: C_2  and  C_4
REMARK    4  A    between atoms: C_8  and  C_9
REMARK    5  A    between atoms: C_9  and  C_10
REMARK    6  A    between atoms: C_15  and  C_16
REMARK    7  A    between atoms: C_16  and  C_17
REMARK    8  A    between atoms: C_16  and  O_18
REMARK                            x       y       z     vdW  Elec       q    Type
REMARK                         _______ _______ _______ _____ _____    ______ ____
ROOT
ATOM      1  C   UNL     1       1.791   9.693  18.021  0.00  0.00    +0.000 C 
ENDROOT
BRANCH   1   6
ATOM      2  C   UNL     1       3.218   4.151  19.639  0.00  0.00    +0.000 A 
ATOM      3  N   UNL     1       3.357   4.942  18.592  0.00  0.00    +0.000 NA
ATOM      4  C   UNL     1       2.759   6.127  18.947  0.00  0.00    +0.000 A 
ATOM      5  C   UNL     1       2.587   7.302  18.201  0.00  0.00    +0.000 A 
ATOM      6  C   UNL     1       1.932   8.401  18.789  0.00  0.00    +0.000 A 
ATOM      7  C   UNL     1       1.441   8.294  20.101  0.00  0.00    +0.000 A 
ATOM      8  C   UNL     1       1.612   7.130  20.864  0.00  0.00    +0.000 A 
ATOM      9  C   UNL     1       2.279   6.070  20.249  0.00  0.00    +0.000 A 
ATOM     10  N   UNL     1       2.621   4.815  20.681  0.00  0.00    +0.000 N 
ATOM     11  H   UNL     1       2.441   4.435  21.600  0.00  0.00    +0.000 HD
BRANCH   2  13
ATOM     12  C   UNL     1       3.053   1.908  18.577  0.00  0.00    +0.000 C 
ATOM     13  C   UNL     1       3.632   2.720  19.725  0.00  0.00    +0.000 C 
BRANCH  13  14
ATOM     14  O   UNL     1       5.054   2.694  19.647  0.00  0.00    +0.000 OA
ATOM     15  H   UNL     1       5.347   3.585  19.920  0.00  0.00    +0.000 HD
ENDBRANCH  13  14
ENDBRANCH   2  13
ENDBRANCH   1   6
BRANCH   1  16
ATOM     16  C   UNL     1       0.487  10.431  18.219  0.00  0.00    +0.000 A 
ATOM     17  C   UNL     1       0.402  11.504  19.123  0.00  0.00    +0.000 A 
ATOM     18  C   UNL     1      -0.811  12.159  19.389  0.00  0.00    +0.000 A 
ATOM     19  C   UNL     1      -1.935  11.688  18.711  0.00  0.00    +0.000 A 
ATOM     20  N   UNL     1      -3.255  12.054  18.738  0.00  0.00    +0.000 N 
ATOM     21  C   UNL     1      -3.953  11.236  17.880  0.00  0.00    +0.000 A 
ATOM     22  N   UNL     1      -3.140  10.381  17.290  0.00  0.00    +0.000 NA
ATOM     23  C   UNL     1      -1.891  10.644  17.796  0.00  0.00    +0.000 A 
ATOM     24  C   UNL     1      -0.667  10.014  17.529  0.00  0.00    +0.000 A 
ATOM     25  H   UNL     1      -3.674  12.777  19.306  0.00  0.00    +0.000 HD
BRANCH  21  26
ATOM     26  C   UNL     1      -5.426  11.377  17.679  0.00  0.00    +0.000 C 
ATOM     27  C   UNL     1      -6.235  10.684  18.767  0.00  0.00    +0.000 C 
BRANCH  26  28
ATOM     28  O   UNL     1      -5.726  12.776  17.673  0.00  0.00    +0.000 OA
ATOM     29  H   UNL     1      -5.679  13.079  18.597  0.00  0.00    +0.000 HD
ENDBRANCH  26  28
ENDBRANCH  21  26
ENDBRANCH   1  16
TORSDOF 6
ENDMDL
MODEL 9
REMARK VINA RESULT:      -7.6      3.995      5.661
REMARK  Name = 
REMARK  8 active torsions:
REMARK  status: ('A' for Active; 'I' for Inactive)
REMARK    1  A    between atoms: C_1  and  C_2
REMARK    2  A    between atoms: C_2  and  O_3
REMARK    3  A    between atoms: C_2  and  C_4
REMARK    4  A    between atoms: C_8  and  C_9
REMARK    5  A    between atoms: C_9  and  C_10
REMARK    6  A    between atoms: C_15  and  C_16
REMARK    7  A    between atoms: C_16  and  C_17
REMARK    8  A    between atoms: C_16  and  O_18
REMARK                            x       y       z     vdW  Elec       q    Type
REMARK                         _______ _______ _______ _____ _____    ______ ____
ROOT
ATOM      1  C   UNL     1       0.792  10.655  18.517  0.00  0.00    +0.000 C 
ENDROOT
BRANCH   1   6
ATOM      2  C   UNL     1      -4.889  12.261  19.238  0.00  0.00    +0.000 A 
ATOM      3  N   UNL     1      -3.708  12.539  19.760  0.00  0.00    +0.000 NA
ATOM      4  C   UNL     1      -2.812  11.762  19.069  0.00  0.00    +0.000 A 
ATOM      5  C   UNL     1      -1.424  11.633  19.233  0.00  0.00    +0.000 A 
ATOM      6  C   UNL     1      -0.709  10.760  18.393  0.00  0.00    +0.000 A 
ATOM      7  C   UNL     1      -1.398  10.014  17.421  0.00  0.00    +0.000 A 
ATOM      8  C   UNL     1      -2.783  10.136  17.237  0.00  0.00    +0.000 A 
ATOM      9  C   UNL     1      -3.451  11.024  18.081  0.00  0.00    +0.000 A 
ATOM     10  N   UNL     1      -4.768  11.392  18.183  0.00  0.00    +0.000 N 
ATOM     11  H   UNL     1      -5.522  11.060  17.599  0.00  0.00    +0.000 HD
BRANCH   2  13
ATOM     12  C   UNL     1      -7.356  12.143  18.947  0.00  0.00    +0.000 C 
ATOM     13  C   UNL     1      -6.205  12.792  19.700  0.00  0.00    +0.000 C 
BRANCH  13  14
ATOM     14  O   UNL     1      -6.315  12.478  21.086  0.00  0.00    +0.000 OA
ATOM     15  H   UNL     1      -6.986  11.771  21.141  0.00  0.00    +0.000 HD
ENDBRANCH  13  14
ENDBRANCH   2  13
ENDBRANCH   1   6
BRANCH   1  16
ATOM     16  C   UNL     1       1.318   9.305  18.948  0.00  0.00    +0.000 A 
ATOM     17  C   UNL     1       1.097   8.835  20.255  0.00  0.00    +0.000 A 
ATOM     18  C   UNL     1       1.638   7.623  20.711  0.00  0.00    +0.000 A 
ATOM     19  C   UNL     1       2.413   6.905  19.801  0.00  0.00    +0.000 A 
ATOM     20  N   UNL     1       3.105   5.726  19.900  0.00  0.00    +0.000 N 
ATOM     21  C   UNL     1       3.724   5.482  18.696  0.00  0.00    +0.000 A 
ATOM     22  N   UNL     1       3.445   6.435  17.829  0.00  0.00    +0.000 NA
ATOM     23  C   UNL     1       2.640   7.324  18.496  0.00  0.00    +0.000 A 
ATOM     24  C   UNL     1       2.076   8.528  18.052  0.00  0.00    +0.000 A 
ATOM     25  H   UNL     1       3.186   5.135  20.715  0.00  0.00    +0.000 HD
BRANCH  21  26
ATOM     26  C   UNL     1       4.564   4.266  18.474  0.00  0.00    +0.000 C 
ATOM     27  C   UNL     1       4.983   4.101  17.019  0.00  0.00    +0.000 C 
BRANCH  26  28
ATOM     28  O   UNL     1       5.726   4.391  19.299  0.00  0.00    +0.000 OA
ATOM     29  H   UNL     1       5.432   4.274  20.220  0.00  0.00    +0.000 HD
ENDBRANCH  26  28
ENDBRANCH  21  26
ENDBRANCH   1  16
TORSDOF 6
ENDMDL
