MODEL 1
REMARK VINA RESULT:      -6.3      0.000      0.000
REMARK  Name = 
REMARK  4 active torsions:
REMARK  status: ('A' for Active; 'I' for Inactive)
REMARK    1  A    between atoms: C_9  and  C_10
REMARK    2  A    between atoms: C_12  and  O_13
REMARK    3  A    between atoms: O_13  and  C_14
REMARK    4  A    between atoms: C_14  and  C_15
REMARK                            x       y       z     vdW  Elec       q    Type
REMARK                         _______ _______ _______ _____ _____    ______ ____
ROOT
ATOM      1  C   UNL     1       1.529   4.252  17.790  0.00  0.00    +0.000 C 
ATOM      2  C   UNL     1       2.731   4.806  18.000  0.00  0.00    +0.000 C 
ATOM      3  C   UNL     1       2.830   6.267  18.197  0.00  0.00    +0.000 C 
ATOM      4  O   UNL     1       2.052   7.106  17.784  0.00  0.00    +0.000 OA
ATOM      5  O   UNL     1       3.950   6.504  18.923  0.00  0.00    +0.000 OA
ATOM      6  C   UNL     1       4.548   5.257  19.325  0.00  0.00    +0.000 C 
ATOM      7  C   UNL     1       6.057   5.393  19.144  0.00  0.00    +0.000 C 
ATOM      8  C   UNL     1       6.453   4.463  18.001  0.00  0.00    +0.000 C 
ATOM      9  C   UNL     1       5.163   4.085  17.255  0.00  0.00    +0.000 C 
ATOM     10  C   UNL     1       4.051   4.198  18.336  0.00  0.00    +0.000 C 
ENDROOT
BRANCH   9  11
ATOM     11  C   UNL     1       4.960   4.738  15.889  0.00  0.00    +0.000 C 
ATOM     12 BR   UNL     1       6.302   4.359  14.550  0.00  0.00    +0.000 Br
ENDBRANCH   9  11
BRANCH  10  13
ATOM     13  O   UNL     1       3.803   2.834  18.783  0.00  0.00    +0.000 OA
BRANCH  13  14
ATOM     14  C   UNL     1       4.025   2.412  20.045  0.00  0.00    +0.000 C 
ATOM     15  C   UNL     1       2.820   2.651  20.908  0.00  0.00    +0.000 C 
ATOM     16  O   UNL     1       5.052   1.885  20.451  0.00  0.00    +0.000 OA
ENDBRANCH  13  14
ENDBRANCH  10  13
TORSDOF 3
ENDMDL
MODEL 2
REMARK VINA RESULT:      -6.2      2.944      4.529
REMARK  Name = 
REMARK  4 active torsions:
REMARK  status: ('A' for Active; 'I' for Inactive)
REMARK    1  A    between atoms: C_9  and  C_10
REMARK    2  A    between atoms: C_12  and  O_13
REMARK    3  A    between atoms: O_13  and  C_14
REMARK    4  A    between atoms: C_14  and  C_15
REMARK                            x       y       z     vdW  Elec       q    Type
REMARK                         _______ _______ _______ _____ _____    ______ ____
ROOT
ATOM      1  C   UNL     1       3.878   3.348  16.861  0.00  0.00    +0.000 C 
ATOM      2  C   UNL     1       4.772   4.180  17.413  0.00  0.00    +0.000 C 
ATOM      3  C   UNL     1       5.359   3.845  18.727  0.00  0.00    +0.000 C 
ATOM      4  O   UNL     1       4.854   3.147  19.587  0.00  0.00    +0.000 OA
ATOM      5  O   UNL     1       6.565   4.458  18.801  0.00  0.00    +0.000 OA
ATOM      6  C   UNL     1       6.871   5.097  17.547  0.00  0.00    +0.000 C 
ATOM      7  C   UNL     1       7.476   6.461  17.863  0.00  0.00    +0.000 C 
ATOM      8  C   UNL     1       6.468   7.511  17.405  0.00  0.00    +0.000 C 
ATOM      9  C   UNL     1       5.127   6.791  17.191  0.00  0.00    +0.000 C 
ATOM     10  C   UNL     1       5.531   5.331  16.841  0.00  0.00    +0.000 C 
ENDROOT
BRANCH   9  11
ATOM     11  C   UNL     1       4.050   7.047  18.243  0.00  0.00    +0.000 C 
ATOM     12 BR   UNL     1       2.608   8.225  17.725  0.00  0.00    +0.000 Br
ENDBRANCH   9  11
BRANCH  10  13
ATOM     13  O   UNL     1       5.439   5.238  15.391  0.00  0.00    +0.000 OA
BRANCH  13  14
ATOM     14  C   UNL     1       6.477   4.902  14.598  0.00  0.00    +0.000 C 
ATOM     15  C   UNL     1       6.135   3.720  13.740  0.00  0.00    +0.000 C 
ATOM     16  O   UNL     1       7.555   5.480  14.552  0.00  0.00    +0.000 OA
ENDBRANCH  13  14
ENDBRANCH  10  13
TORSDOF 3
ENDMDL
MODEL 3
REMARK VINA RESULT:      -6.1      2.392      3.400
REMARK  Name = 
REMARK  4 active torsions:
REMARK  status: ('A' for Active; 'I' for Inactive)
REMARK    1  A    between atoms: C_9  and  C_10
REMARK    2  A    between atoms: C_12  and  O_13
REMARK    3  A    between atoms: O_13  and  C_14
REMARK    4  A    between atoms: C_14  and  C_15
REMARK                            x       y       z     vdW  Elec       q    Type
REMARK                         _______ _______ _______ _____ _____    ______ ____
ROOT
ATOM      1  C   UNL     1       3.996   5.503  19.896  0.00  0.00    +0.000 C 
ATOM      2  C   UNL     1       4.138   5.626  18.569  0.00  0.00    +0.000 C 
ATOM      3  C   UNL     1       3.446   6.725  17.865  0.00  0.00    +0.000 C 
ATOM      4  O   UNL     1       2.431   7.289  18.227  0.00  0.00    +0.000 OA
ATOM      5  O   UNL     1       4.149   6.991  16.737  0.00  0.00    +0.000 OA
ATOM      6  C   UNL     1       5.351   6.198  16.708  0.00  0.00    +0.000 C 
ATOM      7  C   UNL     1       5.524   5.680  15.284  0.00  0.00    +0.000 C 
ATOM      8  C   UNL     1       5.310   4.170  15.332  0.00  0.00    +0.000 C 
ATOM      9  C   UNL     1       4.631   3.850  16.673  0.00  0.00    +0.000 C 
ATOM     10  C   UNL     1       5.099   4.992  17.618  0.00  0.00    +0.000 C 
ENDROOT
BRANCH   9  11
ATOM     11  C   UNL     1       3.151   3.479  16.607  0.00  0.00    +0.000 C 
ATOM     12 BR   UNL     1       2.517   2.237  17.945  0.00  0.00    +0.000 Br
ENDBRANCH   9  11
BRANCH  10  13
ATOM     13  O   UNL     1       6.185   4.426  18.407  0.00  0.00    +0.000 OA
BRANCH  13  14
ATOM     14  C   UNL     1       7.483   4.735  18.216  0.00  0.00    +0.000 C 
ATOM     15  C   UNL     1       7.931   5.789  19.186  0.00  0.00    +0.000 C 
ATOM     16  O   UNL     1       8.223   4.226  17.384  0.00  0.00    +0.000 OA
ENDBRANCH  13  14
ENDBRANCH  10  13
TORSDOF 3
ENDMDL
MODEL 4
REMARK VINA RESULT:      -6.0      2.295      3.625
REMARK  Name = 
REMARK  4 active torsions:
REMARK  status: ('A' for Active; 'I' for Inactive)
REMARK    1  A    between atoms: C_9  and  C_10
REMARK    2  A    between atoms: C_12  and  O_13
REMARK    3  A    between atoms: O_13  and  C_14
REMARK    4  A    between atoms: C_14  and  C_15
REMARK                            x       y       z     vdW  Elec       q    Type
REMARK                         _______ _______ _______ _____ _____    ______ ____
ROOT
ATOM      1  C   UNL     1       6.531   5.227  19.295  0.00  0.00    +0.000 C 
ATOM      2  C   UNL     1       5.539   4.925  18.446  0.00  0.00    +0.000 C 
ATOM      3  C   UNL     1       5.852   4.687  17.022  0.00  0.00    +0.000 C 
ATOM      4  O   UNL     1       6.805   5.130  16.407  0.00  0.00    +0.000 OA
ATOM      5  O   UNL     1       4.883   3.883  16.522  0.00  0.00    +0.000 OA
ATOM      6  C   UNL     1       3.992   3.472  17.577  0.00  0.00    +0.000 C 
ATOM      7  C   UNL     1       2.569   3.549  17.031  0.00  0.00    +0.000 C 
ATOM      8  C   UNL     1       1.870   4.685  17.772  0.00  0.00    +0.000 C 
ATOM      9  C   UNL     1       2.964   5.524  18.452  0.00  0.00    +0.000 C 
ATOM     10  C   UNL     1       4.125   4.517  18.689  0.00  0.00    +0.000 C 
ENDROOT
BRANCH   9  11
ATOM     11  C   UNL     1       3.258   6.884  17.823  0.00  0.00    +0.000 C 
ATOM     12 BR   UNL     1       2.014   8.306  18.234  0.00  0.00    +0.000 Br
ENDBRANCH   9  11
BRANCH  10  13
ATOM     13  O   UNL     1       4.018   4.120  20.086  0.00  0.00    +0.000 OA
BRANCH  13  14
ATOM     14  C   UNL     1       3.882   2.840  20.489  0.00  0.00    +0.000 C 
ATOM     15  C   UNL     1       2.472   2.561  20.920  0.00  0.00    +0.000 C 
ATOM     16  O   UNL     1       4.768   1.996  20.493  0.00  0.00    +0.000 OA
ENDBRANCH  13  14
ENDBRANCH  10  13
TORSDOF 3
ENDMDL
MODEL 5
REMARK VINA RESULT:      -6.0      2.627      4.174
REMARK  Name = 
REMARK  4 active torsions:
REMARK  status: ('A' for Active; 'I' for Inactive)
REMARK    1  A    between atoms: C_9  and  C_10
REMARK    2  A    between atoms: C_12  and  O_13
REMARK    3  A    between atoms: O_13  and  C_14
REMARK    4  A    between atoms: C_14  and  C_15
REMARK                            x       y       z     vdW  Elec       q    Type
REMARK                         _______ _______ _______ _____ _____    ______ ____
ROOT
ATOM      1  C   UNL     1       5.009   1.803  20.668  0.00  0.00    +0.000 C 
ATOM      2  C   UNL     1       4.095   2.715  20.308  0.00  0.00    +0.000 C 
ATOM      3  C   UNL     1       2.972   3.013  21.221  0.00  0.00    +0.000 C 
ATOM      4  O   UNL     1       2.507   2.267  22.062  0.00  0.00    +0.000 OA
ATOM      5  O   UNL     1       2.552   4.272  20.950  0.00  0.00    +0.000 OA
ATOM      6  C   UNL     1       3.419   4.881  19.974  0.00  0.00    +0.000 C 
ATOM      7  C   UNL     1       2.536   5.636  18.985  0.00  0.00    +0.000 C 
ATOM      8  C   UNL     1       2.633   4.901  17.651  0.00  0.00    +0.000 C 
ATOM      9  C   UNL     1       3.235   3.516  17.939  0.00  0.00    +0.000 C 
ATOM     10  C   UNL     1       4.094   3.733  19.217  0.00  0.00    +0.000 C 
ENDROOT
BRANCH   9  11
ATOM     11  C   UNL     1       2.271   2.334  17.867  0.00  0.00    +0.000 C 
ATOM     12 BR   UNL     1       0.572   2.557  18.761  0.00  0.00    +0.000 Br
ENDBRANCH   9  11
BRANCH  10  13
ATOM     13  O   UNL     1       5.466   3.870  18.746  0.00  0.00    +0.000 OA
BRANCH  13  14
ATOM     14  C   UNL     1       6.212   4.977  18.937  0.00  0.00    +0.000 C 
ATOM     15  C   UNL     1       6.144   5.881  17.742  0.00  0.00    +0.000 C 
ATOM     16  O   UNL     1       6.851   5.240  19.947  0.00  0.00    +0.000 OA
ENDBRANCH  13  14
ENDBRANCH  10  13
TORSDOF 3
ENDMDL
MODEL 6
REMARK VINA RESULT:      -6.0      1.784      3.269
REMARK  Name = 
REMARK  4 active torsions:
REMARK  status: ('A' for Active; 'I' for Inactive)
REMARK    1  A    between atoms: C_9  and  C_10
REMARK    2  A    between atoms: C_12  and  O_13
REMARK    3  A    between atoms: O_13  and  C_14
REMARK    4  A    between atoms: C_14  and  C_15
REMARK                            x       y       z     vdW  Elec       q    Type
REMARK                         _______ _______ _______ _____ _____    ______ ____
ROOT
ATOM      1  C   UNL     1       4.661   2.965  19.568  0.00  0.00    +0.000 C 
ATOM      2  C   UNL     1       4.176   3.984  18.845  0.00  0.00    +0.000 C 
ATOM      3  C   UNL     1       2.720   4.078  18.612  0.00  0.00    +0.000 C 
ATOM      4  O   UNL     1       1.927   3.155  18.612  0.00  0.00    +0.000 OA
ATOM      5  O   UNL     1       2.427   5.383  18.395  0.00  0.00    +0.000 OA
ATOM      6  C   UNL     1       3.604   6.191  18.589  0.00  0.00    +0.000 C 
ATOM      7  C   UNL     1       3.635   7.231  17.473  0.00  0.00    +0.000 C 
ATOM      8  C   UNL     1       4.818   6.883  16.575  0.00  0.00    +0.000 C 
ATOM      9  C   UNL     1       5.238   5.445  16.914  0.00  0.00    +0.000 C 
ATOM     10  C   UNL     1       4.805   5.261  18.396  0.00  0.00    +0.000 C 
ENDROOT
BRANCH   9  11
ATOM     11  C   UNL     1       4.879   4.377  15.882  0.00  0.00    +0.000 C 
ATOM     12 BR   UNL     1       6.188   4.046  14.499  0.00  0.00    +0.000 Br
ENDBRANCH   9  11
BRANCH  10  13
ATOM     13  O   UNL     1       6.016   5.452  19.182  0.00  0.00    +0.000 OA
BRANCH  13  14
ATOM     14  C   UNL     1       7.260   5.366  18.667  0.00  0.00    +0.000 C 
ATOM     15  C   UNL     1       7.922   6.712  18.642  0.00  0.00    +0.000 C 
ATOM     16  O   UNL     1       7.804   4.339  18.284  0.00  0.00    +0.000 OA
ENDBRANCH  13  14
ENDBRANCH  10  13
TORSDOF 3
ENDMDL
MODEL 7
REMARK VINA RESULT:      -5.9      1.837      3.965
REMARK  Name = 
REMARK  4 active torsions:
REMARK  status: ('A' for Active; 'I' for Inactive)
REMARK    1  A    between atoms: C_9  and  C_10
REMARK    2  A    between atoms: C_12  and  O_13
REMARK    3  A    between atoms: O_13  and  C_14
REMARK    4  A    between atoms: C_14  and  C_15
REMARK                            x       y       z     vdW  Elec       q    Type
REMARK                         _______ _______ _______ _____ _____    ______ ____
ROOT
ATOM      1  C   UNL     1       6.642   7.220  17.445  0.00  0.00    +0.000 C 
ATOM      2  C   UNL     1       6.174   6.035  17.859  0.00  0.00    +0.000 C 
ATOM      3  C   UNL     1       6.940   5.262  18.858  0.00  0.00    +0.000 C 
ATOM      4  O   UNL     1       8.139   5.327  19.058  0.00  0.00    +0.000 OA
ATOM      5  O   UNL     1       6.064   4.463  19.514  0.00  0.00    +0.000 OA
ATOM      6  C   UNL     1       4.720   4.749  19.082  0.00  0.00    +0.000 C 
ATOM      7  C   UNL     1       3.998   3.414  18.917  0.00  0.00    +0.000 C 
ATOM      8  C   UNL     1       3.742   3.230  17.425  0.00  0.00    +0.000 C 
ATOM      9  C   UNL     1       4.640   4.231  16.682  0.00  0.00    +0.000 C 
ATOM     10  C   UNL     1       4.837   5.392  17.697  0.00  0.00    +0.000 C 
ENDROOT
BRANCH   9  11
ATOM     11  C   UNL     1       5.852   3.642  15.961  0.00  0.00    +0.000 C 
ATOM     12 BR   UNL     1       6.320   4.451  14.269  0.00  0.00    +0.000 Br
ENDBRANCH   9  11
BRANCH  10  13
ATOM     13  O   UNL     1       3.900   6.430  17.287  0.00  0.00    +0.000 OA
BRANCH  13  14
ATOM     14  C   UNL     1       2.884   6.863  18.061  0.00  0.00    +0.000 C 
ATOM     15  C   UNL     1       2.725   8.351  17.951  0.00  0.00    +0.000 C 
ATOM     16  O   UNL     1       2.162   6.157  18.751  0.00  0.00    +0.000 OA
ENDBRANCH  13  14
ENDBRANCH  10  13
TORSDOF 3
ENDMDL
MODEL 8
REMARK VINA RESULT:      -5.9      2.249      4.413
REMARK  Name = 
REMARK  4 active torsions:
REMARK  status: ('A' for Active; 'I' for Inactive)
REMARK    1  A    between atoms: C_9  and  C_10
REMARK    2  A    between atoms: C_12  and  O_13
REMARK    3  A    between atoms: O_13  and  C_14
REMARK    4  A    between atoms: C_14  and  C_15
REMARK                            x       y       z     vdW  Elec       q    Type
REMARK                         _______ _______ _______ _____ _____    ______ ____
ROOT
ATOM      1  C   UNL     1       4.998   6.486  16.824  0.00  0.00    +0.000 C 
ATOM      2  C   UNL     1       4.472   5.750  17.812  0.00  0.00    +0.000 C 
ATOM      3  C   UNL     1       5.371   5.035  18.740  0.00  0.00    +0.000 C 
ATOM      4  O   UNL     1       6.506   4.664  18.505  0.00  0.00    +0.000 OA
ATOM      5  O   UNL     1       4.701   4.866  19.906  0.00  0.00    +0.000 OA
ATOM      6  C   UNL     1       3.430   5.539  19.844  0.00  0.00    +0.000 C 
ATOM      7  C   UNL     1       2.391   4.618  20.478  0.00  0.00    +0.000 C 
ATOM      8  C   UNL     1       1.464   4.157  19.357  0.00  0.00    +0.000 C 
ATOM      9  C   UNL     1       2.168   4.471  18.027  0.00  0.00    +0.000 C 
ATOM     10  C   UNL     1       3.085   5.682  18.359  0.00  0.00    +0.000 C 
ENDROOT
BRANCH   9  11
ATOM     11  C   UNL     1       2.738   3.274  17.269  0.00  0.00    +0.000 C 
ATOM     12 BR   UNL     1       3.345   1.787  18.344  0.00  0.00    +0.000 Br
ENDBRANCH   9  11
BRANCH  10  13
ATOM     13  O   UNL     1       2.368   6.856  17.880  0.00  0.00    +0.000 OA
BRANCH  13  14
ATOM     14  C   UNL     1       2.133   7.946  18.639  0.00  0.00    +0.000 C 
ATOM     15  C   UNL     1       2.165   9.194  17.806  0.00  0.00    +0.000 C 
ATOM     16  O   UNL     1       1.903   7.942  19.840  0.00  0.00    +0.000 OA
ENDBRANCH  13  14
ENDBRANCH  10  13
TORSDOF 3
ENDMDL
MODEL 9
REMARK VINA RESULT:      -5.8      2.533      4.679
REMARK  Name = 
REMARK  4 active torsions:
REMARK  status: ('A' for Active; 'I' for Inactive)
REMARK    1  A    between atoms: C_9  and  C_10
REMARK    2  A    between atoms: C_12  and  O_13
REMARK    3  A    between atoms: O_13  and  C_14
REMARK    4  A    between atoms: C_14  and  C_15
REMARK                            x       y       z     vdW  Elec       q    Type
REMARK                         _______ _______ _______ _____ _____    ______ ____
ROOT
ATOM      1  C   UNL     1       7.348   4.310  17.414  0.00  0.00    +0.000 C 
ATOM      2  C   UNL     1       6.116   4.585  17.862  0.00  0.00    +0.000 C 
ATOM      3  C   UNL     1       5.954   5.330  19.128  0.00  0.00    +0.000 C 
ATOM      4  O   UNL     1       6.750   5.372  20.048  0.00  0.00    +0.000 OA
ATOM      5  O   UNL     1       4.756   5.960  19.079  0.00  0.00    +0.000 OA
ATOM      6  C   UNL     1       4.152   5.768  17.785  0.00  0.00    +0.000 C 
ATOM      7  C   UNL     1       2.669   5.487  18.009  0.00  0.00    +0.000 C 
ATOM      8  C   UNL     1       2.427   4.034  17.613  0.00  0.00    +0.000 C 
ATOM      9  C   UNL     1       3.800   3.349  17.538  0.00  0.00    +0.000 C 
ATOM     10  C   UNL     1       4.783   4.504  17.194  0.00  0.00    +0.000 C 
ENDROOT
BRANCH   9  11
ATOM     11  C   UNL     1       4.134   2.383  18.674  0.00  0.00    +0.000 C 
ATOM     12 BR   UNL     1       3.250   2.707  20.362  0.00  0.00    +0.000 Br
ENDBRANCH   9  11
BRANCH  10  13
ATOM     13  O   UNL     1       5.019   4.401  15.761  0.00  0.00    +0.000 OA
BRANCH  13  14
ATOM     14  C   UNL     1       5.590   5.378  15.028  0.00  0.00    +0.000 C 
ATOM     15  C   UNL     1       6.578   4.808  14.053  0.00  0.00    +0.000 C 
ATOM     16  O   UNL     1       5.340   6.573  15.114  0.00  0.00    +0.000 OA
ENDBRANCH  13  14
ENDBRANCH  10  13
TORSDOF 3
ENDMDL
