MODEL 1
REMARK VINA RESULT:      -7.4      0.000      0.000
REMARK  Name = 
REMARK  2 active torsions:
REMARK  status: ('A' for Active; 'I' for Inactive)
REMARK    1  A    between atoms: O_1  and  C_2
REMARK    2  A    between atoms: C_10  and  O_11
REMARK                            x       y       z     vdW  Elec       q    Type
REMARK                         _______ _______ _______ _____ _____    ______ ____
ROOT
ATOM      1  C   UNL     1       6.842   5.335  15.930  0.00  0.00    +0.000 A 
ATOM      2  C   UNL     1       7.236   6.111  17.008  0.00  0.00    +0.000 A 
ATOM      3  C   UNL     1       6.432   6.136  18.148  0.00  0.00    +0.000 A 
ATOM      4  C   UNL     1       5.254   5.401  18.223  0.00  0.00    +0.000 A 
ATOM      5  N   UNL     1       4.512   5.457  19.343  0.00  0.00    +0.000 NA
ATOM      6  C   UNL     1       3.379   4.732  19.373  0.00  0.00    +0.000 A 
ATOM      7  C   UNL     1       2.582   4.761  20.512  0.00  0.00    +0.000 A 
ATOM      8  C   UNL     1       1.398   4.027  20.592  0.00  0.00    +0.000 A 
ATOM      9  C   UNL     1       1.017   3.255  19.506  0.00  0.00    +0.000 A 
ATOM     10  C   UNL     1       1.800   3.213  18.358  0.00  0.00    +0.000 A 
ATOM     11  C   UNL     1       2.981   3.941  18.271  0.00  0.00    +0.000 A 
ATOM     12  N   UNL     1       3.727   3.888  17.150  0.00  0.00    +0.000 NA
ATOM     13  C   UNL     1       4.862   4.613  17.118  0.00  0.00    +0.000 A 
ATOM     14  C   UNL     1       5.666   4.593  15.986  0.00  0.00    +0.000 A 
ENDROOT
BRANCH   1  15
ATOM     15  O   UNL     1       7.585   5.271  14.791  0.00  0.00    +0.000 OA
ATOM     16  H   UNL     1       7.109   5.720  14.073  0.00  0.00    +0.000 HD
ENDBRANCH   1  15
BRANCH   9  17
ATOM     17  O   UNL     1      -0.128   2.517  19.527  0.00  0.00    +0.000 OA
ATOM     18  H   UNL     1      -0.292   2.156  18.639  0.00  0.00    +0.000 HD
ENDBRANCH   9  17
TORSDOF 2
ENDMDL
MODEL 2
REMARK VINA RESULT:      -7.4      0.100      5.560
REMARK  Name = 
REMARK  2 active torsions:
REMARK  status: ('A' for Active; 'I' for Inactive)
REMARK    1  A    between atoms: O_1  and  C_2
REMARK    2  A    between atoms: C_10  and  O_11
REMARK                            x       y       z     vdW  Elec       q    Type
REMARK                         _______ _______ _______ _____ _____    ______ ____
ROOT
ATOM      1  C   UNL     1       1.049   3.224  19.392  0.00  0.00    +0.000 A 
ATOM      2  C   UNL     1       1.421   3.987  20.487  0.00  0.00    +0.000 A 
ATOM      3  C   UNL     1       2.600   4.730  20.420  0.00  0.00    +0.000 A 
ATOM      4  C   UNL     1       3.402   4.720  19.283  0.00  0.00    +0.000 A 
ATOM      5  N   UNL     1       4.529   5.453  19.265  0.00  0.00    +0.000 NA
ATOM      6  C   UNL     1       5.276   5.413  18.147  0.00  0.00    +0.000 A 
ATOM      7  C   UNL     1       6.450   6.156  18.085  0.00  0.00    +0.000 A 
ATOM      8  C   UNL     1       7.259   6.148  16.948  0.00  0.00    +0.000 A 
ATOM      9  C   UNL     1       6.875   5.380  15.861  0.00  0.00    +0.000 A 
ATOM     10  C   UNL     1       5.704   4.630  15.903  0.00  0.00    +0.000 A 
ATOM     11  C   UNL     1       4.893   4.633  17.032  0.00  0.00    +0.000 A 
ATOM     12  N   UNL     1       3.763   3.900  17.053  0.00  0.00    +0.000 NA
ATOM     13  C   UNL     1       3.013   3.939  18.172  0.00  0.00    +0.000 A 
ATOM     14  C   UNL     1       1.839   3.200  18.246  0.00  0.00    +0.000 A 
ENDROOT
BRANCH   1  15
ATOM     15  O   UNL     1      -0.090   2.478  19.399  0.00  0.00    +0.000 OA
ATOM     16  H   UNL     1      -0.750   2.897  18.821  0.00  0.00    +0.000 HD
ENDBRANCH   1  15
BRANCH   9  17
ATOM     17  O   UNL     1       7.624   5.334  14.724  0.00  0.00    +0.000 OA
ATOM     18  H   UNL     1       7.389   4.537  14.219  0.00  0.00    +0.000 HD
ENDBRANCH   9  17
TORSDOF 2
ENDMDL
MODEL 3
REMARK VINA RESULT:      -7.3      1.762      5.559
REMARK  Name = 
REMARK  2 active torsions:
REMARK  status: ('A' for Active; 'I' for Inactive)
REMARK    1  A    between atoms: O_1  and  C_2
REMARK    2  A    between atoms: C_10  and  O_11
REMARK                            x       y       z     vdW  Elec       q    Type
REMARK                         _______ _______ _______ _____ _____    ______ ____
ROOT
ATOM      1  C   UNL     1       1.481   2.753  18.619  0.00  0.00    +0.000 A 
ATOM      2  C   UNL     1       2.209   2.038  19.557  0.00  0.00    +0.000 A 
ATOM      3  C   UNL     1       3.517   2.434  19.837  0.00  0.00    +0.000 A 
ATOM      4  C   UNL     1       4.099   3.525  19.199  0.00  0.00    +0.000 A 
ATOM      5  N   UNL     1       5.362   3.870  19.503  0.00  0.00    +0.000 NA
ATOM      6  C   UNL     1       5.887   4.929  18.862  0.00  0.00    +0.000 A 
ATOM      7  C   UNL     1       7.191   5.320  19.145  0.00  0.00    +0.000 A 
ATOM      8  C   UNL     1       7.780   6.412  18.507  0.00  0.00    +0.000 A 
ATOM      9  C   UNL     1       7.040   7.118  17.572  0.00  0.00    +0.000 A 
ATOM     10  C   UNL     1       5.734   6.743  17.274  0.00  0.00    +0.000 A 
ATOM     11  C   UNL     1       5.141   5.656  17.906  0.00  0.00    +0.000 A 
ATOM     12  N   UNL     1       3.875   5.309  17.604  0.00  0.00    +0.000 NA
ATOM     13  C   UNL     1       3.347   4.247  18.245  0.00  0.00    +0.000 A 
ATOM     14  C   UNL     1       2.046   3.847  17.970  0.00  0.00    +0.000 A 
ENDROOT
BRANCH   1  15
ATOM     15  O   UNL     1       0.200   2.414  18.304  0.00  0.00    +0.000 OA
ATOM     16  H   UNL     1       0.177   1.487  18.013  0.00  0.00    +0.000 HD
ENDBRANCH   1  15
BRANCH   9  17
ATOM     17  O   UNL     1       7.562   8.193  16.918  0.00  0.00    +0.000 OA
ATOM     18  H   UNL     1       6.886   8.889  16.858  0.00  0.00    +0.000 HD
ENDBRANCH   9  17
TORSDOF 2
ENDMDL
MODEL 4
REMARK VINA RESULT:      -7.3      1.836      1.988
REMARK  Name = 
REMARK  2 active torsions:
REMARK  status: ('A' for Active; 'I' for Inactive)
REMARK    1  A    between atoms: O_1  and  C_2
REMARK    2  A    between atoms: C_10  and  O_11
REMARK                            x       y       z     vdW  Elec       q    Type
REMARK                         _______ _______ _______ _____ _____    ______ ____
ROOT
ATOM      1  C   UNL     1       7.236   7.289  17.624  0.00  0.00    +0.000 A 
ATOM      2  C   UNL     1       7.967   6.592  18.574  0.00  0.00    +0.000 A 
ATOM      3  C   UNL     1       7.381   5.491  19.198  0.00  0.00    +0.000 A 
ATOM      4  C   UNL     1       6.088   5.081  18.887  0.00  0.00    +0.000 A 
ATOM      5  N   UNL     1       5.566   4.013  19.514  0.00  0.00    +0.000 NA
ATOM      6  C   UNL     1       4.313   3.652  19.185  0.00  0.00    +0.000 A 
ATOM      7  C   UNL     1       3.734   2.553  19.810  0.00  0.00    +0.000 A 
ATOM      8  C   UNL     1       2.437   2.139  19.503  0.00  0.00    +0.000 A 
ATOM      9  C   UNL     1       1.719   2.844  18.551  0.00  0.00    +0.000 A 
ATOM     10  C   UNL     1       2.280   3.947  17.914  0.00  0.00    +0.000 A 
ATOM     11  C   UNL     1       3.572   4.365  18.215  0.00  0.00    +0.000 A 
ATOM     12  N   UNL     1       4.098   5.435  17.588  0.00  0.00    +0.000 NA
ATOM     13  C   UNL     1       5.353   5.798  17.916  0.00  0.00    +0.000 A 
ATOM     14  C   UNL     1       5.942   6.894  17.299  0.00  0.00    +0.000 A 
ENDROOT
BRANCH   1  15
ATOM     15  O   UNL     1       7.755   8.371  16.981  0.00  0.00    +0.000 OA
ATOM     16  H   UNL     1       7.722   8.221  16.022  0.00  0.00    +0.000 HD
ENDBRANCH   1  15
BRANCH   9  17
ATOM     17  O   UNL     1       0.450   2.486  18.209  0.00  0.00    +0.000 OA
ATOM     18  H   UNL     1      -0.113   3.279  18.197  0.00  0.00    +0.000 HD
ENDBRANCH   9  17
TORSDOF 2
ENDMDL
MODEL 5
REMARK VINA RESULT:      -7.2      1.013      1.013
REMARK  Name = 
REMARK  2 active torsions:
REMARK  status: ('A' for Active; 'I' for Inactive)
REMARK    1  A    between atoms: O_1  and  C_2
REMARK    2  A    between atoms: C_10  and  O_11
REMARK                            x       y       z     vdW  Elec       q    Type
REMARK                         _______ _______ _______ _____ _____    ______ ____
ROOT
ATOM      1  C   UNL     1       6.881   4.989  15.681  0.00  0.00    +0.000 A 
ATOM      2  C   UNL     1       7.639   4.992  16.841  0.00  0.00    +0.000 A 
ATOM      3  C   UNL     1       7.035   4.615  18.041  0.00  0.00    +0.000 A 
ATOM      4  C   UNL     1       5.696   4.239  18.093  0.00  0.00    +0.000 A 
ATOM      5  N   UNL     1       5.158   3.883  19.273  0.00  0.00    +0.000 NA
ATOM      6  C   UNL     1       3.860   3.528  19.279  0.00  0.00    +0.000 A 
ATOM      7  C   UNL     1       3.263   3.153  20.478  0.00  0.00    +0.000 A 
ATOM      8  C   UNL     1       1.920   2.776  20.537  0.00  0.00    +0.000 A 
ATOM      9  C   UNL     1       1.175   2.778  19.369  0.00  0.00    +0.000 A 
ATOM     10  C   UNL     1       1.754   3.150  18.160  0.00  0.00    +0.000 A 
ATOM     11  C   UNL     1       3.091   3.526  18.094  0.00  0.00    +0.000 A 
ATOM     12  N   UNL     1       3.633   3.883  16.914  0.00  0.00    +0.000 NA
ATOM     13  C   UNL     1       4.933   4.239  16.905  0.00  0.00    +0.000 A 
ATOM     14  C   UNL     1       5.541   4.617  15.714  0.00  0.00    +0.000 A 
ENDROOT
BRANCH   1  15
ATOM     15  O   UNL     1       7.416   5.347  14.481  0.00  0.00    +0.000 OA
ATOM     16  H   UNL     1       6.973   6.150  14.160  0.00  0.00    +0.000 HD
ENDBRANCH   1  15
BRANCH   9  17
ATOM     17  O   UNL     1      -0.139   2.419  19.365  0.00  0.00    +0.000 OA
ATOM     18  H   UNL     1      -0.281   1.719  20.025  0.00  0.00    +0.000 HD
ENDBRANCH   9  17
TORSDOF 2
ENDMDL
MODEL 6
REMARK VINA RESULT:      -7.2      1.106      2.256
REMARK  Name = 
REMARK  2 active torsions:
REMARK  status: ('A' for Active; 'I' for Inactive)
REMARK    1  A    between atoms: O_1  and  C_2
REMARK    2  A    between atoms: C_10  and  O_11
REMARK                            x       y       z     vdW  Elec       q    Type
REMARK                         _______ _______ _______ _____ _____    ______ ____
ROOT
ATOM      1  C   UNL     1       6.736   6.128  16.772  0.00  0.00    +0.000 A 
ATOM      2  C   UNL     1       6.345   5.443  15.632  0.00  0.00    +0.000 A 
ATOM      3  C   UNL     1       5.267   4.561  15.714  0.00  0.00    +0.000 A 
ATOM      4  C   UNL     1       4.583   4.359  16.908  0.00  0.00    +0.000 A 
ATOM      5  N   UNL     1       3.550   3.499  16.938  0.00  0.00    +0.000 NA
ATOM      6  C   UNL     1       2.917   3.332  18.113  0.00  0.00    +0.000 A 
ATOM      7  C   UNL     1       1.843   2.451  18.189  0.00  0.00    +0.000 A 
ATOM      8  C   UNL     1       1.154   2.243  19.385  0.00  0.00    +0.000 A 
ATOM      9  C   UNL     1       1.556   2.934  20.516  0.00  0.00    +0.000 A 
ATOM     10  C   UNL     1       2.627   3.820  20.460  0.00  0.00    +0.000 A 
ATOM     11  C   UNL     1       3.319   4.032  19.273  0.00  0.00    +0.000 A 
ATOM     12  N   UNL     1       4.354   4.893  19.240  0.00  0.00    +0.000 NA
ATOM     13  C   UNL     1       4.989   5.062  18.064  0.00  0.00    +0.000 A 
ATOM     14  C   UNL     1       6.064   5.938  17.976  0.00  0.00    +0.000 A 
ENDROOT
BRANCH   1  15
ATOM     15  O   UNL     1       7.780   7.002  16.753  0.00  0.00    +0.000 OA
ATOM     16  H   UNL     1       7.692   7.590  15.985  0.00  0.00    +0.000 HD
ENDBRANCH   1  15
BRANCH   9  17
ATOM     17  O   UNL     1       0.920   2.773  21.710  0.00  0.00    +0.000 OA
ATOM     18  H   UNL     1       0.497   1.897  21.730  0.00  0.00    +0.000 HD
ENDBRANCH   9  17
TORSDOF 2
ENDMDL
MODEL 7
REMARK VINA RESULT:      -7.1      1.113      5.957
REMARK  Name = 
REMARK  2 active torsions:
REMARK  status: ('A' for Active; 'I' for Inactive)
REMARK    1  A    between atoms: O_1  and  C_2
REMARK    2  A    between atoms: C_10  and  O_11
REMARK                            x       y       z     vdW  Elec       q    Type
REMARK                         _______ _______ _______ _____ _____    ______ ____
ROOT
ATOM      1  C   UNL     1       1.611   2.927  20.372  0.00  0.00    +0.000 A 
ATOM      2  C   UNL     1       1.376   2.092  19.291  0.00  0.00    +0.000 A 
ATOM      3  C   UNL     1       2.160   2.237  18.146  0.00  0.00    +0.000 A 
ATOM      4  C   UNL     1       3.165   3.196  18.070  0.00  0.00    +0.000 A 
ATOM      5  N   UNL     1       3.895   3.298  16.945  0.00  0.00    +0.000 NA
ATOM      6  C   UNL     1       4.855   4.240  16.913  0.00  0.00    +0.000 A 
ATOM      7  C   UNL     1       5.634   4.380  15.769  0.00  0.00    +0.000 A 
ATOM      8  C   UNL     1       6.642   5.341  15.686  0.00  0.00    +0.000 A 
ATOM      9  C   UNL     1       6.865   6.169  16.774  0.00  0.00    +0.000 A 
ATOM     10  C   UNL     1       6.098   6.044  17.928  0.00  0.00    +0.000 A 
ATOM     11  C   UNL     1       5.091   5.089  18.017  0.00  0.00    +0.000 A 
ATOM     12  N   UNL     1       4.359   4.984  19.143  0.00  0.00    +0.000 NA
ATOM     13  C   UNL     1       3.396   4.042  19.177  0.00  0.00    +0.000 A 
ATOM     14  C   UNL     1       2.612   3.893  20.314  0.00  0.00    +0.000 A 
ENDROOT
BRANCH   1  15
ATOM     15  O   UNL     1       0.879   2.833  21.516  0.00  0.00    +0.000 OA
ATOM     16  H   UNL     1       1.165   3.523  22.137  0.00  0.00    +0.000 HD
ENDBRANCH   1  15
BRANCH   9  17
ATOM     17  O   UNL     1       7.836   7.124  16.752  0.00  0.00    +0.000 OA
ATOM     18  H   UNL     1       7.600   7.805  16.099  0.00  0.00    +0.000 HD
ENDBRANCH   9  17
TORSDOF 2
ENDMDL
MODEL 8
REMARK VINA RESULT:      -7.0      1.683      1.737
REMARK  Name = 
REMARK  2 active torsions:
REMARK  status: ('A' for Active; 'I' for Inactive)
REMARK    1  A    between atoms: O_1  and  C_2
REMARK    2  A    between atoms: C_10  and  O_11
REMARK                            x       y       z     vdW  Elec       q    Type
REMARK                         _______ _______ _______ _____ _____    ______ ____
ROOT
ATOM      1  C   UNL     1       5.851   4.236  15.039  0.00  0.00    +0.000 A 
ATOM      2  C   UNL     1       5.648   5.605  15.108  0.00  0.00    +0.000 A 
ATOM      3  C   UNL     1       4.921   6.124  16.179  0.00  0.00    +0.000 A 
ATOM      4  C   UNL     1       4.401   5.300  17.172  0.00  0.00    +0.000 A 
ATOM      5  N   UNL     1       3.707   5.846  18.186  0.00  0.00    +0.000 NA
ATOM      6  C   UNL     1       3.221   5.013  19.124  0.00  0.00    +0.000 A 
ATOM      7  C   UNL     1       2.497   5.536  20.190  0.00  0.00    +0.000 A 
ATOM      8  C   UNL     1       1.972   4.713  21.188  0.00  0.00    +0.000 A 
ATOM      9  C   UNL     1       2.184   3.347  21.106  0.00  0.00    +0.000 A 
ATOM     10  C   UNL     1       2.906   2.804  20.047  0.00  0.00    +0.000 A 
ATOM     11  C   UNL     1       3.431   3.617  19.050  0.00  0.00    +0.000 A 
ATOM     12  N   UNL     1       4.127   3.073  18.033  0.00  0.00    +0.000 NA
ATOM     13  C   UNL     1       4.615   3.906  17.092  0.00  0.00    +0.000 A 
ATOM     14  C   UNL     1       5.339   3.396  16.022  0.00  0.00    +0.000 A 
ENDROOT
BRANCH   1  15
ATOM     15  O   UNL     1       6.553   3.672  14.017  0.00  0.00    +0.000 OA
ATOM     16  H   UNL     1       6.504   2.705  14.091  0.00  0.00    +0.000 HD
ENDBRANCH   1  15
BRANCH   9  17
ATOM     17  O   UNL     1       1.697   2.495  22.051  0.00  0.00    +0.000 OA
ATOM     18  H   UNL     1       2.438   2.023  22.468  0.00  0.00    +0.000 HD
ENDBRANCH   9  17
TORSDOF 2
ENDMDL
MODEL 9
REMARK VINA RESULT:      -6.9      1.655      5.495
REMARK  Name = 
REMARK  2 active torsions:
REMARK  status: ('A' for Active; 'I' for Inactive)
REMARK    1  A    between atoms: O_1  and  C_2
REMARK    2  A    between atoms: C_10  and  O_11
REMARK                            x       y       z     vdW  Elec       q    Type
REMARK                         _______ _______ _______ _____ _____    ______ ____
ROOT
ATOM      1  C   UNL     1       2.255   3.256  21.117  0.00  0.00    +0.000 A 
ATOM      2  C   UNL     1       2.000   4.611  21.258  0.00  0.00    +0.000 A 
ATOM      3  C   UNL     1       2.491   5.491  20.294  0.00  0.00    +0.000 A 
ATOM      4  C   UNL     1       3.225   5.039  19.202  0.00  0.00    +0.000 A 
ATOM      5  N   UNL     1       3.677   5.925  18.299  0.00  0.00    +0.000 NA
ATOM      6  C   UNL     1       4.384   5.446  17.260  0.00  0.00    +0.000 A 
ATOM      7  C   UNL     1       4.871   6.329  16.301  0.00  0.00    +0.000 A 
ATOM      8  C   UNL     1       5.609   5.880  15.205  0.00  0.00    +0.000 A 
ATOM      9  C   UNL     1       5.856   4.523  15.077  0.00  0.00    +0.000 A 
ATOM     10  C   UNL     1       5.378   3.624  16.025  0.00  0.00    +0.000 A 
ATOM     11  C   UNL     1       4.641   4.063  17.120  0.00  0.00    +0.000 A 
ATOM     12  N   UNL     1       4.187   3.177  18.027  0.00  0.00    +0.000 NA
ATOM     13  C   UNL     1       3.479   3.656  19.068  0.00  0.00    +0.000 A 
ATOM     14  C   UNL     1       2.988   2.784  20.032  0.00  0.00    +0.000 A 
ENDROOT
BRANCH   1  15
ATOM     15  O   UNL     1       1.802   2.349  22.026  0.00  0.00    +0.000 OA
ATOM     16  H   UNL     1       1.146   1.771  21.602  0.00  0.00    +0.000 HD
ENDBRANCH   1  15
BRANCH   9  17
ATOM     17  O   UNL     1       6.570   4.027  14.029  0.00  0.00    +0.000 OA
ATOM     18  H   UNL     1       6.035   4.091  13.219  0.00  0.00    +0.000 HD
ENDBRANCH   9  17
TORSDOF 2
ENDMDL
