MODEL 1
REMARK VINA RESULT:      -4.9      0.000      0.000
REMARK  Name = 
REMARK  13 active torsions:
REMARK  status: ('A' for Active; 'I' for Inactive)
REMARK    1  A    between atoms: N_1  and  C_2
REMARK    2  A    between atoms: C_2  and  C_3
REMARK    3  A    between atoms: C_3  and  C_4
REMARK    4  A    between atoms: C_4  and  N_5
REMARK    5  A    between atoms: N_5  and  C_6
REMARK    6  A    between atoms: C_6  and  C_7
REMARK    7  A    between atoms: C_7  and  N_8
REMARK    8  A    between atoms: N_8  and  C_9
REMARK    9  A    between atoms: C_9  and  C_10
REMARK   10  A    between atoms: C_10  and  N_11
REMARK   11  A    between atoms: N_11  and  C_12
REMARK   12  A    between atoms: C_12  and  C_13
REMARK   13  A    between atoms: C_13  and  N_14
REMARK                            x       y       z     vdW  Elec       q    Type
REMARK                         _______ _______ _______ _____ _____    ______ ____
ROOT
ATOM      1  N   UNL     1       5.060   3.356  16.820  0.00  0.00    +0.000 NA
ATOM      2  H   UNL     1       4.724   2.767  16.059  0.00  0.00    +0.000 HD
ENDROOT
BRANCH   1   3
ATOM      3  C   UNL     1       3.931   3.653  17.718  0.00  0.00    +0.000 C 
BRANCH   3   4
ATOM      4  C   UNL     1       2.795   2.603  17.729  0.00  0.00    +0.000 C 
BRANCH   4   5
ATOM      5  N   UNL     1       1.491   3.218  18.010  0.00  0.00    +0.000 NA
ATOM      6  H   UNL     1       1.588   4.231  17.973  0.00  0.00    +0.000 HD
BRANCH   5   7
ATOM      7  C   UNL     1       1.007   2.843  19.339  0.00  0.00    +0.000 C 
BRANCH   7   8
ATOM      8  C   UNL     1       1.041   4.067  20.257  0.00  0.00    +0.000 C 
BRANCH   8   9
ATOM      9  C   UNL     1       2.020   3.850  21.409  0.00  0.00    +0.000 C 
BRANCH   9  10
ATOM     10  N   UNL     1       1.881   2.503  21.952  0.00  0.00    +0.000 NA
ATOM     11  H   UNL     1       2.618   1.908  21.576  0.00  0.00    +0.000 HD
ATOM     12  H   UNL     1       0.999   2.098  21.639  0.00  0.00    +0.000 HD
ENDBRANCH   9  10
ENDBRANCH   8   9
ENDBRANCH   7   8
ENDBRANCH   5   7
ENDBRANCH   4   5
ENDBRANCH   3   4
ENDBRANCH   1   3
BRANCH   1  13
ATOM     13  C   UNL     1       5.677   4.576  16.292  0.00  0.00    +0.000 C 
BRANCH  13  14
ATOM     14  C   UNL     1       7.153   4.701  16.710  0.00  0.00    +0.000 C 
BRANCH  14  15
ATOM     15  N   UNL     1       7.536   6.119  16.717  0.00  0.00    +0.000 NA
ATOM     16  H   UNL     1       6.869   6.633  16.140  0.00  0.00    +0.000 HD
BRANCH  15  17
ATOM     17  C   UNL     1       7.456   6.676  18.074  0.00  0.00    +0.000 C 
BRANCH  17  18
ATOM     18  C   UNL     1       7.104   5.582  19.100  0.00  0.00    +0.000 C 
BRANCH  18  19
ATOM     19  N   UNL     1       8.040   5.553  20.231  0.00  0.00    +0.000 NA
ATOM     20  H   UNL     1       8.172   4.579  20.505  0.00  0.00    +0.000 HD
ATOM     21  H   UNL     1       7.597   6.002  21.032  0.00  0.00    +0.000 HD
ENDBRANCH  18  19
ENDBRANCH  17  18
ENDBRANCH  15  17
ENDBRANCH  14  15
ENDBRANCH  13  14
ENDBRANCH   1  13
TORSDOF 13
ENDMDL
MODEL 2
REMARK VINA RESULT:      -4.8      1.218      1.373
REMARK  Name = 
REMARK  13 active torsions:
REMARK  status: ('A' for Active; 'I' for Inactive)
REMARK    1  A    between atoms: N_1  and  C_2
REMARK    2  A    between atoms: C_2  and  C_3
REMARK    3  A    between atoms: C_3  and  C_4
REMARK    4  A    between atoms: C_4  and  N_5
REMARK    5  A    between atoms: N_5  and  C_6
REMARK    6  A    between atoms: C_6  and  C_7
REMARK    7  A    between atoms: C_7  and  N_8
REMARK    8  A    between atoms: N_8  and  C_9
REMARK    9  A    between atoms: C_9  and  C_10
REMARK   10  A    between atoms: C_10  and  N_11
REMARK   11  A    between atoms: N_11  and  C_12
REMARK   12  A    between atoms: C_12  and  C_13
REMARK   13  A    between atoms: C_13  and  N_14
REMARK                            x       y       z     vdW  Elec       q    Type
REMARK                         _______ _______ _______ _____ _____    ______ ____
ROOT
ATOM      1  N   UNL     1       4.253   5.010  16.778  0.00  0.00    +0.000 NA
ATOM      2  H   UNL     1       4.675   5.903  16.526  0.00  0.00    +0.000 HD
ENDROOT
BRANCH   1   3
ATOM      3  C   UNL     1       3.521   5.175  18.045  0.00  0.00    +0.000 C 
BRANCH   3   4
ATOM      4  C   UNL     1       2.018   4.811  17.997  0.00  0.00    +0.000 C 
BRANCH   4   5
ATOM      5  N   UNL     1       1.811   3.421  17.573  0.00  0.00    +0.000 NA
ATOM      6  H   UNL     1       1.262   3.414  16.715  0.00  0.00    +0.000 HD
BRANCH   5   7
ATOM      7  C   UNL     1       1.089   2.660  18.594  0.00  0.00    +0.000 C 
BRANCH   7   8
ATOM      8  C   UNL     1       2.018   2.388  19.779  0.00  0.00    +0.000 C 
BRANCH   8   9
ATOM      9  C   UNL     1       1.347   2.787  21.092  0.00  0.00    +0.000 C 
BRANCH   9  10
ATOM     10  N   UNL     1       2.335   2.895  22.160  0.00  0.00    +0.000 NA
ATOM     11  H   UNL     1       2.145   3.729  22.714  0.00  0.00    +0.000 HD
ATOM     12  H   UNL     1       3.262   3.027  21.755  0.00  0.00    +0.000 HD
ENDBRANCH   9  10
ENDBRANCH   8   9
ENDBRANCH   7   8
ENDBRANCH   5   7
ENDBRANCH   4   5
ENDBRANCH   3   4
ENDBRANCH   1   3
BRANCH   1  13
ATOM     13  C   UNL     1       5.277   3.966  16.867  0.00  0.00    +0.000 C 
BRANCH  13  14
ATOM     14  C   UNL     1       6.467   4.246  15.933  0.00  0.00    +0.000 C 
BRANCH  14  15
ATOM     15  N   UNL     1       7.443   5.093  16.631  0.00  0.00    +0.000 NA
ATOM     16  H   UNL     1       7.079   6.047  16.655  0.00  0.00    +0.000 HD
BRANCH  15  17
ATOM     17  C   UNL     1       7.613   4.657  18.023  0.00  0.00    +0.000 C 
BRANCH  17  18
ATOM     18  C   UNL     1       7.742   5.867  18.969  0.00  0.00    +0.000 C 
BRANCH  18  19
ATOM     19  N   UNL     1       8.023   5.468  20.353  0.00  0.00    +0.000 NA
ATOM     20  H   UNL     1       8.950   5.816  20.598  0.00  0.00    +0.000 HD
ATOM     21  H   UNL     1       8.098   4.452  20.389  0.00  0.00    +0.000 HD
ENDBRANCH  18  19
ENDBRANCH  17  18
ENDBRANCH  15  17
ENDBRANCH  14  15
ENDBRANCH  13  14
ENDBRANCH   1  13
TORSDOF 13
ENDMDL
MODEL 3
REMARK VINA RESULT:      -4.8      1.887      2.647
REMARK  Name = 
REMARK  13 active torsions:
REMARK  status: ('A' for Active; 'I' for Inactive)
REMARK    1  A    between atoms: N_1  and  C_2
REMARK    2  A    between atoms: C_2  and  C_3
REMARK    3  A    between atoms: C_3  and  C_4
REMARK    4  A    between atoms: C_4  and  N_5
REMARK    5  A    between atoms: N_5  and  C_6
REMARK    6  A    between atoms: C_6  and  C_7
REMARK    7  A    between atoms: C_7  and  N_8
REMARK    8  A    between atoms: N_8  and  C_9
REMARK    9  A    between atoms: C_9  and  C_10
REMARK   10  A    between atoms: C_10  and  N_11
REMARK   11  A    between atoms: N_11  and  C_12
REMARK   12  A    between atoms: C_12  and  C_13
REMARK   13  A    between atoms: C_13  and  N_14
REMARK                            x       y       z     vdW  Elec       q    Type
REMARK                         _______ _______ _______ _____ _____    ______ ____
ROOT
ATOM      1  N   UNL     1       2.693   4.596  17.870  0.00  0.00    +0.000 NA
ATOM      2  H   UNL     1       2.034   4.206  17.199  0.00  0.00    +0.000 HD
ENDROOT
BRANCH   1   3
ATOM      3  C   UNL     1       2.448   6.044  17.983  0.00  0.00    +0.000 C 
BRANCH   3   4
ATOM      4  C   UNL     1       2.487   6.616  19.420  0.00  0.00    +0.000 C 
BRANCH   4   5
ATOM      5  N   UNL     1       2.926   5.607  20.393  0.00  0.00    +0.000 NA
ATOM      6  H   UNL     1       3.428   4.869  19.901  0.00  0.00    +0.000 HD
BRANCH   5   7
ATOM      7  C   UNL     1       1.785   5.012  21.088  0.00  0.00    +0.000 C 
BRANCH   7   8
ATOM      8  C   UNL     1       2.169   3.622  21.601  0.00  0.00    +0.000 C 
BRANCH   8   9
ATOM      9  C   UNL     1       1.536   2.534  20.737  0.00  0.00    +0.000 C 
BRANCH   9  10
ATOM     10  N   UNL     1       0.607   3.119  19.776  0.00  0.00    +0.000 NA
ATOM     11  H   UNL     1       0.904   2.884  18.830  0.00  0.00    +0.000 HD
ATOM     12  H   UNL     1       0.643   4.136  19.843  0.00  0.00    +0.000 HD
ENDBRANCH   9  10
ENDBRANCH   8   9
ENDBRANCH   7   8
ENDBRANCH   5   7
ENDBRANCH   4   5
ENDBRANCH   3   4
ENDBRANCH   1   3
BRANCH   1  13
ATOM     13  C   UNL     1       4.070   4.302  17.467  0.00  0.00    +0.000 C 
BRANCH  13  14
ATOM     14  C   UNL     1       4.814   3.469  18.526  0.00  0.00    +0.000 C 
BRANCH  14  15
ATOM     15  N   UNL     1       6.204   3.935  18.622  0.00  0.00    +0.000 NA
ATOM     16  H   UNL     1       6.680   3.706  17.748  0.00  0.00    +0.000 HD
BRANCH  15  17
ATOM     17  C   UNL     1       6.256   5.395  18.774  0.00  0.00    +0.000 C 
BRANCH  17  18
ATOM     18  C   UNL     1       7.681   5.863  19.130  0.00  0.00    +0.000 C 
BRANCH  18  19
ATOM     19  N   UNL     1       8.104   5.407  20.460  0.00  0.00    +0.000 NA
ATOM     20  H   UNL     1       8.510   4.476  20.359  0.00  0.00    +0.000 HD
ATOM     21  H   UNL     1       7.274   5.278  21.038  0.00  0.00    +0.000 HD
ENDBRANCH  18  19
ENDBRANCH  17  18
ENDBRANCH  15  17
ENDBRANCH  14  15
ENDBRANCH  13  14
ENDBRANCH   1  13
TORSDOF 13
ENDMDL
MODEL 4
REMARK VINA RESULT:      -4.8      1.898      6.159
REMARK  Name = 
REMARK  13 active torsions:
REMARK  status: ('A' for Active; 'I' for Inactive)
REMARK    1  A    between atoms: N_1  and  C_2
REMARK    2  A    between atoms: C_2  and  C_3
REMARK    3  A    between atoms: C_3  and  C_4
REMARK    4  A    between atoms: C_4  and  N_5
REMARK    5  A    between atoms: N_5  and  C_6
REMARK    6  A    between atoms: C_6  and  C_7
REMARK    7  A    between atoms: C_7  and  N_8
REMARK    8  A    between atoms: N_8  and  C_9
REMARK    9  A    between atoms: C_9  and  C_10
REMARK   10  A    between atoms: C_10  and  N_11
REMARK   11  A    between atoms: N_11  and  C_12
REMARK   12  A    between atoms: C_12  and  C_13
REMARK   13  A    between atoms: C_13  and  N_14
REMARK                            x       y       z     vdW  Elec       q    Type
REMARK                         _______ _______ _______ _____ _____    ______ ____
ROOT
ATOM      1  N   UNL     1       4.721   2.121  19.189  0.00  0.00    +0.000 NA
ATOM      2  H   UNL     1       4.607   1.584  20.047  0.00  0.00    +0.000 HD
ENDROOT
BRANCH   1   3
ATOM      3  C   UNL     1       4.818   3.550  19.536  0.00  0.00    +0.000 C 
BRANCH   3   4
ATOM      4  C   UNL     1       5.390   4.466  18.428  0.00  0.00    +0.000 C 
BRANCH   4   5
ATOM      5  N   UNL     1       6.774   4.109  18.091  0.00  0.00    +0.000 NA
ATOM      6  H   UNL     1       7.402   4.548  18.762  0.00  0.00    +0.000 HD
BRANCH   5   7
ATOM      7  C   UNL     1       7.126   4.574  16.749  0.00  0.00    +0.000 C 
BRANCH   7   8
ATOM      8  C   UNL     1       6.134   3.999  15.734  0.00  0.00    +0.000 C 
BRANCH   8   9
ATOM      9  C   UNL     1       6.538   4.379  14.311  0.00  0.00    +0.000 C 
BRANCH   9  10
ATOM     10  N   UNL     1       7.570   5.410  14.330  0.00  0.00    +0.000 NA
ATOM     11  H   UNL     1       7.186   6.268  14.724  0.00  0.00    +0.000 HD
ATOM     12  H   UNL     1       7.847   5.634  13.374  0.00  0.00    +0.000 HD
ENDBRANCH   9  10
ENDBRANCH   8   9
ENDBRANCH   7   8
ENDBRANCH   5   7
ENDBRANCH   4   5
ENDBRANCH   3   4
ENDBRANCH   1   3
BRANCH   1  13
ATOM     13  C   UNL     1       3.614   1.855  18.266  0.00  0.00    +0.000 C 
BRANCH  13  14
ATOM     14  C   UNL     1       2.245   2.014  18.950  0.00  0.00    +0.000 C 
BRANCH  14  15
ATOM     15  N   UNL     1       1.408   2.923  18.155  0.00  0.00    +0.000 NA
ATOM     16  H   UNL     1       0.438   2.613  18.231  0.00  0.00    +0.000 HD
BRANCH  15  17
ATOM     17  C   UNL     1       1.471   4.291  18.685  0.00  0.00    +0.000 C 
BRANCH  17  18
ATOM     18  C   UNL     1       1.281   4.299  20.215  0.00  0.00    +0.000 C 
BRANCH  18  19
ATOM     19  N   UNL     1       2.039   5.374  20.867  0.00  0.00    +0.000 NA
ATOM     20  H   UNL     1       1.968   6.207  20.283  0.00  0.00    +0.000 HD
ATOM     21  H   UNL     1       3.027   5.124  20.862  0.00  0.00    +0.000 HD
ENDBRANCH  18  19
ENDBRANCH  17  18
ENDBRANCH  15  17
ENDBRANCH  14  15
ENDBRANCH  13  14
ENDBRANCH   1  13
TORSDOF 13
ENDMDL
MODEL 5
REMARK VINA RESULT:      -4.8      1.657      1.866
REMARK  Name = 
REMARK  13 active torsions:
REMARK  status: ('A' for Active; 'I' for Inactive)
REMARK    1  A    between atoms: N_1  and  C_2
REMARK    2  A    between atoms: C_2  and  C_3
REMARK    3  A    between atoms: C_3  and  C_4
REMARK    4  A    between atoms: C_4  and  N_5
REMARK    5  A    between atoms: N_5  and  C_6
REMARK    6  A    between atoms: C_6  and  C_7
REMARK    7  A    between atoms: C_7  and  N_8
REMARK    8  A    between atoms: N_8  and  C_9
REMARK    9  A    between atoms: C_9  and  C_10
REMARK   10  A    between atoms: C_10  and  N_11
REMARK   11  A    between atoms: N_11  and  C_12
REMARK   12  A    between atoms: C_12  and  C_13
REMARK   13  A    between atoms: C_13  and  N_14
REMARK                            x       y       z     vdW  Elec       q    Type
REMARK                         _______ _______ _______ _____ _____    ______ ____
ROOT
ATOM      1  N   UNL     1       5.010   3.318  17.153  0.00  0.00    +0.000 NA
ATOM      2  H   UNL     1       4.706   2.394  16.849  0.00  0.00    +0.000 HD
ENDROOT
BRANCH   1   3
ATOM      3  C   UNL     1       4.271   3.681  18.374  0.00  0.00    +0.000 C 
BRANCH   3   4
ATOM      4  C   UNL     1       3.505   2.522  19.055  0.00  0.00    +0.000 C 
BRANCH   4   5
ATOM      5  N   UNL     1       3.695   2.530  20.512  0.00  0.00    +0.000 NA
ATOM      6  H   UNL     1       4.153   1.664  20.791  0.00  0.00    +0.000 HD
BRANCH   5   7
ATOM      7  C   UNL     1       2.413   2.625  21.211  0.00  0.00    +0.000 C 
BRANCH   7   8
ATOM      8  C   UNL     1       1.359   3.209  20.266  0.00  0.00    +0.000 C 
BRANCH   8   9
ATOM      9  C   UNL     1       1.162   4.699  20.534  0.00  0.00    +0.000 C 
BRANCH   9  10
ATOM     10  N   UNL     1       2.386   5.291  21.064  0.00  0.00    +0.000 NA
ATOM     11  H   UNL     1       3.042   4.550  21.308  0.00  0.00    +0.000 HD
ATOM     12  H   UNL     1       2.178   5.786  21.931  0.00  0.00    +0.000 HD
ENDBRANCH   9  10
ENDBRANCH   8   9
ENDBRANCH   7   8
ENDBRANCH   5   7
ENDBRANCH   4   5
ENDBRANCH   3   4
ENDBRANCH   1   3
BRANCH   1  13
ATOM     13  C   UNL     1       4.816   4.299  16.082  0.00  0.00    +0.000 C 
BRANCH  13  14
ATOM     14  C   UNL     1       5.180   5.725  16.535  0.00  0.00    +0.000 C 
BRANCH  14  15
ATOM     15  N   UNL     1       6.580   6.001  16.190  0.00  0.00    +0.000 NA
ATOM     16  H   UNL     1       6.596   6.731  15.476  0.00  0.00    +0.000 HD
BRANCH  15  17
ATOM     17  C   UNL     1       7.314   6.516  17.354  0.00  0.00    +0.000 C 
BRANCH  17  18
ATOM     18  C   UNL     1       7.625   5.386  18.355  0.00  0.00    +0.000 C 
BRANCH  18  19
ATOM     19  N   UNL     1       8.110   4.169  17.691  0.00  0.00    +0.000 NA
ATOM     20  H   UNL     1       8.906   4.426  17.107  0.00  0.00    +0.000 HD
ATOM     21  H   UNL     1       7.393   3.845  17.043  0.00  0.00    +0.000 HD
ENDBRANCH  18  19
ENDBRANCH  17  18
ENDBRANCH  15  17
ENDBRANCH  14  15
ENDBRANCH  13  14
ENDBRANCH   1  13
TORSDOF 13
ENDMDL
MODEL 6
REMARK VINA RESULT:      -4.7      2.087      6.198
REMARK  Name = 
REMARK  13 active torsions:
REMARK  status: ('A' for Active; 'I' for Inactive)
REMARK    1  A    between atoms: N_1  and  C_2
REMARK    2  A    between atoms: C_2  and  C_3
REMARK    3  A    between atoms: C_3  and  C_4
REMARK    4  A    between atoms: C_4  and  N_5
REMARK    5  A    between atoms: N_5  and  C_6
REMARK    6  A    between atoms: C_6  and  C_7
REMARK    7  A    between atoms: C_7  and  N_8
REMARK    8  A    between atoms: N_8  and  C_9
REMARK    9  A    between atoms: C_9  and  C_10
REMARK   10  A    between atoms: C_10  and  N_11
REMARK   11  A    between atoms: N_11  and  C_12
REMARK   12  A    between atoms: C_12  and  C_13
REMARK   13  A    between atoms: C_13  and  N_14
REMARK                            x       y       z     vdW  Elec       q    Type
REMARK                         _______ _______ _______ _____ _____    ______ ____
ROOT
ATOM      1  N   UNL     1       6.052   5.012  19.726  0.00  0.00    +0.000 NA
ATOM      2  H   UNL     1       6.160   5.589  20.559  0.00  0.00    +0.000 HD
ENDROOT
BRANCH   1   3
ATOM      3  C   UNL     1       6.857   5.595  18.640  0.00  0.00    +0.000 C 
BRANCH   3   4
ATOM      4  C   UNL     1       7.756   4.600  17.869  0.00  0.00    +0.000 C 
BRANCH   4   5
ATOM      5  N   UNL     1       7.552   4.697  16.418  0.00  0.00    +0.000 NA
ATOM      6  H   UNL     1       8.444   4.906  15.972  0.00  0.00    +0.000 HD
BRANCH   5   7
ATOM      7  C   UNL     1       6.604   5.761  16.088  0.00  0.00    +0.000 C 
BRANCH   7   8
ATOM      8  C   UNL     1       5.638   5.266  15.008  0.00  0.00    +0.000 C 
BRANCH   8   9
ATOM      9  C   UNL     1       5.800   3.764  14.788  0.00  0.00    +0.000 C 
BRANCH   9  10
ATOM     10  N   UNL     1       6.357   3.497  13.466  0.00  0.00    +0.000 NA
ATOM     11  H   UNL     1       5.777   3.945  12.757  0.00  0.00    +0.000 HD
ATOM     12  H   UNL     1       6.319   2.496  13.275  0.00  0.00    +0.000 HD
ENDBRANCH   9  10
ENDBRANCH   8   9
ENDBRANCH   7   8
ENDBRANCH   5   7
ENDBRANCH   4   5
ENDBRANCH   3   4
ENDBRANCH   1   3
BRANCH   1  13
ATOM     13  C   UNL     1       4.637   4.898  19.361  0.00  0.00    +0.000 C 
BRANCH  13  14
ATOM     14  C   UNL     1       4.392   3.757  18.357  0.00  0.00    +0.000 C 
BRANCH  14  15
ATOM     15  N   UNL     1       4.508   2.467  19.050  0.00  0.00    +0.000 NA
ATOM     16  H   UNL     1       4.226   2.601  20.023  0.00  0.00    +0.000 HD
BRANCH  15  17
ATOM     17  C   UNL     1       3.594   1.476  18.466  0.00  0.00    +0.000 C 
BRANCH  17  18
ATOM     18  C   UNL     1       2.343   2.158  17.877  0.00  0.00    +0.000 C 
BRANCH  18  19
ATOM     19  N   UNL     1       1.146   1.932  18.696  0.00  0.00    +0.000 NA
ATOM     20  H   UNL     1       1.259   2.450  19.568  0.00  0.00    +0.000 HD
ATOM     21  H   UNL     1       1.118   0.950  18.967  0.00  0.00    +0.000 HD
ENDBRANCH  18  19
ENDBRANCH  17  18
ENDBRANCH  15  17
ENDBRANCH  14  15
ENDBRANCH  13  14
ENDBRANCH   1  13
TORSDOF 13
ENDMDL
MODEL 7
REMARK VINA RESULT:      -4.7      2.134      5.725
REMARK  Name = 
REMARK  13 active torsions:
REMARK  status: ('A' for Active; 'I' for Inactive)
REMARK    1  A    between atoms: N_1  and  C_2
REMARK    2  A    between atoms: C_2  and  C_3
REMARK    3  A    between atoms: C_3  and  C_4
REMARK    4  A    between atoms: C_4  and  N_5
REMARK    5  A    between atoms: N_5  and  C_6
REMARK    6  A    between atoms: C_6  and  C_7
REMARK    7  A    between atoms: C_7  and  N_8
REMARK    8  A    between atoms: N_8  and  C_9
REMARK    9  A    between atoms: C_9  and  C_10
REMARK   10  A    between atoms: C_10  and  N_11
REMARK   11  A    between atoms: N_11  and  C_12
REMARK   12  A    between atoms: C_12  and  C_13
REMARK   13  A    between atoms: C_13  and  N_14
REMARK                            x       y       z     vdW  Elec       q    Type
REMARK                         _______ _______ _______ _____ _____    ______ ____
ROOT
ATOM      1  N   UNL     1       3.126   5.692  19.948  0.00  0.00    +0.000 NA
ATOM      2  H   UNL     1       3.921   6.034  20.486  0.00  0.00    +0.000 HD
ENDROOT
BRANCH   1   3
ATOM      3  C   UNL     1       2.703   6.745  19.010  0.00  0.00    +0.000 C 
BRANCH   3   4
ATOM      4  C   UNL     1       3.638   6.971  17.798  0.00  0.00    +0.000 C 
BRANCH   4   5
ATOM      5  N   UNL     1       4.829   6.115  17.866  0.00  0.00    +0.000 NA
ATOM      6  H   UNL     1       5.047   5.927  18.843  0.00  0.00    +0.000 HD
BRANCH   5   7
ATOM      7  C   UNL     1       5.984   6.767  17.248  0.00  0.00    +0.000 C 
BRANCH   7   8
ATOM      8  C   UNL     1       7.229   5.901  17.454  0.00  0.00    +0.000 C 
BRANCH   8   9
ATOM      9  C   UNL     1       7.818   6.127  18.844  0.00  0.00    +0.000 C 
BRANCH   9  10
ATOM     10  N   UNL     1       7.095   5.344  19.841  0.00  0.00    +0.000 NA
ATOM     11  H   UNL     1       6.096   5.382  19.641  0.00  0.00    +0.000 HD
ATOM     12  H   UNL     1       7.219   5.765  20.761  0.00  0.00    +0.000 HD
ENDBRANCH   9  10
ENDBRANCH   8   9
ENDBRANCH   7   8
ENDBRANCH   5   7
ENDBRANCH   4   5
ENDBRANCH   3   4
ENDBRANCH   1   3
BRANCH   1  13
ATOM     13  C   UNL     1       2.039   5.284  20.842  0.00  0.00    +0.000 C 
BRANCH  13  14
ATOM     14  C   UNL     1       1.789   3.766  20.788  0.00  0.00    +0.000 C 
BRANCH  14  15
ATOM     15  N   UNL     1       1.794   3.323  19.387  0.00  0.00    +0.000 NA
ATOM     16  H   UNL     1       2.150   4.088  18.812  0.00  0.00    +0.000 HD
BRANCH  15  17
ATOM     17  C   UNL     1       2.699   2.181  19.203  0.00  0.00    +0.000 C 
BRANCH  17  18
ATOM     18  C   UNL     1       3.916   2.575  18.342  0.00  0.00    +0.000 C 
BRANCH  18  19
ATOM     19  N   UNL     1       4.966   3.234  19.128  0.00  0.00    +0.000 NA
ATOM     20  H   UNL     1       5.660   3.603  18.476  0.00  0.00    +0.000 HD
ATOM     21  H   UNL     1       5.457   2.526  19.673  0.00  0.00    +0.000 HD
ENDBRANCH  18  19
ENDBRANCH  17  18
ENDBRANCH  15  17
ENDBRANCH  14  15
ENDBRANCH  13  14
ENDBRANCH   1  13
TORSDOF 13
ENDMDL
MODEL 8
REMARK VINA RESULT:      -4.7      1.725      5.857
REMARK  Name = 
REMARK  13 active torsions:
REMARK  status: ('A' for Active; 'I' for Inactive)
REMARK    1  A    between atoms: N_1  and  C_2
REMARK    2  A    between atoms: C_2  and  C_3
REMARK    3  A    between atoms: C_3  and  C_4
REMARK    4  A    between atoms: C_4  and  N_5
REMARK    5  A    between atoms: N_5  and  C_6
REMARK    6  A    between atoms: C_6  and  C_7
REMARK    7  A    between atoms: C_7  and  N_8
REMARK    8  A    between atoms: N_8  and  C_9
REMARK    9  A    between atoms: C_9  and  C_10
REMARK   10  A    between atoms: C_10  and  N_11
REMARK   11  A    between atoms: N_11  and  C_12
REMARK   12  A    between atoms: C_12  and  C_13
REMARK   13  A    between atoms: C_13  and  N_14
REMARK                            x       y       z     vdW  Elec       q    Type
REMARK                         _______ _______ _______ _____ _____    ______ ____
ROOT
ATOM      1  N   UNL     1       3.986   4.518  18.479  0.00  0.00    +0.000 NA
ATOM      2  H   UNL     1       3.600   4.539  19.422  0.00  0.00    +0.000 HD
ENDROOT
BRANCH   1   3
ATOM      3  C   UNL     1       3.536   5.721  17.759  0.00  0.00    +0.000 C 
BRANCH   3   4
ATOM      4  C   UNL     1       4.659   6.580  17.131  0.00  0.00    +0.000 C 
BRANCH   4   5
ATOM      5  N   UNL     1       5.415   5.829  16.121  0.00  0.00    +0.000 NA
ATOM      6  H   UNL     1       5.144   4.848  16.166  0.00  0.00    +0.000 HD
BRANCH   5   7
ATOM      7  C   UNL     1       6.855   5.927  16.358  0.00  0.00    +0.000 C 
BRANCH   7   8
ATOM      8  C   UNL     1       7.104   6.610  17.705  0.00  0.00    +0.000 C 
BRANCH   8   9
ATOM      9  C   UNL     1       7.621   5.604  18.732  0.00  0.00    +0.000 C 
BRANCH   9  10
ATOM     10  N   UNL     1       7.128   4.265  18.429  0.00  0.00    +0.000 NA
ATOM     11  H   UNL     1       7.400   3.627  19.176  0.00  0.00    +0.000 HD
ATOM     12  H   UNL     1       7.575   3.920  17.581  0.00  0.00    +0.000 HD
ENDBRANCH   9  10
ENDBRANCH   8   9
ENDBRANCH   7   8
ENDBRANCH   5   7
ENDBRANCH   4   5
ENDBRANCH   3   4
ENDBRANCH   1   3
BRANCH   1  13
ATOM     13  C   UNL     1       3.591   3.286  17.790  0.00  0.00    +0.000 C 
BRANCH  13  14
ATOM     14  C   UNL     1       3.371   2.123  18.774  0.00  0.00    +0.000 C 
BRANCH  14  15
ATOM     15  N   UNL     1       2.020   1.578  18.586  0.00  0.00    +0.000 NA
ATOM     16  H   UNL     1       1.888   0.814  19.250  0.00  0.00    +0.000 HD
BRANCH  15  17
ATOM     17  C   UNL     1       1.001   2.593  18.885  0.00  0.00    +0.000 C 
BRANCH  17  18
ATOM     18  C   UNL     1       1.099   3.059  20.351  0.00  0.00    +0.000 C 
BRANCH  18  19
ATOM     19  N   UNL     1       1.255   4.514  20.467  0.00  0.00    +0.000 NA
ATOM     20  H   UNL     1       0.328   4.936  20.394  0.00  0.00    +0.000 HD
ATOM     21  H   UNL     1       1.769   4.851  19.653  0.00  0.00    +0.000 HD
ENDBRANCH  18  19
ENDBRANCH  17  18
ENDBRANCH  15  17
ENDBRANCH  14  15
ENDBRANCH  13  14
ENDBRANCH   1  13
TORSDOF 13
ENDMDL
MODEL 9
REMARK VINA RESULT:      -4.7      1.153      1.192
REMARK  Name = 
REMARK  13 active torsions:
REMARK  status: ('A' for Active; 'I' for Inactive)
REMARK    1  A    between atoms: N_1  and  C_2
REMARK    2  A    between atoms: C_2  and  C_3
REMARK    3  A    between atoms: C_3  and  C_4
REMARK    4  A    between atoms: C_4  and  N_5
REMARK    5  A    between atoms: N_5  and  C_6
REMARK    6  A    between atoms: C_6  and  C_7
REMARK    7  A    between atoms: C_7  and  N_8
REMARK    8  A    between atoms: N_8  and  C_9
REMARK    9  A    between atoms: C_9  and  C_10
REMARK   10  A    between atoms: C_10  and  N_11
REMARK   11  A    between atoms: N_11  and  C_12
REMARK   12  A    between atoms: C_12  and  C_13
REMARK   13  A    between atoms: C_13  and  N_14
REMARK                            x       y       z     vdW  Elec       q    Type
REMARK                         _______ _______ _______ _____ _____    ______ ____
ROOT
ATOM      1  N   UNL     1       4.720   4.694  16.729  0.00  0.00    +0.000 NA
ATOM      2  H   UNL     1       5.180   5.026  17.575  0.00  0.00    +0.000 HD
ENDROOT
BRANCH   1   3
ATOM      3  C   UNL     1       3.504   3.956  17.112  0.00  0.00    +0.000 C 
BRANCH   3   4
ATOM      4  C   UNL     1       3.680   2.937  18.263  0.00  0.00    +0.000 C 
BRANCH   4   5
ATOM      5  N   UNL     1       2.402   2.643  18.925  0.00  0.00    +0.000 NA
ATOM      6  H   UNL     1       1.909   1.929  18.390  0.00  0.00    +0.000 HD
BRANCH   5   7
ATOM      7  C   UNL     1       1.558   3.836  18.998  0.00  0.00    +0.000 C 
BRANCH   7   8
ATOM      8  C   UNL     1       1.091   4.041  20.441  0.00  0.00    +0.000 C 
BRANCH   8   9
ATOM      9  C   UNL     1       1.284   2.765  21.257  0.00  0.00    +0.000 C 
BRANCH   9  10
ATOM     10  N   UNL     1       2.504   2.845  22.054  0.00  0.00    +0.000 NA
ATOM     11  H   UNL     1       2.314   2.514  22.999  0.00  0.00    +0.000 HD
ATOM     12  H   UNL     1       2.789   3.820  22.144  0.00  0.00    +0.000 HD
ENDBRANCH   9  10
ENDBRANCH   8   9
ENDBRANCH   7   8
ENDBRANCH   5   7
ENDBRANCH   4   5
ENDBRANCH   3   4
ENDBRANCH   1   3
BRANCH   1  13
ATOM     13  C   UNL     1       5.637   3.869  15.938  0.00  0.00    +0.000 C 
BRANCH  13  14
ATOM     14  C   UNL     1       6.920   4.632  15.562  0.00  0.00    +0.000 C 
BRANCH  14  15
ATOM     15  N   UNL     1       7.290   5.529  16.665  0.00  0.00    +0.000 NA
ATOM     16  H   UNL     1       6.450   6.023  16.971  0.00  0.00    +0.000 HD
BRANCH  15  17
ATOM     17  C   UNL     1       7.790   4.766  17.816  0.00  0.00    +0.000 C 
BRANCH  17  18
ATOM     18  C   UNL     1       7.487   5.498  19.138  0.00  0.00    +0.000 C 
BRANCH  18  19
ATOM     19  N   UNL     1       6.140   5.208  19.643  0.00  0.00    +0.000 NA
ATOM     20  H   UNL     1       5.811   6.030  20.150  0.00  0.00    +0.000 HD
ATOM     21  H   UNL     1       6.207   4.469  20.341  0.00  0.00    +0.000 HD
ENDBRANCH  18  19
ENDBRANCH  17  18
ENDBRANCH  15  17
ENDBRANCH  14  15
ENDBRANCH  13  14
ENDBRANCH   1  13
TORSDOF 13
ENDMDL
