MODEL 1
REMARK VINA RESULT:      -7.7      0.000      0.000
REMARK  Name = 
REMARK  1 active torsions:
REMARK  status: ('A' for Active; 'I' for Inactive)
REMARK    1  A    between atoms: C_5  and  C_6
REMARK                            x       y       z     vdW  Elec       q    Type
REMARK                         _______ _______ _______ _____ _____    ______ ____
ROOT
ATOM      1  C   UNL     1       4.289   4.076  18.088  0.00  0.00    +0.000 A 
ATOM      2  C   UNL     1       4.209   2.861  17.424  0.00  0.00    +0.000 A 
ATOM      3  N   UNL     1       3.044   2.202  17.693  0.00  0.00    +0.000 NA
ATOM      4  C   UNL     1       2.371   2.997  18.491  0.00  0.00    +0.000 A 
ATOM      5  N   UNL     1       3.084   4.149  18.763  0.00  0.00    +0.000 N 
ATOM      6  C   UNL     1       2.512   5.261  19.492  0.00  0.00    +0.000 C 
ATOM      7  C   UNL     1       2.168   4.975  20.957  0.00  0.00    +0.000 C 
ATOM      8  C   UNL     1       1.849   3.522  21.316  0.00  0.00    +0.000 C 
ATOM      9  C   UNL     1       0.741   2.887  20.478  0.00  0.00    +0.000 C 
ATOM     10  C   UNL     1       0.974   2.759  18.969  0.00  0.00    +0.000 C 
ENDROOT
BRANCH   1  15
ATOM     11  F   UNL     1       8.406   7.878  17.911  0.00  0.00    +0.000 F 
ATOM     12  C   UNL     1       7.416   6.979  17.955  0.00  0.00    +0.000 A 
ATOM     13  C   UNL     1       7.459   5.959  18.893  0.00  0.00    +0.000 A 
ATOM     14  C   UNL     1       6.431   5.013  18.930  0.00  0.00    +0.000 A 
ATOM     15  C   UNL     1       5.353   5.083  18.029  0.00  0.00    +0.000 A 
ATOM     16  C   UNL     1       5.314   6.149  17.117  0.00  0.00    +0.000 A 
ATOM     17  C   UNL     1       6.349   7.084  17.067  0.00  0.00    +0.000 A 
ENDBRANCH   1  15
TORSDOF 1
ENDMDL
MODEL 2
REMARK VINA RESULT:      -7.6      0.233      1.190
REMARK  Name = 
REMARK  1 active torsions:
REMARK  status: ('A' for Active; 'I' for Inactive)
REMARK    1  A    between atoms: C_5  and  C_6
REMARK                            x       y       z     vdW  Elec       q    Type
REMARK                         _______ _______ _______ _____ _____    ______ ____
ROOT
ATOM      1  C   UNL     1       4.223   4.086  18.068  0.00  0.00    +0.000 A 
ATOM      2  C   UNL     1       4.111   2.862  17.425  0.00  0.00    +0.000 A 
ATOM      3  N   UNL     1       2.968   2.200  17.773  0.00  0.00    +0.000 NA
ATOM      4  C   UNL     1       2.339   3.002  18.601  0.00  0.00    +0.000 A 
ATOM      5  N   UNL     1       3.061   4.162  18.813  0.00  0.00    +0.000 N 
ATOM      6  C   UNL     1       2.528   5.280  19.562  0.00  0.00    +0.000 C 
ATOM      7  C   UNL     1       2.275   5.011  21.049  0.00  0.00    +0.000 C 
ATOM      8  C   UNL     1       1.987   3.561  21.444  0.00  0.00    +0.000 C 
ATOM      9  C   UNL     1       0.834   2.910  20.684  0.00  0.00    +0.000 C 
ATOM     10  C   UNL     1       0.976   2.764  19.165  0.00  0.00    +0.000 C 
ENDROOT
BRANCH   1  15
ATOM     11  F   UNL     1       8.200   7.998  17.506  0.00  0.00    +0.000 F 
ATOM     12  C   UNL     1       7.258   7.056  17.637  0.00  0.00    +0.000 A 
ATOM     13  C   UNL     1       6.104   7.132  16.874  0.00  0.00    +0.000 A 
ATOM     14  C   UNL     1       5.115   6.156  17.020  0.00  0.00    +0.000 A 
ATOM     15  C   UNL     1       5.277   5.097  17.932  0.00  0.00    +0.000 A 
ATOM     16  C   UNL     1       6.472   5.021  18.662  0.00  0.00    +0.000 A 
ATOM     17  C   UNL     1       7.453   6.006  18.530  0.00  0.00    +0.000 A 
ENDBRANCH   1  15
TORSDOF 1
ENDMDL
MODEL 3
REMARK VINA RESULT:      -7.4      1.914      2.887
REMARK  Name = 
REMARK  1 active torsions:
REMARK  status: ('A' for Active; 'I' for Inactive)
REMARK    1  A    between atoms: C_5  and  C_6
REMARK                            x       y       z     vdW  Elec       q    Type
REMARK                         _______ _______ _______ _____ _____    ______ ____
ROOT
ATOM      1  C   UNL     1       3.890   5.327  18.310  0.00  0.00    +0.000 A 
ATOM      2  C   UNL     1       3.246   6.461  18.781  0.00  0.00    +0.000 A 
ATOM      3  N   UNL     1       2.421   6.186  19.834  0.00  0.00    +0.000 NA
ATOM      4  C   UNL     1       2.559   4.899  20.057  0.00  0.00    +0.000 A 
ATOM      5  N   UNL     1       3.441   4.330  19.157  0.00  0.00    +0.000 N 
ATOM      6  C   UNL     1       3.890   2.960  19.274  0.00  0.00    +0.000 C 
ATOM      7  C   UNL     1       2.804   1.897  19.079  0.00  0.00    +0.000 C 
ATOM      8  C   UNL     1       1.370   2.310  19.418  0.00  0.00    +0.000 C 
ATOM      9  C   UNL     1       1.185   2.867  20.828  0.00  0.00    +0.000 C 
ATOM     10  C   UNL     1       1.940   4.149  21.192  0.00  0.00    +0.000 C 
ENDROOT
BRANCH   1  15
ATOM     11  F   UNL     1       7.707   4.944  14.220  0.00  0.00    +0.000 F 
ATOM     12  C   UNL     1       6.788   5.038  15.189  0.00  0.00    +0.000 A 
ATOM     13  C   UNL     1       7.018   5.874  16.270  0.00  0.00    +0.000 A 
ATOM     14  C   UNL     1       6.065   5.963  17.288  0.00  0.00    +0.000 A 
ATOM     15  C   UNL     1       4.874   5.216  17.228  0.00  0.00    +0.000 A 
ATOM     16  C   UNL     1       4.648   4.410  16.102  0.00  0.00    +0.000 A 
ATOM     17  C   UNL     1       5.608   4.307  15.094  0.00  0.00    +0.000 A 
ENDBRANCH   1  15
TORSDOF 1
ENDMDL
MODEL 4
REMARK VINA RESULT:      -7.4      1.911      2.965
REMARK  Name = 
REMARK  1 active torsions:
REMARK  status: ('A' for Active; 'I' for Inactive)
REMARK    1  A    between atoms: C_5  and  C_6
REMARK                            x       y       z     vdW  Elec       q    Type
REMARK                         _______ _______ _______ _____ _____    ______ ____
ROOT
ATOM      1  C   UNL     1       3.876   5.352  18.305  0.00  0.00    +0.000 A 
ATOM      2  C   UNL     1       3.212   6.479  18.766  0.00  0.00    +0.000 A 
ATOM      3  N   UNL     1       2.365   6.192  19.798  0.00  0.00    +0.000 NA
ATOM      4  C   UNL     1       2.508   4.906  20.019  0.00  0.00    +0.000 A 
ATOM      5  N   UNL     1       3.415   4.348  19.137  0.00  0.00    +0.000 N 
ATOM      6  C   UNL     1       3.872   2.980  19.258  0.00  0.00    +0.000 C 
ATOM      7  C   UNL     1       2.799   1.910  19.033  0.00  0.00    +0.000 C 
ATOM      8  C   UNL     1       1.355   2.311  19.341  0.00  0.00    +0.000 C 
ATOM      9  C   UNL     1       1.132   2.860  20.748  0.00  0.00    +0.000 C 
ATOM     10  C   UNL     1       1.869   4.146  21.136  0.00  0.00    +0.000 C 
ENDROOT
BRANCH   1  15
ATOM     11  F   UNL     1       7.682   4.943  14.207  0.00  0.00    +0.000 F 
ATOM     12  C   UNL     1       6.781   5.037  15.193  0.00  0.00    +0.000 A 
ATOM     13  C   UNL     1       5.592   4.330  15.102  0.00  0.00    +0.000 A 
ATOM     14  C   UNL     1       4.646   4.438  16.126  0.00  0.00    +0.000 A 
ATOM     15  C   UNL     1       4.886   5.254  17.246  0.00  0.00    +0.000 A 
ATOM     16  C   UNL     1       6.115   5.926  17.332  0.00  0.00    +0.000 A 
ATOM     17  C   UNL     1       7.052   5.833  16.302  0.00  0.00    +0.000 A 
ENDBRANCH   1  15
TORSDOF 1
ENDMDL
MODEL 5
REMARK VINA RESULT:      -7.2      1.961      2.515
REMARK  Name = 
REMARK  1 active torsions:
REMARK  status: ('A' for Active; 'I' for Inactive)
REMARK    1  A    between atoms: C_5  and  C_6
REMARK                            x       y       z     vdW  Elec       q    Type
REMARK                         _______ _______ _______ _____ _____    ______ ____
ROOT
ATOM      1  C   UNL     1       4.008   3.248  17.520  0.00  0.00    +0.000 A 
ATOM      2  C   UNL     1       3.804   1.919  17.864  0.00  0.00    +0.000 A 
ATOM      3  N   UNL     1       2.718   1.758  18.675  0.00  0.00    +0.000 NA
ATOM      4  C   UNL     1       2.212   2.960  18.823  0.00  0.00    +0.000 A 
ATOM      5  N   UNL     1       2.960   3.902  18.141  0.00  0.00    +0.000 N 
ATOM      6  C   UNL     1       2.539   5.280  18.011  0.00  0.00    +0.000 C 
ATOM      7  C   UNL     1       2.492   6.076  19.319  0.00  0.00    +0.000 C 
ATOM      8  C   UNL     1       2.256   5.275  20.602  0.00  0.00    +0.000 C 
ATOM      9  C   UNL     1       1.007   4.397  20.584  0.00  0.00    +0.000 C 
ATOM     10  C   UNL     1       0.939   3.279  19.538  0.00  0.00    +0.000 C 
ENDROOT
BRANCH   1  15
ATOM     11  F   UNL     1       7.890   5.415  14.104  0.00  0.00    +0.000 F 
ATOM     12  C   UNL     1       6.971   4.892  14.925  0.00  0.00    +0.000 A 
ATOM     13  C   UNL     1       5.896   4.198  14.393  0.00  0.00    +0.000 A 
ATOM     14  C   UNL     1       4.930   3.662  15.250  0.00  0.00    +0.000 A 
ATOM     15  C   UNL     1       5.036   3.818  16.644  0.00  0.00    +0.000 A 
ATOM     16  C   UNL     1       6.156   4.489  17.157  0.00  0.00    +0.000 A 
ATOM     17  C   UNL     1       7.112   5.040  16.302  0.00  0.00    +0.000 A 
ENDBRANCH   1  15
TORSDOF 1
ENDMDL
MODEL 6
REMARK VINA RESULT:      -7.2      1.954      2.317
REMARK  Name = 
REMARK  1 active torsions:
REMARK  status: ('A' for Active; 'I' for Inactive)
REMARK    1  A    between atoms: C_5  and  C_6
REMARK                            x       y       z     vdW  Elec       q    Type
REMARK                         _______ _______ _______ _____ _____    ______ ____
ROOT
ATOM      1  C   UNL     1       3.987   3.229  17.519  0.00  0.00    +0.000 A 
ATOM      2  C   UNL     1       3.795   1.904  17.882  0.00  0.00    +0.000 A 
ATOM      3  N   UNL     1       2.719   1.746  18.708  0.00  0.00    +0.000 NA
ATOM      4  C   UNL     1       2.208   2.947  18.848  0.00  0.00    +0.000 A 
ATOM      5  N   UNL     1       2.942   3.884  18.145  0.00  0.00    +0.000 N 
ATOM      6  C   UNL     1       2.511   5.259  18.003  0.00  0.00    +0.000 C 
ATOM      7  C   UNL     1       2.476   6.071  19.301  0.00  0.00    +0.000 C 
ATOM      8  C   UNL     1       2.260   5.285  20.596  0.00  0.00    +0.000 C 
ATOM      9  C   UNL     1       1.016   4.399  20.605  0.00  0.00    +0.000 C 
ATOM     10  C   UNL     1       0.942   3.268  19.574  0.00  0.00    +0.000 C 
ENDROOT
BRANCH   1  15
ATOM     11  F   UNL     1       7.915   5.398  14.157  0.00  0.00    +0.000 F 
ATOM     12  C   UNL     1       6.969   4.886  14.955  0.00  0.00    +0.000 A 
ATOM     13  C   UNL     1       7.112   4.979  16.331  0.00  0.00    +0.000 A 
ATOM     14  C   UNL     1       6.130   4.435  17.163  0.00  0.00    +0.000 A 
ATOM     15  C   UNL     1       5.001   3.794  16.623  0.00  0.00    +0.000 A 
ATOM     16  C   UNL     1       4.861   3.750  15.228  0.00  0.00    +0.000 A 
ATOM     17  C   UNL     1       5.849   4.278  14.395  0.00  0.00    +0.000 A 
ENDBRANCH   1  15
TORSDOF 1
ENDMDL
MODEL 7
REMARK VINA RESULT:      -7.0      3.216      4.557
REMARK  Name = 
REMARK  1 active torsions:
REMARK  status: ('A' for Active; 'I' for Inactive)
REMARK    1  A    between atoms: C_5  and  C_6
REMARK                            x       y       z     vdW  Elec       q    Type
REMARK                         _______ _______ _______ _____ _____    ______ ____
ROOT
ATOM      1  C   UNL     1       3.278   6.174  18.449  0.00  0.00    +0.000 A 
ATOM      2  C   UNL     1       4.642   6.095  18.212  0.00  0.00    +0.000 A 
ATOM      3  N   UNL     1       5.040   4.824  17.910  0.00  0.00    +0.000 NA
ATOM      4  C   UNL     1       3.943   4.104  17.920  0.00  0.00    +0.000 A 
ATOM      5  N   UNL     1       2.843   4.877  18.243  0.00  0.00    +0.000 N 
ATOM      6  C   UNL     1       1.491   4.368  18.176  0.00  0.00    +0.000 C 
ATOM      7  C   UNL     1       1.162   3.254  19.175  0.00  0.00    +0.000 C 
ATOM      8  C   UNL     1       2.331   2.386  19.645  0.00  0.00    +0.000 C 
ATOM      9  C   UNL     1       3.136   1.737  18.521  0.00  0.00    +0.000 C 
ATOM     10  C   UNL     1       3.852   2.663  17.533  0.00  0.00    +0.000 C 
ENDROOT
BRANCH   1  15
ATOM     11  F   UNL     1       0.186  10.716  19.567  0.00  0.00    +0.000 F 
ATOM     12  C   UNL     1       0.931   9.635  19.308  0.00  0.00    +0.000 A 
ATOM     13  C   UNL     1       1.438   9.443  18.032  0.00  0.00    +0.000 A 
ATOM     14  C   UNL     1       2.206   8.307  17.759  0.00  0.00    +0.000 A 
ATOM     15  C   UNL     1       2.471   7.358  18.762  0.00  0.00    +0.000 A 
ATOM     16  C   UNL     1       1.981   7.598  20.055  0.00  0.00    +0.000 A 
ATOM     17  C   UNL     1       1.199   8.722  20.325  0.00  0.00    +0.000 A 
ENDBRANCH   1  15
TORSDOF 1
ENDMDL
MODEL 8
REMARK VINA RESULT:      -7.0      3.193      4.416
REMARK  Name = 
REMARK  1 active torsions:
REMARK  status: ('A' for Active; 'I' for Inactive)
REMARK    1  A    between atoms: C_5  and  C_6
REMARK                            x       y       z     vdW  Elec       q    Type
REMARK                         _______ _______ _______ _____ _____    ______ ____
ROOT
ATOM      1  C   UNL     1       3.293   6.153  18.412  0.00  0.00    +0.000 A 
ATOM      2  C   UNL     1       4.651   6.074  18.142  0.00  0.00    +0.000 A 
ATOM      3  N   UNL     1       5.043   4.801  17.839  0.00  0.00    +0.000 NA
ATOM      4  C   UNL     1       3.947   4.079  17.883  0.00  0.00    +0.000 A 
ATOM      5  N   UNL     1       2.855   4.854  18.227  0.00  0.00    +0.000 N 
ATOM      6  C   UNL     1       1.502   4.342  18.198  0.00  0.00    +0.000 C 
ATOM      7  C   UNL     1       1.200   3.236  19.213  0.00  0.00    +0.000 C 
ATOM      8  C   UNL     1       2.382   2.373  19.660  0.00  0.00    +0.000 C 
ATOM      9  C   UNL     1       3.159   1.716  18.521  0.00  0.00    +0.000 C 
ATOM     10  C   UNL     1       3.849   2.636  17.509  0.00  0.00    +0.000 C 
ENDROOT
BRANCH   1  15
ATOM     11  F   UNL     1       0.242  10.668  19.733  0.00  0.00    +0.000 F 
ATOM     12  C   UNL     1       0.963   9.587  19.410  0.00  0.00    +0.000 A 
ATOM     13  C   UNL     1       1.249   8.641  20.381  0.00  0.00    +0.000 A 
ATOM     14  C   UNL     1       2.012   7.519  20.046  0.00  0.00    +0.000 A 
ATOM     15  C   UNL     1       2.493   7.338  18.737  0.00  0.00    +0.000 A 
ATOM     16  C   UNL     1       2.154   8.290  17.764  0.00  0.00    +0.000 A 
ATOM     17  C   UNL     1       1.407   9.420  18.101  0.00  0.00    +0.000 A 
ENDBRANCH   1  15
TORSDOF 1
ENDMDL
MODEL 9
REMARK VINA RESULT:      -6.9      2.336      3.200
REMARK  Name = 
REMARK  1 active torsions:
REMARK  status: ('A' for Active; 'I' for Inactive)
REMARK    1  A    between atoms: C_5  and  C_6
REMARK                            x       y       z     vdW  Elec       q    Type
REMARK                         _______ _______ _______ _____ _____    ______ ____
ROOT
ATOM      1  C   UNL     1       4.718   4.619  17.992  0.00  0.00    +0.000 A 
ATOM      2  C   UNL     1       4.759   5.568  19.004  0.00  0.00    +0.000 A 
ATOM      3  N   UNL     1       4.011   5.201  20.085  0.00  0.00    +0.000 NA
ATOM      4  C   UNL     1       3.523   4.019  19.786  0.00  0.00    +0.000 A 
ATOM      5  N   UNL     1       3.924   3.620  18.525  0.00  0.00    +0.000 N 
ATOM      6  C   UNL     1       3.655   2.295  18.008  0.00  0.00    +0.000 C 
ATOM      7  C   UNL     1       2.175   1.969  17.782  0.00  0.00    +0.000 C 
ATOM      8  C   UNL     1       1.167   2.717  18.657  0.00  0.00    +0.000 C 
ATOM      9  C   UNL     1       1.413   2.597  20.159  0.00  0.00    +0.000 C 
ATOM     10  C   UNL     1       2.730   3.153  20.711  0.00  0.00    +0.000 C 
ENDROOT
BRANCH   1  15
ATOM     11  F   UNL     1       7.448   4.658  13.095  0.00  0.00    +0.000 F 
ATOM     12  C   UNL     1       6.790   4.656  14.260  0.00  0.00    +0.000 A 
ATOM     13  C   UNL     1       7.473   4.942  15.432  0.00  0.00    +0.000 A 
ATOM     14  C   UNL     1       6.787   4.929  16.650  0.00  0.00    +0.000 A 
ATOM     15  C   UNL     1       5.414   4.629  16.701  0.00  0.00    +0.000 A 
ATOM     16  C   UNL     1       4.738   4.384  15.496  0.00  0.00    +0.000 A 
ATOM     17  C   UNL     1       5.426   4.380  14.281  0.00  0.00    +0.000 A 
ENDBRANCH   1  15
TORSDOF 1
ENDMDL
