MODEL 1
REMARK VINA RESULT:      -8.0      0.000      0.000
REMARK  Name = 
REMARK  7 active torsions:
REMARK  status: ('A' for Active; 'I' for Inactive)
REMARK    1  A    between atoms: N_2  and  C_4
REMARK    2  A    between atoms: C_7  and  O_8
REMARK    3  A    between atoms: O_8  and  C_9
REMARK    4  A    between atoms: C_9  and  C_10
REMARK    5  A    between atoms: C_13  and  C_14
REMARK    6  A    between atoms: C_17  and  O_18
REMARK    7  A    between atoms: C_20  and  O_21
REMARK                            x       y       z     vdW  Elec       q    Type
REMARK                         _______ _______ _______ _____ _____    ______ ____
ROOT
ATOM      1  C   UNL     1       7.061   6.803  18.050  0.00  0.00    +0.000 A 
ATOM      2  N   UNL     1       7.390   5.934  18.983  0.00  0.00    +0.000 NA
ATOM      3  N   UNL     1       6.403   4.988  19.182  0.00  0.00    +0.000 NA
ATOM      4  C   UNL     1       5.366   5.145  18.375  0.00  0.00    +0.000 A 
ATOM      5  S   UNL     1       5.493   6.559  17.397  0.00  0.00    +0.000 S 
ENDROOT
BRANCH   4   6
ATOM      6  C   UNL     1       4.186   4.264  18.356  0.00  0.00    +0.000 A 
ATOM      7  C   UNL     1       3.005   4.739  17.748  0.00  0.00    +0.000 A 
ATOM      8  C   UNL     1       1.831   3.976  17.734  0.00  0.00    +0.000 A 
ATOM      9  C   UNL     1       1.826   2.725  18.335  0.00  0.00    +0.000 A 
ATOM     10  C   UNL     1       2.971   2.225  18.942  0.00  0.00    +0.000 A 
ATOM     11  C   UNL     1       4.140   2.993  18.958  0.00  0.00    +0.000 A 
BRANCH   9  12
ATOM     12  O   UNL     1       0.707   1.949  18.365  0.00  0.00    +0.000 OA
ATOM     13  H   UNL     1       0.382   1.902  19.280  0.00  0.00    +0.000 HD
ENDBRANCH   9  12
BRANCH  11  14
ATOM     14  O   UNL     1       5.236   2.490  19.606  0.00  0.00    +0.000 OA
ATOM     15  H   UNL     1       5.052   1.580  19.891  0.00  0.00    +0.000 HD
ENDBRANCH  11  14
ENDBRANCH   4   6
BRANCH   1  16
ATOM     16  C   UNL     1       7.900   7.957  17.604  0.00  0.00    +0.000 C 
BRANCH  16  17
ATOM     17  O   UNL     1       8.582   8.469  18.755  0.00  0.00    +0.000 OA
BRANCH  17  21
ATOM     18  C   UNL     1       9.551  12.518  18.858  0.00  0.00    +0.000 A 
ATOM     19  C   UNL     1       9.976  11.645  19.865  0.00  0.00    +0.000 A 
ATOM     20  C   UNL     1       9.627  10.292  19.789  0.00  0.00    +0.000 A 
ATOM     21  C   UNL     1       8.844   9.813  18.732  0.00  0.00    +0.000 A 
ATOM     22  C   UNL     1       8.439  10.690  17.724  0.00  0.00    +0.000 A 
ATOM     23  C   UNL     1       8.786  12.045  17.785  0.00  0.00    +0.000 A 
BRANCH  18  25
ATOM     24  O   UNL     1       9.162  14.699  19.549  0.00  0.00    +0.000 OA
ATOM     25  N   UNL     1       9.912  13.940  18.921  0.00  0.00    +0.000 N 
ATOM     26  O   UNL     1      10.948  14.295  18.342  0.00  0.00    +0.000 OA
ENDBRANCH  18  25
ENDBRANCH  17  21
ENDBRANCH  16  17
ENDBRANCH   1  16
TORSDOF 7
ENDMDL
MODEL 2
REMARK VINA RESULT:      -7.7      4.885      7.361
REMARK  Name = 
REMARK  7 active torsions:
REMARK  status: ('A' for Active; 'I' for Inactive)
REMARK    1  A    between atoms: N_2  and  C_4
REMARK    2  A    between atoms: C_7  and  O_8
REMARK    3  A    between atoms: O_8  and  C_9
REMARK    4  A    between atoms: C_9  and  C_10
REMARK    5  A    between atoms: C_13  and  C_14
REMARK    6  A    between atoms: C_17  and  O_18
REMARK    7  A    between atoms: C_20  and  O_21
REMARK                            x       y       z     vdW  Elec       q    Type
REMARK                         _______ _______ _______ _____ _____    ______ ____
ROOT
ATOM      1  C   UNL     1       6.137   5.741  17.315  0.00  0.00    +0.000 A 
ATOM      2  N   UNL     1       6.888   5.037  18.137  0.00  0.00    +0.000 NA
ATOM      3  N   UNL     1       6.138   4.382  19.094  0.00  0.00    +0.000 NA
ATOM      4  C   UNL     1       4.837   4.580  18.955  0.00  0.00    +0.000 A 
ATOM      5  S   UNL     1       4.464   5.699  17.698  0.00  0.00    +0.000 S 
ENDROOT
BRANCH   4   6
ATOM      6  C   UNL     1       3.807   3.980  19.823  0.00  0.00    +0.000 A 
ATOM      7  C   UNL     1       2.664   4.747  20.132  0.00  0.00    +0.000 A 
ATOM      8  C   UNL     1       1.668   4.261  20.988  0.00  0.00    +0.000 A 
ATOM      9  C   UNL     1       1.809   2.999  21.547  0.00  0.00    +0.000 A 
ATOM     10  C   UNL     1       2.921   2.216  21.263  0.00  0.00    +0.000 A 
ATOM     11  C   UNL     1       3.915   2.708  20.412  0.00  0.00    +0.000 A 
BRANCH   9  12
ATOM     12  O   UNL     1       0.878   2.485  22.400  0.00  0.00    +0.000 OA
ATOM     13  H   UNL     1       0.774   1.536  22.217  0.00  0.00    +0.000 HD
ENDBRANCH   9  12
BRANCH  11  14
ATOM     14  O   UNL     1       5.021   1.930  20.192  0.00  0.00    +0.000 OA
ATOM     15  H   UNL     1       5.802   2.367  20.570  0.00  0.00    +0.000 HD
ENDBRANCH  11  14
ENDBRANCH   4   6
BRANCH   1  16
ATOM     16  C   UNL     1       6.636   6.574  16.180  0.00  0.00    +0.000 C 
BRANCH  16  17
ATOM     17  O   UNL     1       7.607   5.799  15.466  0.00  0.00    +0.000 OA
BRANCH  17  21
ATOM     18  C   UNL     1       5.881   3.411  12.523  0.00  0.00    +0.000 A 
ATOM     19  C   UNL     1       5.317   3.509  13.798  0.00  0.00    +0.000 A 
ATOM     20  C   UNL     1       5.931   4.324  14.757  0.00  0.00    +0.000 A 
ATOM     21  C   UNL     1       7.108   5.020  14.456  0.00  0.00    +0.000 A 
ATOM     22  C   UNL     1       7.653   4.927  13.174  0.00  0.00    +0.000 A 
ATOM     23  C   UNL     1       7.046   4.120  12.205  0.00  0.00    +0.000 A 
BRANCH  18  25
ATOM     24  O   UNL     1       4.157   2.931  11.044  0.00  0.00    +0.000 OA
ATOM     25  N   UNL     1       5.247   2.564  11.505  0.00  0.00    +0.000 N 
ATOM     26  O   UNL     1       5.842   1.531  11.166  0.00  0.00    +0.000 OA
ENDBRANCH  18  25
ENDBRANCH  17  21
ENDBRANCH  16  17
ENDBRANCH   1  16
TORSDOF 7
ENDMDL
MODEL 3
REMARK VINA RESULT:      -7.6      0.721      1.182
REMARK  Name = 
REMARK  7 active torsions:
REMARK  status: ('A' for Active; 'I' for Inactive)
REMARK    1  A    between atoms: N_2  and  C_4
REMARK    2  A    between atoms: C_7  and  O_8
REMARK    3  A    between atoms: O_8  and  C_9
REMARK    4  A    between atoms: C_9  and  C_10
REMARK    5  A    between atoms: C_13  and  C_14
REMARK    6  A    between atoms: C_17  and  O_18
REMARK    7  A    between atoms: C_20  and  O_21
REMARK                            x       y       z     vdW  Elec       q    Type
REMARK                         _______ _______ _______ _____ _____    ______ ____
ROOT
ATOM      1  C   UNL     1       7.183   6.747  17.924  0.00  0.00    +0.000 A 
ATOM      2  N   UNL     1       7.453   5.914  18.907  0.00  0.00    +0.000 NA
ATOM      3  N   UNL     1       6.415   5.034  19.142  0.00  0.00    +0.000 NA
ATOM      4  C   UNL     1       5.398   5.200  18.312  0.00  0.00    +0.000 A 
ATOM      5  S   UNL     1       5.611   6.550  17.262  0.00  0.00    +0.000 S 
ENDROOT
BRANCH   4   6
ATOM      6  C   UNL     1       4.173   4.382  18.323  0.00  0.00    +0.000 A 
ATOM      7  C   UNL     1       3.000   4.926  17.759  0.00  0.00    +0.000 A 
ATOM      8  C   UNL     1       1.788   4.226  17.776  0.00  0.00    +0.000 A 
ATOM      9  C   UNL     1       1.736   2.970  18.363  0.00  0.00    +0.000 A 
ATOM     10  C   UNL     1       2.872   2.403  18.927  0.00  0.00    +0.000 A 
ATOM     11  C   UNL     1       4.079   3.108  18.913  0.00  0.00    +0.000 A 
BRANCH   9  12
ATOM     12  O   UNL     1       0.579   2.253  18.422  0.00  0.00    +0.000 OA
ATOM     13  H   UNL     1       0.786   1.311  18.298  0.00  0.00    +0.000 HD
ENDBRANCH   9  12
BRANCH  11  14
ATOM     14  O   UNL     1       5.168   2.541  19.520  0.00  0.00    +0.000 OA
ATOM     15  H   UNL     1       5.018   1.587  19.622  0.00  0.00    +0.000 HD
ENDBRANCH  11  14
ENDBRANCH   4   6
BRANCH   1  16
ATOM     16  C   UNL     1       8.087   7.829  17.430  0.00  0.00    +0.000 C 
BRANCH  16  17
ATOM     17  O   UNL     1       7.492   9.085  17.776  0.00  0.00    +0.000 OA
BRANCH  17  21
ATOM     18  C   UNL     1      10.002  12.171  19.007  0.00  0.00    +0.000 A 
ATOM     19  C   UNL     1       9.068  12.362  17.984  0.00  0.00    +0.000 A 
ATOM     20  C   UNL     1       8.245  11.296  17.603  0.00  0.00    +0.000 A 
ATOM     21  C   UNL     1       8.363  10.045  18.219  0.00  0.00    +0.000 A 
ATOM     22  C   UNL     1       9.288   9.871  19.250  0.00  0.00    +0.000 A 
ATOM     23  C   UNL     1      10.113  10.930  19.645  0.00  0.00    +0.000 A 
BRANCH  18  25
ATOM     24  O   UNL     1      10.655  13.804  20.522  0.00  0.00    +0.000 OA
ATOM     25  N   UNL     1      10.871  13.280  19.421  0.00  0.00    +0.000 N 
ATOM     26  O   UNL     1      11.773  13.625  18.643  0.00  0.00    +0.000 OA
ENDBRANCH  18  25
ENDBRANCH  17  21
ENDBRANCH  16  17
ENDBRANCH   1  16
TORSDOF 7
ENDMDL
MODEL 4
REMARK VINA RESULT:      -7.4      1.007      1.193
REMARK  Name = 
REMARK  7 active torsions:
REMARK  status: ('A' for Active; 'I' for Inactive)
REMARK    1  A    between atoms: N_2  and  C_4
REMARK    2  A    between atoms: C_7  and  O_8
REMARK    3  A    between atoms: O_8  and  C_9
REMARK    4  A    between atoms: C_9  and  C_10
REMARK    5  A    between atoms: C_13  and  C_14
REMARK    6  A    between atoms: C_17  and  O_18
REMARK    7  A    between atoms: C_20  and  O_21
REMARK                            x       y       z     vdW  Elec       q    Type
REMARK                         _______ _______ _______ _____ _____    ______ ____
ROOT
ATOM      1  C   UNL     1       6.960   6.771  18.045  0.00  0.00    +0.000 A 
ATOM      2  N   UNL     1       7.288   5.925  19.000  0.00  0.00    +0.000 NA
ATOM      3  N   UNL     1       6.281   5.014  19.254  0.00  0.00    +0.000 NA
ATOM      4  C   UNL     1       5.230   5.172  18.466  0.00  0.00    +0.000 A 
ATOM      5  S   UNL     1       5.370   6.548  17.437  0.00  0.00    +0.000 S 
ENDROOT
BRANCH   4   6
ATOM      6  C   UNL     1       4.026   4.323  18.505  0.00  0.00    +0.000 A 
ATOM      7  C   UNL     1       3.845   3.371  17.481  0.00  0.00    +0.000 A 
ATOM      8  C   UNL     1       2.703   2.563  17.427  0.00  0.00    +0.000 A 
ATOM      9  C   UNL     1       1.724   2.703  18.401  0.00  0.00    +0.000 A 
ATOM     10  C   UNL     1       1.870   3.630  19.425  0.00  0.00    +0.000 A 
ATOM     11  C   UNL     1       3.010   4.438  19.472  0.00  0.00    +0.000 A 
BRANCH   9  12
ATOM     12  O   UNL     1       0.586   1.955  18.386  0.00  0.00    +0.000 OA
ATOM     13  H   UNL     1       0.800   1.051  18.673  0.00  0.00    +0.000 HD
ENDBRANCH   9  12
BRANCH  11  14
ATOM     14  O   UNL     1       3.100   5.375  20.467  0.00  0.00    +0.000 OA
ATOM     15  H   UNL     1       2.230   5.786  20.600  0.00  0.00    +0.000 HD
ENDBRANCH  11  14
ENDBRANCH   4   6
BRANCH   1  16
ATOM     16  C   UNL     1       7.818   7.885  17.540  0.00  0.00    +0.000 C 
BRANCH  16  17
ATOM     17  O   UNL     1       8.585   8.379  18.644  0.00  0.00    +0.000 OA
BRANCH  17  21
ATOM     18  C   UNL     1       9.383  12.460  18.861  0.00  0.00    +0.000 A 
ATOM     19  C   UNL     1       9.810  11.584  19.864  0.00  0.00    +0.000 A 
ATOM     20  C   UNL     1       9.520  10.220  19.749  0.00  0.00    +0.000 A 
ATOM     21  C   UNL     1       8.792   9.732  18.657  0.00  0.00    +0.000 A 
ATOM     22  C   UNL     1       8.385  10.614  17.654  0.00  0.00    +0.000 A 
ATOM     23  C   UNL     1       8.674  11.979  17.753  0.00  0.00    +0.000 A 
BRANCH  18  25
ATOM     24  O   UNL     1       9.810  14.534  17.912  0.00  0.00    +0.000 OA
ATOM     25  N   UNL     1       9.683  13.894  18.964  0.00  0.00    +0.000 N 
ATOM     26  O   UNL     1       9.788  14.378  20.100  0.00  0.00    +0.000 OA
ENDBRANCH  18  25
ENDBRANCH  17  21
ENDBRANCH  16  17
ENDBRANCH   1  16
TORSDOF 7
ENDMDL
MODEL 5
REMARK VINA RESULT:      -7.2      1.043      1.163
REMARK  Name = 
REMARK  7 active torsions:
REMARK  status: ('A' for Active; 'I' for Inactive)
REMARK    1  A    between atoms: N_2  and  C_4
REMARK    2  A    between atoms: C_7  and  O_8
REMARK    3  A    between atoms: O_8  and  C_9
REMARK    4  A    between atoms: C_9  and  C_10
REMARK    5  A    between atoms: C_13  and  C_14
REMARK    6  A    between atoms: C_17  and  O_18
REMARK    7  A    between atoms: C_20  and  O_21
REMARK                            x       y       z     vdW  Elec       q    Type
REMARK                         _______ _______ _______ _____ _____    ______ ____
ROOT
ATOM      1  C   UNL     1       7.327   7.002  18.148  0.00  0.00    +0.000 A 
ATOM      2  N   UNL     1       7.738   6.121  19.036  0.00  0.00    +0.000 NA
ATOM      3  N   UNL     1       6.808   5.120  19.241  0.00  0.00    +0.000 NA
ATOM      4  C   UNL     1       5.733   5.249  18.482  0.00  0.00    +0.000 A 
ATOM      5  S   UNL     1       5.747   6.699  17.550  0.00  0.00    +0.000 S 
ENDROOT
BRANCH   4   6
ATOM      6  C   UNL     1       4.598   4.309  18.479  0.00  0.00    +0.000 A 
ATOM      7  C   UNL     1       3.660   4.389  19.530  0.00  0.00    +0.000 A 
ATOM      8  C   UNL     1       2.584   3.498  19.618  0.00  0.00    +0.000 A 
ATOM      9  C   UNL     1       2.437   2.511  18.654  0.00  0.00    +0.000 A 
ATOM     10  C   UNL     1       3.341   2.403  17.605  0.00  0.00    +0.000 A 
ATOM     11  C   UNL     1       4.418   3.292  17.524  0.00  0.00    +0.000 A 
BRANCH   9  12
ATOM     12  O   UNL     1       1.418   1.608  18.703  0.00  0.00    +0.000 OA
ATOM     13  H   UNL     1       1.340   1.174  17.836  0.00  0.00    +0.000 HD
ENDBRANCH   9  12
BRANCH  11  14
ATOM     14  O   UNL     1       5.317   3.128  16.505  0.00  0.00    +0.000 OA
ATOM     15  H   UNL     1       4.838   2.948  15.679  0.00  0.00    +0.000 HD
ENDBRANCH  11  14
ENDBRANCH   4   6
BRANCH   1  16
ATOM     16  C   UNL     1       8.087   8.211  17.709  0.00  0.00    +0.000 C 
BRANCH  16  17
ATOM     17  O   UNL     1       8.789   8.721  18.848  0.00  0.00    +0.000 OA
BRANCH  17  21
ATOM     18  C   UNL     1       9.571  12.806  19.058  0.00  0.00    +0.000 A 
ATOM     19  C   UNL     1       9.859  11.957  20.131  0.00  0.00    +0.000 A 
ATOM     20  C   UNL     1       9.580  10.591  20.016  0.00  0.00    +0.000 A 
ATOM     21  C   UNL     1       8.999  10.074  18.852  0.00  0.00    +0.000 A 
ATOM     22  C   UNL     1       8.731  10.928  17.780  0.00  0.00    +0.000 A 
ATOM     23  C   UNL     1       9.011  12.296  17.880  0.00  0.00    +0.000 A 
BRANCH  18  25
ATOM     24  O   UNL     1       9.746  14.929  18.137  0.00  0.00    +0.000 OA
ATOM     25  N   UNL     1       9.862  14.242  19.160  0.00  0.00    +0.000 N 
ATOM     26  O   UNL     1      10.203  14.680  20.268  0.00  0.00    +0.000 OA
ENDBRANCH  18  25
ENDBRANCH  17  21
ENDBRANCH  16  17
ENDBRANCH   1  16
TORSDOF 7
ENDMDL
MODEL 6
REMARK VINA RESULT:      -7.2      1.246      1.680
REMARK  Name = 
REMARK  7 active torsions:
REMARK  status: ('A' for Active; 'I' for Inactive)
REMARK    1  A    between atoms: N_2  and  C_4
REMARK    2  A    between atoms: C_7  and  O_8
REMARK    3  A    between atoms: O_8  and  C_9
REMARK    4  A    between atoms: C_9  and  C_10
REMARK    5  A    between atoms: C_13  and  C_14
REMARK    6  A    between atoms: C_17  and  O_18
REMARK    7  A    between atoms: C_20  and  O_21
REMARK                            x       y       z     vdW  Elec       q    Type
REMARK                         _______ _______ _______ _____ _____    ______ ____
ROOT
ATOM      1  C   UNL     1       7.120   6.484  18.256  0.00  0.00    +0.000 A 
ATOM      2  N   UNL     1       7.314   5.662  19.266  0.00  0.00    +0.000 NA
ATOM      3  N   UNL     1       6.209   4.872  19.512  0.00  0.00    +0.000 NA
ATOM      4  C   UNL     1       5.217   5.091  18.664  0.00  0.00    +0.000 A 
ATOM      5  S   UNL     1       5.545   6.389  17.578  0.00  0.00    +0.000 S 
ENDROOT
BRANCH   4   6
ATOM      6  C   UNL     1       3.932   4.370  18.681  0.00  0.00    +0.000 A 
ATOM      7  C   UNL     1       3.760   3.287  17.794  0.00  0.00    +0.000 A 
ATOM      8  C   UNL     1       2.551   2.586  17.722  0.00  0.00    +0.000 A 
ATOM      9  C   UNL     1       1.495   2.966  18.539  0.00  0.00    +0.000 A 
ATOM     10  C   UNL     1       1.629   4.027  19.425  0.00  0.00    +0.000 A 
ATOM     11  C   UNL     1       2.838   4.728  19.490  0.00  0.00    +0.000 A 
BRANCH   9  12
ATOM     12  O   UNL     1       0.291   2.329  18.496  0.00  0.00    +0.000 OA
ATOM     13  H   UNL     1       0.436   1.398  18.257  0.00  0.00    +0.000 HD
ENDBRANCH   9  12
BRANCH  11  14
ATOM     14  O   UNL     1       2.920   5.798  20.339  0.00  0.00    +0.000 OA
ATOM     15  H   UNL     1       2.066   5.921  20.785  0.00  0.00    +0.000 HD
ENDBRANCH  11  14
ENDBRANCH   4   6
BRANCH   1  16
ATOM     16  C   UNL     1       8.110   7.478  17.743  0.00  0.00    +0.000 C 
BRANCH  16  17
ATOM     17  O   UNL     1       7.482   8.766  17.758  0.00  0.00    +0.000 OA
BRANCH  17  21
ATOM     18  C   UNL     1       9.759  12.077  18.850  0.00  0.00    +0.000 A 
ATOM     19  C   UNL     1       8.799  12.160  17.836  0.00  0.00    +0.000 A 
ATOM     20  C   UNL     1       8.057  11.022  17.502  0.00  0.00    +0.000 A 
ATOM     21  C   UNL     1       8.281   9.804  18.157  0.00  0.00    +0.000 A 
ATOM     22  C   UNL     1       9.230   9.737  19.178  0.00  0.00    +0.000 A 
ATOM     23  C   UNL     1       9.975  10.870  19.525  0.00  0.00    +0.000 A 
BRANCH  18  25
ATOM     24  O   UNL     1      11.046  13.298  20.346  0.00  0.00    +0.000 OA
ATOM     25  N   UNL     1      10.544  13.263  19.214  0.00  0.00    +0.000 N 
ATOM     26  O   UNL     1      10.659  14.159  18.365  0.00  0.00    +0.000 OA
ENDBRANCH  18  25
ENDBRANCH  17  21
ENDBRANCH  16  17
ENDBRANCH   1  16
TORSDOF 7
ENDMDL
MODEL 7
REMARK VINA RESULT:      -7.2      0.979      1.563
REMARK  Name = 
REMARK  7 active torsions:
REMARK  status: ('A' for Active; 'I' for Inactive)
REMARK    1  A    between atoms: N_2  and  C_4
REMARK    2  A    between atoms: C_7  and  O_8
REMARK    3  A    between atoms: O_8  and  C_9
REMARK    4  A    between atoms: C_9  and  C_10
REMARK    5  A    between atoms: C_13  and  C_14
REMARK    6  A    between atoms: C_17  and  O_18
REMARK    7  A    between atoms: C_20  and  O_21
REMARK                            x       y       z     vdW  Elec       q    Type
REMARK                         _______ _______ _______ _____ _____    ______ ____
ROOT
ATOM      1  C   UNL     1       7.232   6.987  18.149  0.00  0.00    +0.000 A 
ATOM      2  N   UNL     1       7.642   6.112  19.044  0.00  0.00    +0.000 NA
ATOM      3  N   UNL     1       6.719   5.105  19.247  0.00  0.00    +0.000 NA
ATOM      4  C   UNL     1       5.647   5.224  18.480  0.00  0.00    +0.000 A 
ATOM      5  S   UNL     1       5.658   6.670  17.542  0.00  0.00    +0.000 S 
ENDROOT
BRANCH   4   6
ATOM      6  C   UNL     1       4.519   4.276  18.474  0.00  0.00    +0.000 A 
ATOM      7  C   UNL     1       3.585   4.340  19.529  0.00  0.00    +0.000 A 
ATOM      8  C   UNL     1       2.515   3.441  19.615  0.00  0.00    +0.000 A 
ATOM      9  C   UNL     1       2.371   2.462  18.642  0.00  0.00    +0.000 A 
ATOM     10  C   UNL     1       3.271   2.370  17.588  0.00  0.00    +0.000 A 
ATOM     11  C   UNL     1       4.341   3.267  17.510  0.00  0.00    +0.000 A 
BRANCH   9  12
ATOM     12  O   UNL     1       1.358   1.552  18.687  0.00  0.00    +0.000 OA
ATOM     13  H   UNL     1       1.385   1.012  17.879  0.00  0.00    +0.000 HD
ENDBRANCH   9  12
BRANCH  11  14
ATOM     14  O   UNL     1       5.237   3.118  16.486  0.00  0.00    +0.000 OA
ATOM     15  H   UNL     1       6.109   2.896  16.851  0.00  0.00    +0.000 HD
ENDBRANCH  11  14
ENDBRANCH   4   6
BRANCH   1  16
ATOM     16  C   UNL     1       7.986   8.199  17.710  0.00  0.00    +0.000 C 
BRANCH  16  17
ATOM     17  O   UNL     1       8.838   8.597  18.791  0.00  0.00    +0.000 OA
BRANCH  17  21
ATOM     18  C   UNL     1       9.274  12.733  18.993  0.00  0.00    +0.000 A 
ATOM     19  C   UNL     1       8.797  12.111  17.835  0.00  0.00    +0.000 A 
ATOM     20  C   UNL     1       8.667  10.717  17.812  0.00  0.00    +0.000 A 
ATOM     21  C   UNL     1       9.027   9.946  18.924  0.00  0.00    +0.000 A 
ATOM     22  C   UNL     1       9.485  10.580  20.080  0.00  0.00    +0.000 A 
ATOM     23  C   UNL     1       9.615  11.973  20.118  0.00  0.00    +0.000 A 
BRANCH  18  25
ATOM     24  O   UNL     1      10.352  14.703  18.408  0.00  0.00    +0.000 OA
ATOM     25  N   UNL     1       9.413  14.194  19.035  0.00  0.00    +0.000 N 
ATOM     26  O   UNL     1       8.580  14.832  19.694  0.00  0.00    +0.000 OA
ENDBRANCH  18  25
ENDBRANCH  17  21
ENDBRANCH  16  17
ENDBRANCH   1  16
TORSDOF 7
ENDMDL
MODEL 8
REMARK VINA RESULT:      -7.2      5.647      8.051
REMARK  Name = 
REMARK  7 active torsions:
REMARK  status: ('A' for Active; 'I' for Inactive)
REMARK    1  A    between atoms: N_2  and  C_4
REMARK    2  A    between atoms: C_7  and  O_8
REMARK    3  A    between atoms: O_8  and  C_9
REMARK    4  A    between atoms: C_9  and  C_10
REMARK    5  A    between atoms: C_13  and  C_14
REMARK    6  A    between atoms: C_17  and  O_18
REMARK    7  A    between atoms: C_20  and  O_21
REMARK                            x       y       z     vdW  Elec       q    Type
REMARK                         _______ _______ _______ _____ _____    ______ ____
ROOT
ATOM      1  C   UNL     1       2.653   6.194  19.359  0.00  0.00    +0.000 A 
ATOM      2  N   UNL     1       2.724   7.210  18.524  0.00  0.00    +0.000 NA
ATOM      3  N   UNL     1       2.048   8.318  18.995  0.00  0.00    +0.000 NA
ATOM      4  C   UNL     1       1.509   8.126  20.188  0.00  0.00    +0.000 A 
ATOM      5  S   UNL     1       1.699   6.508  20.751  0.00  0.00    +0.000 S 
ENDROOT
BRANCH   4   6
ATOM      6  C   UNL     1       0.755   9.148  20.935  0.00  0.00    +0.000 A 
ATOM      7  C   UNL     1       0.529   8.942  22.312  0.00  0.00    +0.000 A 
ATOM      8  C   UNL     1      -0.219   9.846  23.074  0.00  0.00    +0.000 A 
ATOM      9  C   UNL     1      -0.755  10.970  22.462  0.00  0.00    +0.000 A 
ATOM     10  C   UNL     1      -0.553  11.206  21.108  0.00  0.00    +0.000 A 
ATOM     11  C   UNL     1       0.192  10.297  20.350  0.00  0.00    +0.000 A 
BRANCH   9  12
ATOM     12  O   UNL     1      -1.506  11.873  23.154  0.00  0.00    +0.000 OA
ATOM     13  H   UNL     1      -1.062  12.738  23.126  0.00  0.00    +0.000 HD
ENDBRANCH   9  12
BRANCH  11  14
ATOM     14  O   UNL     1       0.331  10.535  19.009  0.00  0.00    +0.000 OA
ATOM     15  H   UNL     1       1.276  10.591  18.789  0.00  0.00    +0.000 HD
ENDBRANCH  11  14
ENDBRANCH   4   6
BRANCH   1  16
ATOM     16  C   UNL     1       3.264   4.848  19.144  0.00  0.00    +0.000 C 
BRANCH  16  17
ATOM     17  O   UNL     1       4.687   5.000  19.214  0.00  0.00    +0.000 OA
BRANCH  17  21
ATOM     18  C   UNL     1       6.460   4.858  15.449  0.00  0.00    +0.000 A 
ATOM     19  C   UNL     1       5.147   4.420  15.649  0.00  0.00    +0.000 A 
ATOM     20  C   UNL     1       4.592   4.486  16.932  0.00  0.00    +0.000 A 
ATOM     21  C   UNL     1       5.342   4.965  18.012  0.00  0.00    +0.000 A 
ATOM     22  C   UNL     1       6.646   5.415  17.798  0.00  0.00    +0.000 A 
ATOM     23  C   UNL     1       7.211   5.360  16.519  0.00  0.00    +0.000 A 
BRANCH  18  25
ATOM     24  O   UNL     1       6.615   3.956  13.317  0.00  0.00    +0.000 OA
ATOM     25  N   UNL     1       7.057   4.799  14.109  0.00  0.00    +0.000 N 
ATOM     26  O   UNL     1       7.967   5.599  13.850  0.00  0.00    +0.000 OA
ENDBRANCH  18  25
ENDBRANCH  17  21
ENDBRANCH  16  17
ENDBRANCH   1  16
TORSDOF 7
ENDMDL
MODEL 9
REMARK VINA RESULT:      -7.2      5.506      7.988
REMARK  Name = 
REMARK  7 active torsions:
REMARK  status: ('A' for Active; 'I' for Inactive)
REMARK    1  A    between atoms: N_2  and  C_4
REMARK    2  A    between atoms: C_7  and  O_8
REMARK    3  A    between atoms: O_8  and  C_9
REMARK    4  A    between atoms: C_9  and  C_10
REMARK    5  A    between atoms: C_13  and  C_14
REMARK    6  A    between atoms: C_17  and  O_18
REMARK    7  A    between atoms: C_20  and  O_21
REMARK                            x       y       z     vdW  Elec       q    Type
REMARK                         _______ _______ _______ _____ _____    ______ ____
ROOT
ATOM      1  C   UNL     1       2.685   5.807  19.534  0.00  0.00    +0.000 A 
ATOM      2  N   UNL     1       2.847   6.802  18.687  0.00  0.00    +0.000 NA
ATOM      3  N   UNL     1       2.209   7.952  19.110  0.00  0.00    +0.000 NA
ATOM      4  C   UNL     1       1.608   7.809  20.280  0.00  0.00    +0.000 A 
ATOM      5  S   UNL     1       1.688   6.194  20.876  0.00  0.00    +0.000 S 
ENDROOT
BRANCH   4   6
ATOM      6  C   UNL     1       0.875   8.882  20.975  0.00  0.00    +0.000 A 
ATOM      7  C   UNL     1       0.606   8.726  22.351  0.00  0.00    +0.000 A 
ATOM      8  C   UNL     1      -0.126   9.682  23.066  0.00  0.00    +0.000 A 
ATOM      9  C   UNL     1      -0.601  10.807  22.407  0.00  0.00    +0.000 A 
ATOM     10  C   UNL     1      -0.354  10.994  21.053  0.00  0.00    +0.000 A 
ATOM     11  C   UNL     1       0.373  10.034  20.342  0.00  0.00    +0.000 A 
BRANCH   9  12
ATOM     12  O   UNL     1      -1.333  11.758  23.051  0.00  0.00    +0.000 OA
ATOM     13  H   UNL     1      -1.942  12.171  22.415  0.00  0.00    +0.000 HD
ENDBRANCH   9  12
BRANCH  11  14
ATOM     14  O   UNL     1       0.557  10.225  18.999  0.00  0.00    +0.000 OA
ATOM     15  H   UNL     1       0.582  11.178  18.810  0.00  0.00    +0.000 HD
ENDBRANCH  11  14
ENDBRANCH   4   6
BRANCH   1  16
ATOM     16  C   UNL     1       3.234   4.428  19.367  0.00  0.00    +0.000 C 
BRANCH  16  17
ATOM     17  O   UNL     1       4.660   4.535  19.274  0.00  0.00    +0.000 OA
BRANCH  17  21
ATOM     18  C   UNL     1       6.417   4.689  15.502  0.00  0.00    +0.000 A 
ATOM     19  C   UNL     1       7.056   5.231  16.622  0.00  0.00    +0.000 A 
ATOM     20  C   UNL     1       6.428   5.156  17.871  0.00  0.00    +0.000 A 
ATOM     21  C   UNL     1       5.165   4.566  18.002  0.00  0.00    +0.000 A 
ATOM     22  C   UNL     1       4.544   4.015  16.880  0.00  0.00    +0.000 A 
ATOM     23  C   UNL     1       5.164   4.077  15.627  0.00  0.00    +0.000 A 
BRANCH  18  25
ATOM     24  O   UNL     1       6.604   4.048  13.279  0.00  0.00    +0.000 OA
ATOM     25  N   UNL     1       7.064   4.756  14.186  0.00  0.00    +0.000 N 
ATOM     26  O   UNL     1       8.032   5.520  14.060  0.00  0.00    +0.000 OA
ENDBRANCH  18  25
ENDBRANCH  17  21
ENDBRANCH  16  17
ENDBRANCH   1  16
TORSDOF 7
ENDMDL
