MODEL 1
REMARK VINA RESULT:      -7.4      0.000      0.000
REMARK  Name = 
REMARK  8 active torsions:
REMARK  status: ('A' for Active; 'I' for Inactive)
REMARK    1  A    between atoms: C_1  and  O_2
REMARK    2  A    between atoms: O_2  and  C_3
REMARK    3  A    between atoms: C_3  and  C_5
REMARK    4  A    between atoms: CA_6  and  C_7
REMARK    5  A    between atoms: C_7  and  OXT_9
REMARK    6  A    between atoms: CA_13  and  N_14
REMARK    7  A    between atoms: C_15  and  C_17
REMARK    8  A    between atoms: C_17  and  C_18
REMARK                            x       y       z     vdW  Elec       q    Type
REMARK                         _______ _______ _______ _____ _____    ______ ____
ROOT
ATOM      1  C   UNL     1       3.036   5.510  19.477  0.00  0.00    +0.000 C 
ATOM      2  CA  UNL     1       2.662   4.220  19.441  0.00  0.00    +0.000 C 
ATOM      3  N   UNL     1       3.766   3.373  19.462  0.00  0.00    +0.000 N 
ATOM      4  C   UNL     1       4.139   2.730  18.312  0.00  0.00    +0.000 C 
ATOM      5  O   UNL     1       3.465   2.040  17.580  0.00  0.00    +0.000 OA
ATOM      6  CA  UNL     1       5.500   3.453  18.250  0.00  0.00    +0.000 C 
ATOM      7  C   UNL     1       5.011   4.201  19.531  0.00  0.00    +0.000 C 
ATOM      8  C   UNL     1       4.535   5.649  19.554  0.00  0.00    +0.000 C 
ENDROOT
BRANCH   6   9
ATOM      9  N   UNL     1       5.709   4.297  17.048  0.00  0.00    +0.000 N 
ATOM     10  C   UNL     1       6.983   4.606  16.626  0.00  0.00    +0.000 C 
ATOM     11  O   UNL     1       7.978   4.211  17.230  0.00  0.00    +0.000 OA
ATOM     12  H   UNL     1       4.936   4.511  16.424  0.00  0.00    +0.000 HD
BRANCH  10  13
ATOM     13  C   UNL     1       7.049   5.500  15.404  0.00  0.00    +0.000 C 
BRANCH  13  14
ATOM     14  C   UNL     1       6.784   4.774  14.109  0.00  0.00    +0.000 A 
ATOM     15  C   UNL     1       5.635   3.983  13.959  0.00  0.00    +0.000 A 
ATOM     16  C   UNL     1       5.380   3.326  12.753  0.00  0.00    +0.000 A 
ATOM     17  C   UNL     1       6.260   3.466  11.682  0.00  0.00    +0.000 A 
ATOM     18  C   UNL     1       7.397   4.259  11.817  0.00  0.00    +0.000 A 
ATOM     19  C   UNL     1       7.660   4.909  13.024  0.00  0.00    +0.000 A 
ENDBRANCH  13  14
ENDBRANCH  10  13
ENDBRANCH   6   9
BRANCH   1  20
ATOM     20  C   UNL     1       2.281   6.772  19.382  0.00  0.00    +0.000 C 
ATOM     21  O   UNL     1       1.838   7.345  20.363  0.00  0.00    +0.000 OA
BRANCH  20  23
ATOM     22  C   UNL     1       2.659   8.441  17.778  0.00  0.00    +0.000 C 
ATOM     23  O   UNL     1       2.129   7.162  18.107  0.00  0.00    +0.000 OA
ENDBRANCH  20  23
ENDBRANCH   1  20
BRANCH   2  24
ATOM     24  C   UNL     1       1.276   3.643  19.335  0.00  0.00    +0.000 C 
ATOM     25  O   UNL     1       0.554   3.374  20.280  0.00  0.00    +0.000 OA
BRANCH  24  26
ATOM     26  OXT UNL     1       0.874   3.364  18.076  0.00  0.00    +0.000 OA
ATOM     27  HXT UNL     1       1.069   2.458  17.753  0.00  0.00    +0.000 HD
ENDBRANCH  24  26
ENDBRANCH   2  24
TORSDOF 7
ENDMDL
MODEL 2
REMARK VINA RESULT:      -7.4      0.190      1.167
REMARK  Name = 
REMARK  8 active torsions:
REMARK  status: ('A' for Active; 'I' for Inactive)
REMARK    1  A    between atoms: C_1  and  O_2
REMARK    2  A    between atoms: O_2  and  C_3
REMARK    3  A    between atoms: C_3  and  C_5
REMARK    4  A    between atoms: CA_6  and  C_7
REMARK    5  A    between atoms: C_7  and  OXT_9
REMARK    6  A    between atoms: CA_13  and  N_14
REMARK    7  A    between atoms: C_15  and  C_17
REMARK    8  A    between atoms: C_17  and  C_18
REMARK                            x       y       z     vdW  Elec       q    Type
REMARK                         _______ _______ _______ _____ _____    ______ ____
ROOT
ATOM      1  C   UNL     1       3.056   5.598  19.439  0.00  0.00    +0.000 C 
ATOM      2  CA  UNL     1       2.672   4.310  19.395  0.00  0.00    +0.000 C 
ATOM      3  N   UNL     1       3.770   3.455  19.430  0.00  0.00    +0.000 N 
ATOM      4  C   UNL     1       4.155   2.811  18.284  0.00  0.00    +0.000 C 
ATOM      5  O   UNL     1       3.486   2.129  17.540  0.00  0.00    +0.000 OA
ATOM      6  CA  UNL     1       5.522   3.524  18.244  0.00  0.00    +0.000 C 
ATOM      7  C   UNL     1       5.020   4.273  19.519  0.00  0.00    +0.000 C 
ATOM      8  C   UNL     1       4.555   5.725  19.538  0.00  0.00    +0.000 C 
ENDROOT
BRANCH   6   9
ATOM      9  N   UNL     1       5.755   4.370  17.047  0.00  0.00    +0.000 N 
ATOM     10  C   UNL     1       7.037   4.621  16.610  0.00  0.00    +0.000 C 
ATOM     11  O   UNL     1       8.020   4.173  17.196  0.00  0.00    +0.000 OA
ATOM     12  H   UNL     1       4.984   4.627  16.435  0.00  0.00    +0.000 HD
BRANCH  10  13
ATOM     13  C   UNL     1       7.129   5.523  15.396  0.00  0.00    +0.000 C 
BRANCH  13  14
ATOM     14  C   UNL     1       6.835   4.819  14.096  0.00  0.00    +0.000 A 
ATOM     15  C   UNL     1       7.683   4.984  12.989  0.00  0.00    +0.000 A 
ATOM     16  C   UNL     1       7.421   4.316  11.791  0.00  0.00    +0.000 A 
ATOM     17  C   UNL     1       6.322   3.466  11.690  0.00  0.00    +0.000 A 
ATOM     18  C   UNL     1       5.482   3.285  12.787  0.00  0.00    +0.000 A 
ATOM     19  C   UNL     1       5.734   3.959  13.982  0.00  0.00    +0.000 A 
ENDBRANCH  13  14
ENDBRANCH  10  13
ENDBRANCH   6   9
BRANCH   1  20
ATOM     20  C   UNL     1       2.312   6.865  19.336  0.00  0.00    +0.000 C 
ATOM     21  O   UNL     1       1.741   7.368  20.289  0.00  0.00    +0.000 OA
BRANCH  20  23
ATOM     22  C   UNL     1       2.011   8.726  17.941  0.00  0.00    +0.000 C 
ATOM     23  O   UNL     1       2.325   7.345  18.084  0.00  0.00    +0.000 OA
ENDBRANCH  20  23
ENDBRANCH   1  20
BRANCH   2  24
ATOM     24  C   UNL     1       1.284   3.745  19.267  0.00  0.00    +0.000 C 
ATOM     25  O   UNL     1       0.729   3.479  18.214  0.00  0.00    +0.000 OA
BRANCH  24  26
ATOM     26  OXT UNL     1       0.622   3.597  20.435  0.00  0.00    +0.000 OA
ATOM     27  HXT UNL     1       0.591   4.388  21.015  0.00  0.00    +0.000 HD
ENDBRANCH  24  26
ENDBRANCH   2  24
TORSDOF 7
ENDMDL
MODEL 3
REMARK VINA RESULT:      -7.2      3.361      7.855
REMARK  Name = 
REMARK  8 active torsions:
REMARK  status: ('A' for Active; 'I' for Inactive)
REMARK    1  A    between atoms: C_1  and  O_2
REMARK    2  A    between atoms: O_2  and  C_3
REMARK    3  A    between atoms: C_3  and  C_5
REMARK    4  A    between atoms: CA_6  and  C_7
REMARK    5  A    between atoms: C_7  and  OXT_9
REMARK    6  A    between atoms: CA_13  and  N_14
REMARK    7  A    between atoms: C_15  and  C_17
REMARK    8  A    between atoms: C_17  and  C_18
REMARK                            x       y       z     vdW  Elec       q    Type
REMARK                         _______ _______ _______ _____ _____    ______ ____
ROOT
ATOM      1  C   UNL     1       3.639   4.015  18.230  0.00  0.00    +0.000 C 
ATOM      2  CA  UNL     1       3.419   2.995  19.078  0.00  0.00    +0.000 C 
ATOM      3  N   UNL     1       2.128   3.039  19.596  0.00  0.00    +0.000 N 
ATOM      4  C   UNL     1       1.939   3.440  20.892  0.00  0.00    +0.000 C 
ATOM      5  O   UNL     1       2.465   3.018  21.897  0.00  0.00    +0.000 OA
ATOM      6  CA  UNL     1       1.124   4.681  20.475  0.00  0.00    +0.000 C 
ATOM      7  C   UNL     1       1.411   4.215  19.012  0.00  0.00    +0.000 C 
ATOM      8  C   UNL     1       2.414   4.880  18.077  0.00  0.00    +0.000 C 
ENDROOT
BRANCH   6   9
ATOM      9  N   UNL     1       1.719   5.983  20.866  0.00  0.00    +0.000 N 
ATOM     10  C   UNL     1       0.910   7.061  21.152  0.00  0.00    +0.000 C 
ATOM     11  O   UNL     1      -0.315   6.988  21.080  0.00  0.00    +0.000 OA
ATOM     12  H   UNL     1       2.706   6.054  21.099  0.00  0.00    +0.000 HD
BRANCH  10  13
ATOM     13  C   UNL     1       1.651   8.335  21.508  0.00  0.00    +0.000 C 
BRANCH  13  14
ATOM     14  C   UNL     1       0.743   9.515  21.749  0.00  0.00    +0.000 A 
ATOM     15  C   UNL     1       0.590  10.506  20.768  0.00  0.00    +0.000 A 
ATOM     16  C   UNL     1      -0.265  11.589  20.983  0.00  0.00    +0.000 A 
ATOM     17  C   UNL     1      -0.987  11.685  22.171  0.00  0.00    +0.000 A 
ATOM     18  C   UNL     1      -0.851  10.699  23.146  0.00  0.00    +0.000 A 
ATOM     19  C   UNL     1       0.010   9.620  22.939  0.00  0.00    +0.000 A 
ENDBRANCH  13  14
ENDBRANCH  10  13
ENDBRANCH   6   9
BRANCH   1  20
ATOM     20  C   UNL     1       4.837   4.470  17.505  0.00  0.00    +0.000 C 
ATOM     21  O   UNL     1       5.293   3.865  16.548  0.00  0.00    +0.000 OA
BRANCH  20  23
ATOM     22  C   UNL     1       6.252   5.385  19.136  0.00  0.00    +0.000 C 
ATOM     23  O   UNL     1       5.353   5.581  18.050  0.00  0.00    +0.000 OA
ENDBRANCH  20  23
ENDBRANCH   1  20
BRANCH   2  24
ATOM     24  C   UNL     1       4.374   1.925  19.531  0.00  0.00    +0.000 C 
ATOM     25  O   UNL     1       5.133   2.018  20.481  0.00  0.00    +0.000 OA
BRANCH  24  26
ATOM     26  OXT UNL     1       4.398   0.821  18.754  0.00  0.00    +0.000 OA
ATOM     27  HXT UNL     1       4.738   0.003  19.178  0.00  0.00    +0.000 HD
ENDBRANCH  24  26
ENDBRANCH   2  24
TORSDOF 7
ENDMDL
MODEL 4
REMARK VINA RESULT:      -7.2      0.625      1.189
REMARK  Name = 
REMARK  8 active torsions:
REMARK  status: ('A' for Active; 'I' for Inactive)
REMARK    1  A    between atoms: C_1  and  O_2
REMARK    2  A    between atoms: O_2  and  C_3
REMARK    3  A    between atoms: C_3  and  C_5
REMARK    4  A    between atoms: CA_6  and  C_7
REMARK    5  A    between atoms: C_7  and  OXT_9
REMARK    6  A    between atoms: CA_13  and  N_14
REMARK    7  A    between atoms: C_15  and  C_17
REMARK    8  A    between atoms: C_17  and  C_18
REMARK                            x       y       z     vdW  Elec       q    Type
REMARK                         _______ _______ _______ _____ _____    ______ ____
ROOT
ATOM      1  C   UNL     1       2.983   5.356  19.654  0.00  0.00    +0.000 C 
ATOM      2  CA  UNL     1       2.607   4.066  19.624  0.00  0.00    +0.000 C 
ATOM      3  N   UNL     1       3.709   3.220  19.551  0.00  0.00    +0.000 N 
ATOM      4  C   UNL     1       3.997   2.595  18.366  0.00  0.00    +0.000 C 
ATOM      5  O   UNL     1       3.270   1.918  17.674  0.00  0.00    +0.000 OA
ATOM      6  CA  UNL     1       5.350   3.319  18.218  0.00  0.00    +0.000 C 
ATOM      7  C   UNL     1       4.956   4.047  19.543  0.00  0.00    +0.000 C 
ATOM      8  C   UNL     1       4.484   5.494  19.624  0.00  0.00    +0.000 C 
ENDROOT
BRANCH   6   9
ATOM      9  N   UNL     1       5.472   4.183  17.018  0.00  0.00    +0.000 N 
ATOM     10  C   UNL     1       6.703   4.659  16.623  0.00  0.00    +0.000 C 
ATOM     11  O   UNL     1       7.728   4.400  17.250  0.00  0.00    +0.000 OA
ATOM     12  H   UNL     1       4.692   4.292  16.375  0.00  0.00    +0.000 HD
BRANCH  10  13
ATOM     13  C   UNL     1       6.677   5.553  15.400  0.00  0.00    +0.000 C 
BRANCH  13  14
ATOM     14  C   UNL     1       6.615   4.795  14.098  0.00  0.00    +0.000 A 
ATOM     15  C   UNL     1       5.548   3.922  13.833  0.00  0.00    +0.000 A 
ATOM     16  C   UNL     1       5.481   3.234  12.619  0.00  0.00    +0.000 A 
ATOM     17  C   UNL     1       6.467   3.423  11.654  0.00  0.00    +0.000 A 
ATOM     18  C   UNL     1       7.524   4.297  11.902  0.00  0.00    +0.000 A 
ATOM     19  C   UNL     1       7.599   4.978  13.118  0.00  0.00    +0.000 A 
ENDBRANCH  13  14
ENDBRANCH  10  13
ENDBRANCH   6   9
BRANCH   1  20
ATOM     20  C   UNL     1       2.225   6.618  19.634  0.00  0.00    +0.000 C 
ATOM     21  O   UNL     1       2.264   7.391  18.692  0.00  0.00    +0.000 OA
BRANCH  20  23
ATOM     22  C   UNL     1       1.253   8.152  21.119  0.00  0.00    +0.000 C 
ATOM     23  O   UNL     1       1.540   6.801  20.773  0.00  0.00    +0.000 OA
ENDBRANCH  20  23
ENDBRANCH   1  20
BRANCH   2  24
ATOM     24  C   UNL     1       1.217   3.491  19.609  0.00  0.00    +0.000 C 
ATOM     25  O   UNL     1       0.547   3.300  18.608  0.00  0.00    +0.000 OA
BRANCH  24  26
ATOM     26  OXT UNL     1       0.692   3.243  20.830  0.00  0.00    +0.000 OA
ATOM     27  HXT UNL     1       1.330   3.224  21.576  0.00  0.00    +0.000 HD
ENDBRANCH  24  26
ENDBRANCH   2  24
TORSDOF 7
ENDMDL
MODEL 5
REMARK VINA RESULT:      -7.2      3.505      7.860
REMARK  Name = 
REMARK  8 active torsions:
REMARK  status: ('A' for Active; 'I' for Inactive)
REMARK    1  A    between atoms: C_1  and  O_2
REMARK    2  A    between atoms: O_2  and  C_3
REMARK    3  A    between atoms: C_3  and  C_5
REMARK    4  A    between atoms: CA_6  and  C_7
REMARK    5  A    between atoms: C_7  and  OXT_9
REMARK    6  A    between atoms: CA_13  and  N_14
REMARK    7  A    between atoms: C_15  and  C_17
REMARK    8  A    between atoms: C_17  and  C_18
REMARK                            x       y       z     vdW  Elec       q    Type
REMARK                         _______ _______ _______ _____ _____    ______ ____
ROOT
ATOM      1  C   UNL     1       4.225   4.019  18.692  0.00  0.00    +0.000 C 
ATOM      2  CA  UNL     1       3.780   2.995  19.441  0.00  0.00    +0.000 C 
ATOM      3  N   UNL     1       2.410   3.091  19.664  0.00  0.00    +0.000 N 
ATOM      4  C   UNL     1       1.958   3.475  20.899  0.00  0.00    +0.000 C 
ATOM      5  O   UNL     1       2.230   3.008  21.982  0.00  0.00    +0.000 OA
ATOM      6  CA  UNL     1       1.310   4.763  20.353  0.00  0.00    +0.000 C 
ATOM      7  C   UNL     1       1.890   4.313  18.974  0.00  0.00    +0.000 C 
ATOM      8  C   UNL     1       3.102   4.947  18.302  0.00  0.00    +0.000 C 
ENDROOT
BRANCH   6   9
ATOM      9  N   UNL     1       1.860   6.026  20.904  0.00  0.00    +0.000 N 
ATOM     10  C   UNL     1       1.032   7.100  21.148  0.00  0.00    +0.000 C 
ATOM     11  O   UNL     1      -0.172   7.056  20.907  0.00  0.00    +0.000 OA
ATOM     12  H   UNL     1       2.807   6.063  21.273  0.00  0.00    +0.000 HD
BRANCH  10  13
ATOM     13  C   UNL     1       1.731   8.334  21.682  0.00  0.00    +0.000 C 
BRANCH  13  14
ATOM     14  C   UNL     1       0.814   9.516  21.867  0.00  0.00    +0.000 A 
ATOM     15  C   UNL     1      -0.033   9.593  22.982  0.00  0.00    +0.000 A 
ATOM     16  C   UNL     1      -0.868  10.697  23.163  0.00  0.00    +0.000 A 
ATOM     17  C   UNL     1      -0.854  11.742  22.242  0.00  0.00    +0.000 A 
ATOM     18  C   UNL     1      -0.007  11.682  21.137  0.00  0.00    +0.000 A 
ATOM     19  C   UNL     1       0.821  10.575  20.948  0.00  0.00    +0.000 A 
ENDBRANCH  13  14
ENDBRANCH  10  13
ENDBRANCH   6   9
BRANCH   1  20
ATOM     20  C   UNL     1       5.572   4.429  18.262  0.00  0.00    +0.000 C 
ATOM     21  O   UNL     1       5.923   4.401  17.094  0.00  0.00    +0.000 OA
BRANCH  20  23
ATOM     22  C   UNL     1       7.428   5.654  19.008  0.00  0.00    +0.000 C 
ATOM     23  O   UNL     1       6.336   4.790  19.304  0.00  0.00    +0.000 OA
ENDBRANCH  20  23
ENDBRANCH   1  20
BRANCH   2  24
ATOM     24  C   UNL     1       4.564   1.870  20.059  0.00  0.00    +0.000 C 
ATOM     25  O   UNL     1       5.101   1.907  21.153  0.00  0.00    +0.000 OA
BRANCH  24  26
ATOM     26  OXT UNL     1       4.707   0.780  19.273  0.00  0.00    +0.000 OA
ATOM     27  HXT UNL     1       5.619   0.426  19.191  0.00  0.00    +0.000 HD
ENDBRANCH  24  26
ENDBRANCH   2  24
TORSDOF 7
ENDMDL
MODEL 6
REMARK VINA RESULT:      -7.0      4.945      7.933
REMARK  Name = 
REMARK  8 active torsions:
REMARK  status: ('A' for Active; 'I' for Inactive)
REMARK    1  A    between atoms: C_1  and  O_2
REMARK    2  A    between atoms: O_2  and  C_3
REMARK    3  A    between atoms: C_3  and  C_5
REMARK    4  A    between atoms: CA_6  and  C_7
REMARK    5  A    between atoms: C_7  and  OXT_9
REMARK    6  A    between atoms: CA_13  and  N_14
REMARK    7  A    between atoms: C_15  and  C_17
REMARK    8  A    between atoms: C_17  and  C_18
REMARK                            x       y       z     vdW  Elec       q    Type
REMARK                         _______ _______ _______ _____ _____    ______ ____
ROOT
ATOM      1  C   UNL     1      -0.067  11.065  21.034  0.00  0.00    +0.000 C 
ATOM      2  CA  UNL     1       0.475  11.951  20.180  0.00  0.00    +0.000 C 
ATOM      3  N   UNL     1       0.384  11.506  18.865  0.00  0.00    +0.000 N 
ATOM      4  C   UNL     1       1.508  11.040  18.236  0.00  0.00    +0.000 C 
ATOM      5  O   UNL     1       2.583  11.581  18.113  0.00  0.00    +0.000 OA
ATOM      6  CA  UNL     1       0.930   9.618  18.081  0.00  0.00    +0.000 C 
ATOM      7  C   UNL     1      -0.308  10.180  18.848  0.00  0.00    +0.000 C 
ATOM      8  C   UNL     1      -0.631   9.871  20.306  0.00  0.00    +0.000 C 
ENDROOT
BRANCH   6   9
ATOM      9  N   UNL     1       1.692   8.551  18.775  0.00  0.00    +0.000 N 
ATOM     10  C   UNL     1       2.649   7.825  18.100  0.00  0.00    +0.000 C 
ATOM     11  O   UNL     1       2.891   8.022  16.911  0.00  0.00    +0.000 OA
ATOM     12  H   UNL     1       1.651   8.458  19.787  0.00  0.00    +0.000 HD
BRANCH  10  13
ATOM     13  C   UNL     1       3.328   6.748  18.923  0.00  0.00    +0.000 C 
BRANCH  13  14
ATOM     14  C   UNL     1       2.461   5.540  19.170  0.00  0.00    +0.000 A 
ATOM     15  C   UNL     1       2.081   4.706  18.107  0.00  0.00    +0.000 A 
ATOM     16  C   UNL     1       1.295   3.576  18.340  0.00  0.00    +0.000 A 
ATOM     17  C   UNL     1       0.893   3.259  19.635  0.00  0.00    +0.000 A 
ATOM     18  C   UNL     1       1.276   4.072  20.700  0.00  0.00    +0.000 A 
ATOM     19  C   UNL     1       2.054   5.208  20.470  0.00  0.00    +0.000 A 
ENDBRANCH  13  14
ENDBRANCH  10  13
ENDBRANCH   6   9
BRANCH   1  20
ATOM     20  C   UNL     1      -0.142  11.011  22.504  0.00  0.00    +0.000 C 
ATOM     21  O   UNL     1       0.258  10.053  23.145  0.00  0.00    +0.000 OA
BRANCH  20  23
ATOM     22  C   UNL     1      -2.143  12.100  23.060  0.00  0.00    +0.000 C 
ATOM     23  O   UNL     1      -0.721  12.110  23.010  0.00  0.00    +0.000 OA
ENDBRANCH  20  23
ENDBRANCH   1  20
BRANCH   2  24
ATOM     24  C   UNL     1       1.166  13.252  20.487  0.00  0.00    +0.000 C 
ATOM     25  O   UNL     1       1.059  14.274  19.832  0.00  0.00    +0.000 OA
BRANCH  24  26
ATOM     26  OXT UNL     1       2.006  13.212  21.545  0.00  0.00    +0.000 OA
ATOM     27  HXT UNL     1       1.689  12.711  22.327  0.00  0.00    +0.000 HD
ENDBRANCH  24  26
ENDBRANCH   2  24
TORSDOF 7
ENDMDL
MODEL 7
REMARK VINA RESULT:      -7.0      1.053      1.672
REMARK  Name = 
REMARK  8 active torsions:
REMARK  status: ('A' for Active; 'I' for Inactive)
REMARK    1  A    between atoms: C_1  and  O_2
REMARK    2  A    between atoms: O_2  and  C_3
REMARK    3  A    between atoms: C_3  and  C_5
REMARK    4  A    between atoms: CA_6  and  C_7
REMARK    5  A    between atoms: C_7  and  OXT_9
REMARK    6  A    between atoms: CA_13  and  N_14
REMARK    7  A    between atoms: C_15  and  C_17
REMARK    8  A    between atoms: C_17  and  C_18
REMARK                            x       y       z     vdW  Elec       q    Type
REMARK                         _______ _______ _______ _____ _____    ______ ____
ROOT
ATOM      1  C   UNL     1       3.001   5.419  19.819  0.00  0.00    +0.000 C 
ATOM      2  CA  UNL     1       2.702   4.136  20.088  0.00  0.00    +0.000 C 
ATOM      3  N   UNL     1       3.793   3.304  19.854  0.00  0.00    +0.000 N 
ATOM      4  C   UNL     1       3.797   2.500  18.745  0.00  0.00    +0.000 C 
ATOM      5  O   UNL     1       2.954   1.710  18.382  0.00  0.00    +0.000 OA
ATOM      6  CA  UNL     1       5.022   3.209  18.134  0.00  0.00    +0.000 C 
ATOM      7  C   UNL     1       4.947   4.136  19.389  0.00  0.00    +0.000 C 
ATOM      8  C   UNL     1       4.433   5.570  19.370  0.00  0.00    +0.000 C 
ENDROOT
BRANCH   6   9
ATOM      9  N   UNL     1       4.779   3.869  16.827  0.00  0.00    +0.000 N 
ATOM     10  C   UNL     1       5.831   4.372  16.093  0.00  0.00    +0.000 C 
ATOM     11  O   UNL     1       6.991   4.305  16.495  0.00  0.00    +0.000 OA
ATOM     12  H   UNL     1       3.871   3.806  16.375  0.00  0.00    +0.000 HD
BRANCH  10  13
ATOM     13  C   UNL     1       5.436   5.045  14.794  0.00  0.00    +0.000 C 
BRANCH  13  14
ATOM     14  C   UNL     1       5.783   4.242  13.567  0.00  0.00    +0.000 A 
ATOM     15  C   UNL     1       7.096   4.229  13.072  0.00  0.00    +0.000 A 
ATOM     16  C   UNL     1       7.421   3.470  11.946  0.00  0.00    +0.000 A 
ATOM     17  C   UNL     1       6.444   2.704  11.313  0.00  0.00    +0.000 A 
ATOM     18  C   UNL     1       5.140   2.700  11.804  0.00  0.00    +0.000 A 
ATOM     19  C   UNL     1       4.810   3.465  12.924  0.00  0.00    +0.000 A 
ENDBRANCH  13  14
ENDBRANCH  10  13
ENDBRANCH   6   9
BRANCH   1  20
ATOM     20  C   UNL     1       2.195   6.651  19.810  0.00  0.00    +0.000 C 
ATOM     21  O   UNL     1       2.201   7.431  18.872  0.00  0.00    +0.000 OA
BRANCH  20  23
ATOM     22  C   UNL     1       1.162   8.137  21.302  0.00  0.00    +0.000 C 
ATOM     23  O   UNL     1       1.508   6.801  20.953  0.00  0.00    +0.000 OA
ENDBRANCH  20  23
ENDBRANCH   1  20
BRANCH   2  24
ATOM     24  C   UNL     1       1.390   3.548  20.530  0.00  0.00    +0.000 C 
ATOM     25  O   UNL     1       1.153   3.125  21.649  0.00  0.00    +0.000 OA
BRANCH  24  26
ATOM     26  OXT UNL     1       0.458   3.448  19.558  0.00  0.00    +0.000 OA
ATOM     27  HXT UNL     1       0.439   4.178  18.903  0.00  0.00    +0.000 HD
ENDBRANCH  24  26
ENDBRANCH   2  24
TORSDOF 7
ENDMDL
MODEL 8
REMARK VINA RESULT:      -7.0      3.164      7.787
REMARK  Name = 
REMARK  8 active torsions:
REMARK  status: ('A' for Active; 'I' for Inactive)
REMARK    1  A    between atoms: C_1  and  O_2
REMARK    2  A    between atoms: O_2  and  C_3
REMARK    3  A    between atoms: C_3  and  C_5
REMARK    4  A    between atoms: CA_6  and  C_7
REMARK    5  A    between atoms: C_7  and  OXT_9
REMARK    6  A    between atoms: CA_13  and  N_14
REMARK    7  A    between atoms: C_15  and  C_17
REMARK    8  A    between atoms: C_17  and  C_18
REMARK                            x       y       z     vdW  Elec       q    Type
REMARK                         _______ _______ _______ _____ _____    ______ ____
ROOT
ATOM      1  C   UNL     1       3.753   4.001  18.238  0.00  0.00    +0.000 C 
ATOM      2  CA  UNL     1       3.494   2.979  19.072  0.00  0.00    +0.000 C 
ATOM      3  N   UNL     1       2.182   3.025  19.534  0.00  0.00    +0.000 N 
ATOM      4  C   UNL     1       1.940   3.422  20.823  0.00  0.00    +0.000 C 
ATOM      5  O   UNL     1       2.421   2.994  21.848  0.00  0.00    +0.000 OA
ATOM      6  CA  UNL     1       1.148   4.668  20.377  0.00  0.00    +0.000 C 
ATOM      7  C   UNL     1       1.495   4.207  18.926  0.00  0.00    +0.000 C 
ATOM      8  C   UNL     1       2.539   4.871  18.037  0.00  0.00    +0.000 C 
ENDROOT
BRANCH   6   9
ATOM      9  N   UNL     1       1.730   5.966  20.799  0.00  0.00    +0.000 N 
ATOM     10  C   UNL     1       0.911   7.025  21.124  0.00  0.00    +0.000 C 
ATOM     11  O   UNL     1      -0.313   6.939  21.063  0.00  0.00    +0.000 OA
ATOM     12  H   UNL     1       2.719   6.043  21.024  0.00  0.00    +0.000 HD
BRANCH  10  13
ATOM     13  C   UNL     1       1.640   8.298  21.508  0.00  0.00    +0.000 C 
BRANCH  13  14
ATOM     14  C   UNL     1       0.732   9.491  21.660  0.00  0.00    +0.000 A 
ATOM     15  C   UNL     1       0.055   9.722  22.868  0.00  0.00    +0.000 A 
ATOM     16  C   UNL     1      -0.771  10.838  23.015  0.00  0.00    +0.000 A 
ATOM     17  C   UNL     1      -0.917  11.743  21.966  0.00  0.00    +0.000 A 
ATOM     18  C   UNL     1      -0.239  11.530  20.767  0.00  0.00    +0.000 A 
ATOM     19  C   UNL     1       0.579  10.410  20.613  0.00  0.00    +0.000 A 
ENDBRANCH  13  14
ENDBRANCH  10  13
ENDBRANCH   6   9
BRANCH   1  20
ATOM     20  C   UNL     1       4.983   4.454  17.567  0.00  0.00    +0.000 C 
ATOM     21  O   UNL     1       5.928   4.923  18.179  0.00  0.00    +0.000 OA
BRANCH  20  23
ATOM     22  C   UNL     1       6.115   3.996  15.564  0.00  0.00    +0.000 C 
ATOM     23  O   UNL     1       4.901   4.313  16.235  0.00  0.00    +0.000 OA
ENDBRANCH  20  23
ENDBRANCH   1  20
BRANCH   2  24
ATOM     24  C   UNL     1       4.425   1.903  19.561  0.00  0.00    +0.000 C 
ATOM     25  O   UNL     1       5.154   1.995  20.534  0.00  0.00    +0.000 OA
BRANCH  24  26
ATOM     26  OXT UNL     1       4.464   0.794  18.790  0.00  0.00    +0.000 OA
ATOM     27  HXT UNL     1       4.995   0.046  19.140  0.00  0.00    +0.000 HD
ENDBRANCH  24  26
ENDBRANCH   2  24
TORSDOF 7
ENDMDL
MODEL 9
REMARK VINA RESULT:      -7.0      2.435      7.307
REMARK  Name = 
REMARK  8 active torsions:
REMARK  status: ('A' for Active; 'I' for Inactive)
REMARK    1  A    between atoms: C_1  and  O_2
REMARK    2  A    between atoms: O_2  and  C_3
REMARK    3  A    between atoms: C_3  and  C_5
REMARK    4  A    between atoms: CA_6  and  C_7
REMARK    5  A    between atoms: C_7  and  OXT_9
REMARK    6  A    between atoms: CA_13  and  N_14
REMARK    7  A    between atoms: C_15  and  C_17
REMARK    8  A    between atoms: C_17  and  C_18
REMARK                            x       y       z     vdW  Elec       q    Type
REMARK                         _______ _______ _______ _____ _____    ______ ____
ROOT
ATOM      1  C   UNL     1       5.670   4.329  16.175  0.00  0.00    +0.000 C 
ATOM      2  CA  UNL     1       6.228   4.396  17.396  0.00  0.00    +0.000 C 
ATOM      3  N   UNL     1       5.290   4.148  18.394  0.00  0.00    +0.000 N 
ATOM      4  C   UNL     1       4.823   5.191  19.149  0.00  0.00    +0.000 C 
ATOM      5  O   UNL     1       5.455   6.015  19.771  0.00  0.00    +0.000 OA
ATOM      6  CA  UNL     1       3.378   5.021  18.639  0.00  0.00    +0.000 C 
ATOM      7  C   UNL     1       3.964   3.874  17.756  0.00  0.00    +0.000 C 
ATOM      8  C   UNL     1       4.205   3.981  16.255  0.00  0.00    +0.000 C 
ENDROOT
BRANCH   6   9
ATOM      9  N   UNL     1       2.829   6.187  17.904  0.00  0.00    +0.000 N 
ATOM     10  C   UNL     1       2.332   7.274  18.590  0.00  0.00    +0.000 C 
ATOM     11  O   UNL     1       2.312   7.309  19.819  0.00  0.00    +0.000 OA
ATOM     12  H   UNL     1       2.970   6.282  16.902  0.00  0.00    +0.000 HD
BRANCH  10  13
ATOM     13  C   UNL     1       1.777   8.379  17.715  0.00  0.00    +0.000 C 
BRANCH  13  14
ATOM     14  C   UNL     1       1.457   9.645  18.469  0.00  0.00    +0.000 A 
ATOM     15  C   UNL     1       2.112  10.846  18.155  0.00  0.00    +0.000 A 
ATOM     16  C   UNL     1       1.801  12.021  18.841  0.00  0.00    +0.000 A 
ATOM     17  C   UNL     1       0.825  12.014  19.835  0.00  0.00    +0.000 A 
ATOM     18  C   UNL     1       0.160  10.830  20.145  0.00  0.00    +0.000 A 
ATOM     19  C   UNL     1       0.475   9.651  19.469  0.00  0.00    +0.000 A 
ENDBRANCH  13  14
ENDBRANCH  10  13
ENDBRANCH   6   9
BRANCH   1  20
ATOM     20  C   UNL     1       6.191   4.597  14.823  0.00  0.00    +0.000 C 
ATOM     21  O   UNL     1       6.559   5.706  14.472  0.00  0.00    +0.000 OA
BRANCH  20  23
ATOM     22  C   UNL     1       6.344   3.705  12.660  0.00  0.00    +0.000 C 
ATOM     23  O   UNL     1       6.168   3.497  14.057  0.00  0.00    +0.000 OA
ENDBRANCH  20  23
ENDBRANCH   1  20
BRANCH   2  24
ATOM     24  C   UNL     1       7.645   4.740  17.767  0.00  0.00    +0.000 C 
ATOM     25  O   UNL     1       8.563   3.941  17.844  0.00  0.00    +0.000 OA
BRANCH  24  26
ATOM     26  OXT UNL     1       7.848   6.036  18.089  0.00  0.00    +0.000 OA
ATOM     27  HXT UNL     1       7.134   6.660  17.834  0.00  0.00    +0.000 HD
ENDBRANCH  24  26
ENDBRANCH   2  24
TORSDOF 7
ENDMDL
