MODEL 1
REMARK VINA RESULT:      -8.5      0.000      0.000
REMARK  Name = 
REMARK  6 active torsions:
REMARK  status: ('A' for Active; 'I' for Inactive)
REMARK    1  A    between atoms: C_1  and  C_2
REMARK    2  A    between atoms: C_2  and  O_3
REMARK    3  A    between atoms: O_3  and  C_4
REMARK    4  A    between atoms: C_4  and  C_6
REMARK    5  A    between atoms: N_10  and  S_11
REMARK    6  A    between atoms: S_11  and  C_14
REMARK                            x       y       z     vdW  Elec       q    Type
REMARK                         _______ _______ _______ _____ _____    ______ ____
ROOT
ATOM      1  S   UNL     1       3.430   4.913  18.518  0.00  0.00    +0.000 S 
ATOM      2  O   UNL     1       2.843   4.524  17.254  0.00  0.00    +0.000 OA
ATOM      3  O   UNL     1       3.327   4.067  19.685  0.00  0.00    +0.000 OA
ENDROOT
BRANCH   1   4
ATOM      4  C   UNL     1       2.744   6.491  18.999  0.00  0.00    +0.000 A 
ATOM      5  C   UNL     1       2.167   6.614  20.287  0.00  0.00    +0.000 A 
ATOM      6  C   UNL     1       1.497   7.786  20.635  0.00  0.00    +0.000 A 
ATOM      7  C   UNL     1       1.458   8.787  19.685  0.00  0.00    +0.000 A 
ATOM      8  C   UNL     1       2.039   8.701  18.428  0.00  0.00    +0.000 A 
ATOM      9  C   UNL     1       2.675   7.531  18.054  0.00  0.00    +0.000 A 
ATOM     10  C   UNL     1       1.813   9.974  17.669  0.00  0.00    +0.000 C 
ATOM     11  C   UNL     1       1.096  10.865  18.715  0.00  0.00    +0.000 C 
ATOM     12  N   UNL     1       0.846  10.013  19.876  0.00  0.00    +0.000 N 
ATOM     13  C   UNL     1       0.124  10.330  20.995  0.00  0.00    +0.000 C 
ATOM     14  O   UNL     1      -0.320  11.452  21.219  0.00  0.00    +0.000 OA
ATOM     15  C   UNL     1      -0.223   9.134  21.879  0.00  0.00    +0.000 C 
ATOM     16  C   UNL     1       0.886   8.078  21.974  0.00  0.00    +0.000 C 
ENDBRANCH   1   4
BRANCH   1  21
ATOM     17  C   UNL     1       6.764   6.437  16.793  0.00  0.00    +0.000 C 
ATOM     18  C   UNL     1       7.627   6.707  18.029  0.00  0.00    +0.000 C 
ATOM     19  C   UNL     1       7.361   5.723  19.169  0.00  0.00    +0.000 C 
ATOM     20  C   UNL     1       5.875   5.552  19.474  0.00  0.00    +0.000 C 
ATOM     21  N   UNL     1       5.099   5.265  18.231  0.00  0.00    +0.000 NA
ATOM     22  C   UNL     1       5.291   6.326  17.191  0.00  0.00    +0.000 C 
BRANCH  17  23
ATOM     23  C   UNL     1       7.130   5.213  15.964  0.00  0.00    +0.000 C 
ATOM     24  O   UNL     1       7.903   4.348  16.358  0.00  0.00    +0.000 OA
BRANCH  23  25
ATOM     25  O   UNL     1       6.562   5.229  14.730  0.00  0.00    +0.000 OA
BRANCH  25  27
ATOM     26  C   UNL     1       6.219   3.726  12.850  0.00  0.00    +0.000 C 
ATOM     27  C   UNL     1       5.932   4.011  14.309  0.00  0.00    +0.000 C 
ENDBRANCH  25  27
ENDBRANCH  23  25
ENDBRANCH  17  23
ENDBRANCH   1  21
TORSDOF 5
ENDMDL
MODEL 2
REMARK VINA RESULT:      -8.4      1.338      2.623
REMARK  Name = 
REMARK  6 active torsions:
REMARK  status: ('A' for Active; 'I' for Inactive)
REMARK    1  A    between atoms: C_1  and  C_2
REMARK    2  A    between atoms: C_2  and  O_3
REMARK    3  A    between atoms: O_3  and  C_4
REMARK    4  A    between atoms: C_4  and  C_6
REMARK    5  A    between atoms: N_10  and  S_11
REMARK    6  A    between atoms: S_11  and  C_14
REMARK                            x       y       z     vdW  Elec       q    Type
REMARK                         _______ _______ _______ _____ _____    ______ ____
ROOT
ATOM      1  S   UNL     1       3.154   4.555  18.727  0.00  0.00    +0.000 S 
ATOM      2  O   UNL     1       2.109   3.896  17.973  0.00  0.00    +0.000 OA
ATOM      3  O   UNL     1       3.638   4.008  19.974  0.00  0.00    +0.000 OA
ENDROOT
BRANCH   1   4
ATOM      4  C   UNL     1       2.619   6.218  19.101  0.00  0.00    +0.000 A 
ATOM      5  C   UNL     1       2.024   6.470  20.362  0.00  0.00    +0.000 A 
ATOM      6  C   UNL     1       1.467   7.722  20.625  0.00  0.00    +0.000 A 
ATOM      7  C   UNL     1       1.556   8.667  19.622  0.00  0.00    +0.000 A 
ATOM      8  C   UNL     1       2.157   8.452  18.391  0.00  0.00    +0.000 A 
ATOM      9  C   UNL     1       2.681   7.205  18.100  0.00  0.00    +0.000 A 
ATOM     10  C   UNL     1       2.081   9.696  17.558  0.00  0.00    +0.000 C 
ATOM     11  C   UNL     1       1.432  10.712  18.531  0.00  0.00    +0.000 C 
ATOM     12  N   UNL     1       1.066   9.957  19.727  0.00  0.00    +0.000 N 
ATOM     13  C   UNL     1       0.351  10.406  20.805  0.00  0.00    +0.000 C 
ATOM     14  O   UNL     1       0.017  11.578  20.954  0.00  0.00    +0.000 OA
ATOM     15  C   UNL     1      -0.139   9.303  21.740  0.00  0.00    +0.000 C 
ATOM     16  C   UNL     1       0.854   8.148  21.926  0.00  0.00    +0.000 C 
ENDBRANCH   1   4
BRANCH   1  21
ATOM     17  C   UNL     1       6.893   5.434  17.443  0.00  0.00    +0.000 C 
ATOM     18  C   UNL     1       7.057   4.410  16.316  0.00  0.00    +0.000 C 
ATOM     19  C   UNL     1       5.736   4.069  15.625  0.00  0.00    +0.000 C 
ATOM     20  C   UNL     1       4.616   3.737  16.609  0.00  0.00    +0.000 C 
ATOM     21  N   UNL     1       4.496   4.788  17.662  0.00  0.00    +0.000 NA
ATOM     22  C   UNL     1       5.784   4.994  18.399  0.00  0.00    +0.000 C 
BRANCH  17  23
ATOM     23  C   UNL     1       6.621   6.872  17.021  0.00  0.00    +0.000 C 
ATOM     24  O   UNL     1       5.515   7.264  16.668  0.00  0.00    +0.000 OA
BRANCH  23  25
ATOM     25  O   UNL     1       7.743   7.636  17.015  0.00  0.00    +0.000 OA
BRANCH  25  27
ATOM     26  C   UNL     1       8.543   9.560  18.269  0.00  0.00    +0.000 C 
ATOM     27  C   UNL     1       8.210   8.083  18.296  0.00  0.00    +0.000 C 
ENDBRANCH  25  27
ENDBRANCH  23  25
ENDBRANCH  17  23
ENDBRANCH   1  21
TORSDOF 5
ENDMDL
MODEL 3
REMARK VINA RESULT:      -8.4      2.441      4.648
REMARK  Name = 
REMARK  6 active torsions:
REMARK  status: ('A' for Active; 'I' for Inactive)
REMARK    1  A    between atoms: C_1  and  C_2
REMARK    2  A    between atoms: C_2  and  O_3
REMARK    3  A    between atoms: O_3  and  C_4
REMARK    4  A    between atoms: C_4  and  C_6
REMARK    5  A    between atoms: N_10  and  S_11
REMARK    6  A    between atoms: S_11  and  C_14
REMARK                            x       y       z     vdW  Elec       q    Type
REMARK                         _______ _______ _______ _____ _____    ______ ____
ROOT
ATOM      1  S   UNL     1       4.526   5.777  17.847  0.00  0.00    +0.000 S 
ATOM      2  O   UNL     1       5.770   6.067  18.528  0.00  0.00    +0.000 OA
ATOM      3  O   UNL     1       4.425   5.844  16.407  0.00  0.00    +0.000 OA
ENDROOT
BRANCH   1   4
ATOM      4  C   UNL     1       3.268   6.879  18.475  0.00  0.00    +0.000 A 
ATOM      5  C   UNL     1       3.029   8.095  17.788  0.00  0.00    +0.000 A 
ATOM      6  C   UNL     1       2.159   9.038  18.335  0.00  0.00    +0.000 A 
ATOM      7  C   UNL     1       1.551   8.706  19.529  0.00  0.00    +0.000 A 
ATOM      8  C   UNL     1       1.747   7.511  20.205  0.00  0.00    +0.000 A 
ATOM      9  C   UNL     1       2.635   6.581  19.697  0.00  0.00    +0.000 A 
ATOM     10  C   UNL     1       0.919   7.487  21.455  0.00  0.00    +0.000 C 
ATOM     11  C   UNL     1       0.123   8.813  21.357  0.00  0.00    +0.000 C 
ATOM     12  N   UNL     1       0.653   9.522  20.195  0.00  0.00    +0.000 N 
ATOM     13  C   UNL     1       0.347  10.794  19.790  0.00  0.00    +0.000 C 
ATOM     14  O   UNL     1      -0.533  11.476  20.308  0.00  0.00    +0.000 OA
ATOM     15  C   UNL     1       1.293  11.365  18.736  0.00  0.00    +0.000 C 
ATOM     16  C   UNL     1       1.772  10.340  17.699  0.00  0.00    +0.000 C 
ENDBRANCH   1   4
BRANCH   1  21
ATOM     17  C   UNL     1       2.722   2.150  17.806  0.00  0.00    +0.000 C 
ATOM     18  C   UNL     1       3.733   1.319  18.603  0.00  0.00    +0.000 C 
ATOM     19  C   UNL     1       4.476   2.137  19.659  0.00  0.00    +0.000 C 
ATOM     20  C   UNL     1       5.041   3.446  19.111  0.00  0.00    +0.000 C 
ATOM     21  N   UNL     1       3.998   4.215  18.371  0.00  0.00    +0.000 NA
ATOM     22  C   UNL     1       3.390   3.414  17.262  0.00  0.00    +0.000 C 
BRANCH  17  23
ATOM     23  C   UNL     1       1.450   2.557  18.539  0.00  0.00    +0.000 C 
ATOM     24  O   UNL     1       0.593   3.275  18.037  0.00  0.00    +0.000 OA
BRANCH  23  25
ATOM     25  O   UNL     1       1.412   2.094  19.815  0.00  0.00    +0.000 OA
BRANCH  25  27
ATOM     26  C   UNL     1       2.101   3.485  21.687  0.00  0.00    +0.000 C 
ATOM     27  C   UNL     1       0.956   3.022  20.810  0.00  0.00    +0.000 C 
ENDBRANCH  25  27
ENDBRANCH  23  25
ENDBRANCH  17  23
ENDBRANCH   1  21
TORSDOF 5
ENDMDL
MODEL 4
REMARK VINA RESULT:      -8.3      1.362      2.522
REMARK  Name = 
REMARK  6 active torsions:
REMARK  status: ('A' for Active; 'I' for Inactive)
REMARK    1  A    between atoms: C_1  and  C_2
REMARK    2  A    between atoms: C_2  and  O_3
REMARK    3  A    between atoms: O_3  and  C_4
REMARK    4  A    between atoms: C_4  and  C_6
REMARK    5  A    between atoms: N_10  and  S_11
REMARK    6  A    between atoms: S_11  and  C_14
REMARK                            x       y       z     vdW  Elec       q    Type
REMARK                         _______ _______ _______ _____ _____    ______ ____
ROOT
ATOM      1  S   UNL     1       3.092   4.846  18.618  0.00  0.00    +0.000 S 
ATOM      2  O   UNL     1       2.185   4.325  17.618  0.00  0.00    +0.000 OA
ATOM      3  O   UNL     1       3.309   4.154  19.868  0.00  0.00    +0.000 OA
ENDROOT
BRANCH   1   4
ATOM      4  C   UNL     1       2.561   6.494  19.059  0.00  0.00    +0.000 A 
ATOM      5  C   UNL     1       2.028   6.709  20.355  0.00  0.00    +0.000 A 
ATOM      6  C   UNL     1       1.474   7.947  20.677  0.00  0.00    +0.000 A 
ATOM      7  C   UNL     1       1.502   8.917  19.694  0.00  0.00    +0.000 A 
ATOM      8  C   UNL     1       2.043   8.739  18.430  0.00  0.00    +0.000 A 
ATOM      9  C   UNL     1       2.563   7.506  18.081  0.00  0.00    +0.000 A 
ATOM     10  C   UNL     1       1.913  10.003  17.633  0.00  0.00    +0.000 C 
ATOM     11  C   UNL     1       1.304  10.988  18.663  0.00  0.00    +0.000 C 
ATOM     12  N   UNL     1       1.007  10.199  19.856  0.00  0.00    +0.000 N 
ATOM     13  C   UNL     1       0.343  10.614  20.979  0.00  0.00    +0.000 C 
ATOM     14  O   UNL     1       0.006  11.779  21.175  0.00  0.00    +0.000 OA
ATOM     15  C   UNL     1      -0.089   9.483  21.910  0.00  0.00    +0.000 C 
ATOM     16  C   UNL     1       0.923   8.335  22.017  0.00  0.00    +0.000 C 
ENDBRANCH   1   4
BRANCH   1  21
ATOM     17  C   UNL     1       7.048   4.541  17.804  0.00  0.00    +0.000 C 
ATOM     18  C   UNL     1       7.036   4.652  16.276  0.00  0.00    +0.000 C 
ATOM     19  C   UNL     1       5.895   5.525  15.752  0.00  0.00    +0.000 C 
ATOM     20  C   UNL     1       4.542   5.167  16.361  0.00  0.00    +0.000 C 
ATOM     21  N   UNL     1       4.621   5.102  17.850  0.00  0.00    +0.000 NA
ATOM     22  C   UNL     1       5.666   4.135  18.316  0.00  0.00    +0.000 C 
BRANCH  17  23
ATOM     23  C   UNL     1       7.501   5.776  18.571  0.00  0.00    +0.000 C 
ATOM     24  O   UNL     1       7.310   5.921  19.773  0.00  0.00    +0.000 OA
BRANCH  23  25
ATOM     25  O   UNL     1       8.069   6.711  17.767  0.00  0.00    +0.000 OA
BRANCH  25  27
ATOM     26  C   UNL     1       8.337   9.107  18.086  0.00  0.00    +0.000 C 
ATOM     27  C   UNL     1       7.402   7.979  17.702  0.00  0.00    +0.000 C 
ENDBRANCH  25  27
ENDBRANCH  23  25
ENDBRANCH  17  23
ENDBRANCH   1  21
TORSDOF 5
ENDMDL
MODEL 5
REMARK VINA RESULT:      -8.2      1.505      3.303
REMARK  Name = 
REMARK  6 active torsions:
REMARK  status: ('A' for Active; 'I' for Inactive)
REMARK    1  A    between atoms: C_1  and  C_2
REMARK    2  A    between atoms: C_2  and  O_3
REMARK    3  A    between atoms: O_3  and  C_4
REMARK    4  A    between atoms: C_4  and  C_6
REMARK    5  A    between atoms: N_10  and  S_11
REMARK    6  A    between atoms: S_11  and  C_14
REMARK                            x       y       z     vdW  Elec       q    Type
REMARK                         _______ _______ _______ _____ _____    ______ ____
ROOT
ATOM      1  S   UNL     1       3.142   4.321  18.878  0.00  0.00    +0.000 S 
ATOM      2  O   UNL     1       2.201   3.536  18.108  0.00  0.00    +0.000 OA
ATOM      3  O   UNL     1       3.642   3.856  20.151  0.00  0.00    +0.000 OA
ENDROOT
BRANCH   1   4
ATOM      4  C   UNL     1       2.418   5.923  19.195  0.00  0.00    +0.000 A 
ATOM      5  C   UNL     1       2.454   6.898  18.167  0.00  0.00    +0.000 A 
ATOM      6  C   UNL     1       2.027   8.198  18.434  0.00  0.00    +0.000 A 
ATOM      7  C   UNL     1       1.562   8.453  19.709  0.00  0.00    +0.000 A 
ATOM      8  C   UNL     1       1.491   7.509  20.722  0.00  0.00    +0.000 A 
ATOM      9  C   UNL     1       1.945   6.224  20.486  0.00  0.00    +0.000 A 
ATOM     10  C   UNL     1       0.926   8.130  21.964  0.00  0.00    +0.000 C 
ATOM     11  C   UNL     1       0.577   9.565  21.493  0.00  0.00    +0.000 C 
ATOM     12  N   UNL     1       1.092   9.684  20.131  0.00  0.00    +0.000 N 
ATOM     13  C   UNL     1       1.130  10.812  19.356  0.00  0.00    +0.000 C 
ATOM     14  O   UNL     1       0.609  11.875  19.681  0.00  0.00    +0.000 OA
ATOM     15  C   UNL     1       2.010  10.693  18.113  0.00  0.00    +0.000 C 
ATOM     16  C   UNL     1       1.960   9.316  17.436  0.00  0.00    +0.000 C 
ENDBRANCH   1   4
BRANCH   1  21
ATOM     17  C   UNL     1       6.795   5.602  17.682  0.00  0.00    +0.000 C 
ATOM     18  C   UNL     1       7.120   4.567  16.600  0.00  0.00    +0.000 C 
ATOM     19  C   UNL     1       5.876   4.045  15.881  0.00  0.00    +0.000 C 
ATOM     20  C   UNL     1       4.769   3.614  16.841  0.00  0.00    +0.000 C 
ATOM     21  N   UNL     1       4.486   4.678  17.848  0.00  0.00    +0.000 NA
ATOM     22  C   UNL     1       5.712   5.064  18.618  0.00  0.00    +0.000 C 
BRANCH  17  23
ATOM     23  C   UNL     1       6.368   6.981  17.196  0.00  0.00    +0.000 C 
ATOM     24  O   UNL     1       5.205   7.262  16.929  0.00  0.00    +0.000 OA
BRANCH  23  25
ATOM     25  O   UNL     1       7.418   7.825  17.030  0.00  0.00    +0.000 OA
BRANCH  25  27
ATOM     26  C   UNL     1       8.568   9.588  18.247  0.00  0.00    +0.000 C 
ATOM     27  C   UNL     1       8.180   8.125  18.208  0.00  0.00    +0.000 C 
ENDBRANCH  25  27
ENDBRANCH  23  25
ENDBRANCH  17  23
ENDBRANCH   1  21
TORSDOF 5
ENDMDL
MODEL 6
REMARK VINA RESULT:      -8.1      0.648      2.047
REMARK  Name = 
REMARK  6 active torsions:
REMARK  status: ('A' for Active; 'I' for Inactive)
REMARK    1  A    between atoms: C_1  and  C_2
REMARK    2  A    between atoms: C_2  and  O_3
REMARK    3  A    between atoms: O_3  and  C_4
REMARK    4  A    between atoms: C_4  and  C_6
REMARK    5  A    between atoms: N_10  and  S_11
REMARK    6  A    between atoms: S_11  and  C_14
REMARK                            x       y       z     vdW  Elec       q    Type
REMARK                         _______ _______ _______ _____ _____    ______ ____
ROOT
ATOM      1  S   UNL     1       3.264   4.521  18.622  0.00  0.00    +0.000 S 
ATOM      2  O   UNL     1       2.666   4.026  17.400  0.00  0.00    +0.000 OA
ATOM      3  O   UNL     1       3.248   3.738  19.836  0.00  0.00    +0.000 OA
ENDROOT
BRANCH   1   4
ATOM      4  C   UNL     1       2.492   6.078  19.038  0.00  0.00    +0.000 A 
ATOM      5  C   UNL     1       2.491   7.113  18.070  0.00  0.00    +0.000 A 
ATOM      6  C   UNL     1       2.027   8.381  18.415  0.00  0.00    +0.000 A 
ATOM      7  C   UNL     1       1.563   8.545  19.706  0.00  0.00    +0.000 A 
ATOM      8  C   UNL     1       1.530   7.542  20.662  0.00  0.00    +0.000 A 
ATOM      9  C   UNL     1       2.020   6.287  20.347  0.00  0.00    +0.000 A 
ATOM     10  C   UNL     1       0.954   8.070  21.942  0.00  0.00    +0.000 C 
ATOM     11  C   UNL     1       0.558   9.518  21.559  0.00  0.00    +0.000 C 
ATOM     12  N   UNL     1       1.059   9.734  20.203  0.00  0.00    +0.000 N 
ATOM     13  C   UNL     1       1.057  10.906  19.496  0.00  0.00    +0.000 C 
ATOM     14  O   UNL     1       0.506  11.932  19.887  0.00  0.00    +0.000 OA
ATOM     15  C   UNL     1       1.930  10.888  18.244  0.00  0.00    +0.000 C 
ATOM     16  C   UNL     1       1.917   9.554  17.486  0.00  0.00    +0.000 C 
ENDBRANCH   1   4
BRANCH   1  21
ATOM     17  C   UNL     1       6.467   5.977  16.614  0.00  0.00    +0.000 C 
ATOM     18  C   UNL     1       7.289   6.557  17.769  0.00  0.00    +0.000 C 
ATOM     19  C   UNL     1       7.099   5.791  19.079  0.00  0.00    +0.000 C 
ATOM     20  C   UNL     1       5.631   5.548  19.421  0.00  0.00    +0.000 C 
ATOM     21  N   UNL     1       4.898   4.959  18.262  0.00  0.00    +0.000 NA
ATOM     22  C   UNL     1       5.006   5.813  17.036  0.00  0.00    +0.000 C 
BRANCH  17  23
ATOM     23  C   UNL     1       6.949   4.655  16.033  0.00  0.00    +0.000 C 
ATOM     24  O   UNL     1       7.978   4.101  16.403  0.00  0.00    +0.000 OA
BRANCH  23  25
ATOM     25  O   UNL     1       6.156   4.205  15.027  0.00  0.00    +0.000 OA
BRANCH  25  27
ATOM     26  C   UNL     1       5.955   3.479  12.715  0.00  0.00    +0.000 C 
ATOM     27  C   UNL     1       6.652   4.400  13.696  0.00  0.00    +0.000 C 
ENDBRANCH  25  27
ENDBRANCH  23  25
ENDBRANCH  17  23
ENDBRANCH   1  21
TORSDOF 5
ENDMDL
MODEL 7
REMARK VINA RESULT:      -8.1      2.379      4.199
REMARK  Name = 
REMARK  6 active torsions:
REMARK  status: ('A' for Active; 'I' for Inactive)
REMARK    1  A    between atoms: C_1  and  C_2
REMARK    2  A    between atoms: C_2  and  O_3
REMARK    3  A    between atoms: O_3  and  C_4
REMARK    4  A    between atoms: C_4  and  C_6
REMARK    5  A    between atoms: N_10  and  S_11
REMARK    6  A    between atoms: S_11  and  C_14
REMARK                            x       y       z     vdW  Elec       q    Type
REMARK                         _______ _______ _______ _____ _____    ______ ____
ROOT
ATOM      1  S   UNL     1       4.688   5.848  17.664  0.00  0.00    +0.000 S 
ATOM      2  O   UNL     1       5.992   6.040  18.263  0.00  0.00    +0.000 OA
ATOM      3  O   UNL     1       4.503   5.918  16.233  0.00  0.00    +0.000 OA
ENDROOT
BRANCH   1   4
ATOM      4  C   UNL     1       3.564   7.051  18.359  0.00  0.00    +0.000 A 
ATOM      5  C   UNL     1       2.908   6.740  19.576  0.00  0.00    +0.000 A 
ATOM      6  C   UNL     1       1.920   7.594  20.065  0.00  0.00    +0.000 A 
ATOM      7  C   UNL     1       1.655   8.729  19.325  0.00  0.00    +0.000 A 
ATOM      8  C   UNL     1       2.302   9.068  18.147  0.00  0.00    +0.000 A 
ATOM      9  C   UNL     1       3.259   8.214  17.628  0.00  0.00    +0.000 A 
ATOM     10  C   UNL     1       1.771  10.370  17.625  0.00  0.00    +0.000 C 
ATOM     11  C   UNL     1       0.780  10.797  18.736  0.00  0.00    +0.000 C 
ATOM     12  N   UNL     1       0.716   9.682  19.679  0.00  0.00    +0.000 N 
ATOM     13  C   UNL     1      -0.124   9.552  20.752  0.00  0.00    +0.000 C 
ATOM     14  O   UNL     1      -0.875  10.444  21.136  0.00  0.00    +0.000 OA
ATOM     15  C   UNL     1      -0.172   8.147  21.347  0.00  0.00    +0.000 C 
ATOM     16  C   UNL     1       1.181   7.422  21.360  0.00  0.00    +0.000 C 
ENDBRANCH   1   4
BRANCH   1  21
ATOM     17  C   UNL     1       2.727   2.304  17.708  0.00  0.00    +0.000 C 
ATOM     18  C   UNL     1       3.667   1.468  18.581  0.00  0.00    +0.000 C 
ATOM     19  C   UNL     1       4.404   2.301  19.631  0.00  0.00    +0.000 C 
ATOM     20  C   UNL     1       5.048   3.558  19.049  0.00  0.00    +0.000 C 
ATOM     21  N   UNL     1       4.070   4.336  18.234  0.00  0.00    +0.000 NA
ATOM     22  C   UNL     1       3.471   3.512  17.136  0.00  0.00    +0.000 C 
BRANCH  17  23
ATOM     23  C   UNL     1       1.446   2.799  18.368  0.00  0.00    +0.000 C 
ATOM     24  O   UNL     1       0.740   3.673  17.880  0.00  0.00    +0.000 OA
BRANCH  23  25
ATOM     25  O   UNL     1       1.220   2.214  19.573  0.00  0.00    +0.000 OA
BRANCH  25  27
ATOM     26  C   UNL     1       1.917   3.705  21.363  0.00  0.00    +0.000 C 
ATOM     27  C   UNL     1       0.756   3.080  20.618  0.00  0.00    +0.000 C 
ENDBRANCH  25  27
ENDBRANCH  23  25
ENDBRANCH  17  23
ENDBRANCH   1  21
TORSDOF 5
ENDMDL
MODEL 8
REMARK VINA RESULT:      -7.9      3.013      7.576
REMARK  Name = 
REMARK  6 active torsions:
REMARK  status: ('A' for Active; 'I' for Inactive)
REMARK    1  A    between atoms: C_1  and  C_2
REMARK    2  A    between atoms: C_2  and  O_3
REMARK    3  A    between atoms: O_3  and  C_4
REMARK    4  A    between atoms: C_4  and  C_6
REMARK    5  A    between atoms: N_10  and  S_11
REMARK    6  A    between atoms: S_11  and  C_14
REMARK                            x       y       z     vdW  Elec       q    Type
REMARK                         _______ _______ _______ _____ _____    ______ ____
ROOT
ATOM      1  S   UNL     1       0.667   9.149  21.405  0.00  0.00    +0.000 S 
ATOM      2  O   UNL     1       1.715   9.771  22.186  0.00  0.00    +0.000 OA
ATOM      3  O   UNL     1      -0.545   8.666  22.025  0.00  0.00    +0.000 OA
ENDROOT
BRANCH   1   4
ATOM      4  C   UNL     1       1.363   7.748  20.541  0.00  0.00    +0.000 A 
ATOM      5  C   UNL     1       1.194   6.457  21.100  0.00  0.00    +0.000 A 
ATOM      6  C   UNL     1       1.847   5.366  20.527  0.00  0.00    +0.000 A 
ATOM      7  C   UNL     1       2.617   5.617  19.408  0.00  0.00    +0.000 A 
ATOM      8  C   UNL     1       2.774   6.867  18.827  0.00  0.00    +0.000 A 
ATOM      9  C   UNL     1       2.164   7.965  19.404  0.00  0.00    +0.000 A 
ATOM     10  C   UNL     1       3.664   6.766  17.624  0.00  0.00    +0.000 C 
ATOM     11  C   UNL     1       3.923   5.241  17.526  0.00  0.00    +0.000 C 
ATOM     12  N   UNL     1       3.317   4.646  18.715  0.00  0.00    +0.000 N 
ATOM     13  C   UNL     1       3.402   3.342  19.123  0.00  0.00    +0.000 C 
ATOM     14  O   UNL     1       3.923   2.455  18.452  0.00  0.00    +0.000 OA
ATOM     15  C   UNL     1       2.936   3.099  20.557  0.00  0.00    +0.000 C 
ATOM     16  C   UNL     1       1.722   3.940  20.975  0.00  0.00    +0.000 C 
ENDBRANCH   1   4
BRANCH   1  21
ATOM     17  C   UNL     1      -1.585  11.425  18.924  0.00  0.00    +0.000 C 
ATOM     18  C   UNL     1      -0.665  12.634  18.731  0.00  0.00    +0.000 C 
ATOM     19  C   UNL     1       0.819  12.271  18.805  0.00  0.00    +0.000 C 
ATOM     20  C   UNL     1       1.163  11.415  20.022  0.00  0.00    +0.000 C 
ATOM     21  N   UNL     1       0.246  10.243  20.134  0.00  0.00    +0.000 NA
ATOM     22  C   UNL     1      -1.192  10.659  20.188  0.00  0.00    +0.000 C 
BRANCH  17  23
ATOM     23  C   UNL     1      -1.660  10.437  17.768  0.00  0.00    +0.000 C 
ATOM     24  O   UNL     1      -0.711   9.743  17.422  0.00  0.00    +0.000 OA
BRANCH  23  25
ATOM     25  O   UNL     1      -2.861  10.464  17.135  0.00  0.00    +0.000 OA
BRANCH  25  27
ATOM     26  C   UNL     1      -3.034  10.084  14.739  0.00  0.00    +0.000 C 
ATOM     27  C   UNL     1      -2.885  11.102  15.850  0.00  0.00    +0.000 C 
ENDBRANCH  25  27
ENDBRANCH  23  25
ENDBRANCH  17  23
ENDBRANCH   1  21
TORSDOF 5
ENDMDL
MODEL 9
REMARK VINA RESULT:      -7.8      1.479      2.612
REMARK  Name = 
REMARK  6 active torsions:
REMARK  status: ('A' for Active; 'I' for Inactive)
REMARK    1  A    between atoms: C_1  and  C_2
REMARK    2  A    between atoms: C_2  and  O_3
REMARK    3  A    between atoms: O_3  and  C_4
REMARK    4  A    between atoms: C_4  and  C_6
REMARK    5  A    between atoms: N_10  and  S_11
REMARK    6  A    between atoms: S_11  and  C_14
REMARK                            x       y       z     vdW  Elec       q    Type
REMARK                         _______ _______ _______ _____ _____    ______ ____
ROOT
ATOM      1  S   UNL     1       2.605   4.736  19.348  0.00  0.00    +0.000 S 
ATOM      2  O   UNL     1       1.388   4.047  18.975  0.00  0.00    +0.000 OA
ATOM      3  O   UNL     1       3.362   4.342  20.515  0.00  0.00    +0.000 OA
ENDROOT
BRANCH   1   4
ATOM      4  C   UNL     1       2.229   6.467  19.573  0.00  0.00    +0.000 A 
ATOM      5  C   UNL     1       1.703   6.889  20.820  0.00  0.00    +0.000 A 
ATOM      6  C   UNL     1       1.265   8.204  20.975  0.00  0.00    +0.000 A 
ATOM      7  C   UNL     1       1.399   9.039  19.883  0.00  0.00    +0.000 A 
ATOM      8  C   UNL     1       1.936   8.657  18.663  0.00  0.00    +0.000 A 
ATOM      9  C   UNL     1       2.341   7.347  18.480  0.00  0.00    +0.000 A 
ATOM     10  C   UNL     1       1.939   9.819  17.716  0.00  0.00    +0.000 C 
ATOM     11  C   UNL     1       1.414  10.976  18.603  0.00  0.00    +0.000 C 
ATOM     12  N   UNL     1       1.027  10.372  19.876  0.00  0.00    +0.000 N 
ATOM     13  C   UNL     1       0.391  10.982  20.924  0.00  0.00    +0.000 C 
ATOM     14  O   UNL     1       0.165  12.188  20.968  0.00  0.00    +0.000 OA
ATOM     15  C   UNL     1      -0.159  10.020  21.974  0.00  0.00    +0.000 C 
ATOM     16  C   UNL     1       0.737   8.804  22.245  0.00  0.00    +0.000 C 
ENDBRANCH   1   4
BRANCH   1  21
ATOM     17  C   UNL     1       5.963   5.091  17.111  0.00  0.00    +0.000 C 
ATOM     18  C   UNL     1       5.762   3.949  16.110  0.00  0.00    +0.000 C 
ATOM     19  C   UNL     1       4.289   3.680  15.801  0.00  0.00    +0.000 C 
ATOM     20  C   UNL     1       3.428   3.565  17.057  0.00  0.00    +0.000 C 
ATOM     21  N   UNL     1       3.654   4.722  17.973  0.00  0.00    +0.000 NA
ATOM     22  C   UNL     1       5.097   4.866  18.350  0.00  0.00    +0.000 C 
BRANCH  17  23
ATOM     23  C   UNL     1       5.705   6.500  16.594  0.00  0.00    +0.000 C 
ATOM     24  O   UNL     1       5.209   6.727  15.497  0.00  0.00    +0.000 OA
BRANCH  23  25
ATOM     25  O   UNL     1       6.143   7.459  17.450  0.00  0.00    +0.000 OA
BRANCH  25  27
ATOM     26  C   UNL     1       8.240   7.346  18.675  0.00  0.00    +0.000 C 
ATOM     27  C   UNL     1       7.544   7.762  17.396  0.00  0.00    +0.000 C 
ENDBRANCH  25  27
ENDBRANCH  23  25
ENDBRANCH  17  23
ENDBRANCH   1  21
TORSDOF 5
ENDMDL
