MODEL 1
REMARK VINA RESULT:      -7.3      0.000      0.000
REMARK  Name = 
REMARK  3 active torsions:
REMARK  status: ('A' for Active; 'I' for Inactive)
REMARK    1  A    between atoms: C_1  and  C_2
REMARK    2  A    between atoms: N_6  and  S_7
REMARK    3  A    between atoms: S_7  and  C_10
REMARK                            x       y       z     vdW  Elec       q    Type
REMARK                         _______ _______ _______ _____ _____    ______ ____
ROOT
ATOM      1  S   UNL     1       2.700   2.973  18.054  0.00  0.00    +0.000 S 
ATOM      2  O   UNL     1       2.272   3.048  16.671  0.00  0.00    +0.000 OA
ATOM      3  O   UNL     1       2.163   1.967  18.944  0.00  0.00    +0.000 OA
ENDROOT
BRANCH   1   9
ATOM      4  C   UNL     1       7.653   7.362  17.607  0.00  0.00    +0.000 C 
ATOM      5  C   UNL     1       6.760   6.173  17.774  0.00  0.00    +0.000 A 
ATOM      6  C   UNL     1       6.426   5.680  19.036  0.00  0.00    +0.000 A 
ATOM      7  C   UNL     1       5.588   4.574  19.141  0.00  0.00    +0.000 A 
ATOM      8  C   UNL     1       5.136   3.987  17.973  0.00  0.00    +0.000 A 
ATOM      9  N   UNL     1       4.368   2.815  18.018  0.00  0.00    +0.000 N 
ATOM     10  N   UNL     1       5.439   4.411  16.737  0.00  0.00    +0.000 NA
ATOM     11  C   UNL     1       6.234   5.506  16.667  0.00  0.00    +0.000 A 
ATOM     12  H   UNL     1       4.687   2.080  17.399  0.00  0.00    +0.000 HD
ENDBRANCH   1   9
BRANCH   1  13
ATOM     13  C   UNL     1       2.369   4.575  18.763  0.00  0.00    +0.000 A 
ATOM     14  C   UNL     1       2.123   4.682  20.142  0.00  0.00    +0.000 A 
ATOM     15  C   UNL     1       1.950   5.942  20.714  0.00  0.00    +0.000 A 
ATOM     16  C   UNL     1       2.040   7.082  19.920  0.00  0.00    +0.000 A 
ATOM     17  F   UNL     1       1.889   8.290  20.480  0.00  0.00    +0.000 F 
ATOM     18  C   UNL     1       2.305   6.986  18.557  0.00  0.00    +0.000 A 
ATOM     19  C   UNL     1       2.471   5.726  17.971  0.00  0.00    +0.000 A 
ENDBRANCH   1  13
TORSDOF 2
ENDMDL
MODEL 2
REMARK VINA RESULT:      -7.3      2.977      5.212
REMARK  Name = 
REMARK  3 active torsions:
REMARK  status: ('A' for Active; 'I' for Inactive)
REMARK    1  A    between atoms: C_1  and  C_2
REMARK    2  A    between atoms: N_6  and  S_7
REMARK    3  A    between atoms: S_7  and  C_10
REMARK                            x       y       z     vdW  Elec       q    Type
REMARK                         _______ _______ _______ _____ _____    ______ ____
ROOT
ATOM      1  S   UNL     1       4.904   4.320  16.542  0.00  0.00    +0.000 S 
ATOM      2  O   UNL     1       5.395   3.886  15.249  0.00  0.00    +0.000 OA
ATOM      3  O   UNL     1       3.629   4.992  16.664  0.00  0.00    +0.000 OA
ENDROOT
BRANCH   1   9
ATOM      4  C   UNL     1       1.172   2.524  21.722  0.00  0.00    +0.000 C 
ATOM      5  C   UNL     1       2.110   2.638  20.561  0.00  0.00    +0.000 A 
ATOM      6  C   UNL     1       1.781   2.129  19.304  0.00  0.00    +0.000 A 
ATOM      7  C   UNL     1       2.684   2.263  18.253  0.00  0.00    +0.000 A 
ATOM      8  C   UNL     1       3.896   2.880  18.511  0.00  0.00    +0.000 A 
ATOM      9  N   UNL     1       4.880   2.956  17.515  0.00  0.00    +0.000 N 
ATOM     10  N   UNL     1       4.266   3.371  19.703  0.00  0.00    +0.000 NA
ATOM     11  C   UNL     1       3.355   3.251  20.699  0.00  0.00    +0.000 A 
ATOM     12  H   UNL     1       5.802   2.660  17.813  0.00  0.00    +0.000 HD
ENDBRANCH   1   9
BRANCH   1  13
ATOM     13  C   UNL     1       6.162   5.389  17.217  0.00  0.00    +0.000 A 
ATOM     14  C   UNL     1       6.230   6.726  16.795  0.00  0.00    +0.000 A 
ATOM     15  C   UNL     1       7.156   7.587  17.383  0.00  0.00    +0.000 A 
ATOM     16  C   UNL     1       7.991   7.120  18.395  0.00  0.00    +0.000 A 
ATOM     17  F   UNL     1       8.867   7.957  18.968  0.00  0.00    +0.000 F 
ATOM     18  C   UNL     1       7.915   5.801  18.834  0.00  0.00    +0.000 A 
ATOM     19  C   UNL     1       6.996   4.926  18.244  0.00  0.00    +0.000 A 
ENDBRANCH   1  13
TORSDOF 2
ENDMDL
MODEL 3
REMARK VINA RESULT:      -7.2      0.224      1.166
REMARK  Name = 
REMARK  3 active torsions:
REMARK  status: ('A' for Active; 'I' for Inactive)
REMARK    1  A    between atoms: C_1  and  C_2
REMARK    2  A    between atoms: N_6  and  S_7
REMARK    3  A    between atoms: S_7  and  C_10
REMARK                            x       y       z     vdW  Elec       q    Type
REMARK                         _______ _______ _______ _____ _____    ______ ____
ROOT
ATOM      1  S   UNL     1       2.757   3.179  18.074  0.00  0.00    +0.000 S 
ATOM      2  O   UNL     1       2.208   3.270  16.736  0.00  0.00    +0.000 OA
ATOM      3  O   UNL     1       2.287   2.176  19.004  0.00  0.00    +0.000 OA
ENDROOT
BRANCH   1   9
ATOM      4  C   UNL     1       7.772   7.497  17.627  0.00  0.00    +0.000 C 
ATOM      5  C   UNL     1       6.865   6.314  17.756  0.00  0.00    +0.000 A 
ATOM      6  C   UNL     1       6.621   5.712  18.991  0.00  0.00    +0.000 A 
ATOM      7  C   UNL     1       5.764   4.617  19.063  0.00  0.00    +0.000 A 
ATOM      8  C   UNL     1       5.205   4.150  17.887  0.00  0.00    +0.000 A 
ATOM      9  N   UNL     1       4.413   2.993  17.887  0.00  0.00    +0.000 N 
ATOM     10  N   UNL     1       5.419   4.683  16.674  0.00  0.00    +0.000 NA
ATOM     11  C   UNL     1       6.235   5.764  16.640  0.00  0.00    +0.000 A 
ATOM     12  H   UNL     1       4.662   2.314  17.178  0.00  0.00    +0.000 HD
ENDBRANCH   1   9
BRANCH   1  13
ATOM     13  C   UNL     1       2.519   4.782  18.819  0.00  0.00    +0.000 A 
ATOM     14  C   UNL     1       2.554   5.930  18.011  0.00  0.00    +0.000 A 
ATOM     15  C   UNL     1       2.283   7.176  18.575  0.00  0.00    +0.000 A 
ATOM     16  C   UNL     1       1.962   7.270  19.927  0.00  0.00    +0.000 A 
ATOM     17  F   UNL     1       1.686   8.469  20.458  0.00  0.00    +0.000 F 
ATOM     18  C   UNL     1       1.904   6.134  20.729  0.00  0.00    +0.000 A 
ATOM     19  C   UNL     1       2.183   4.880  20.175  0.00  0.00    +0.000 A 
ENDBRANCH   1  13
TORSDOF 2
ENDMDL
MODEL 4
REMARK VINA RESULT:      -7.2      3.235      4.167
REMARK  Name = 
REMARK  3 active torsions:
REMARK  status: ('A' for Active; 'I' for Inactive)
REMARK    1  A    between atoms: C_1  and  C_2
REMARK    2  A    between atoms: N_6  and  S_7
REMARK    3  A    between atoms: S_7  and  C_10
REMARK                            x       y       z     vdW  Elec       q    Type
REMARK                         _______ _______ _______ _____ _____    ______ ____
ROOT
ATOM      1  S   UNL     1       5.483   4.896  18.448  0.00  0.00    +0.000 S 
ATOM      2  O   UNL     1       6.485   3.882  18.188  0.00  0.00    +0.000 OA
ATOM      3  O   UNL     1       5.604   5.785  19.584  0.00  0.00    +0.000 OA
ENDROOT
BRANCH   1   9
ATOM      4  C   UNL     1       7.137   3.760  12.126  0.00  0.00    +0.000 C 
ATOM      5  C   UNL     1       6.625   4.266  13.438  0.00  0.00    +0.000 A 
ATOM      6  C   UNL     1       5.287   4.117  13.807  0.00  0.00    +0.000 A 
ATOM      7  C   UNL     1       4.859   4.599  15.041  0.00  0.00    +0.000 A 
ATOM      8  C   UNL     1       5.784   5.237  15.847  0.00  0.00    +0.000 A 
ATOM      9  N   UNL     1       5.387   5.826  17.056  0.00  0.00    +0.000 N 
ATOM     10  N   UNL     1       7.076   5.418  15.533  0.00  0.00    +0.000 NA
ATOM     11  C   UNL     1       7.470   4.914  14.339  0.00  0.00    +0.000 A 
ATOM     12  H   UNL     1       5.711   6.777  17.186  0.00  0.00    +0.000 HD
ENDBRANCH   1   9
BRANCH   1  13
ATOM     13  C   UNL     1       3.927   4.037  18.579  0.00  0.00    +0.000 A 
ATOM     14  C   UNL     1       2.810   4.707  19.104  0.00  0.00    +0.000 A 
ATOM     15  C   UNL     1       1.571   4.067  19.127  0.00  0.00    +0.000 A 
ATOM     16  C   UNL     1       1.448   2.778  18.615  0.00  0.00    +0.000 A 
ATOM     17  F   UNL     1       0.251   2.175  18.625  0.00  0.00    +0.000 F 
ATOM     18  C   UNL     1       2.545   2.115  18.072  0.00  0.00    +0.000 A 
ATOM     19  C   UNL     1       3.795   2.745  18.052  0.00  0.00    +0.000 A 
ENDBRANCH   1  13
TORSDOF 2
ENDMDL
MODEL 5
REMARK VINA RESULT:      -7.2      4.218      6.523
REMARK  Name = 
REMARK  3 active torsions:
REMARK  status: ('A' for Active; 'I' for Inactive)
REMARK    1  A    between atoms: C_1  and  C_2
REMARK    2  A    between atoms: N_6  and  S_7
REMARK    3  A    between atoms: S_7  and  C_10
REMARK                            x       y       z     vdW  Elec       q    Type
REMARK                         _______ _______ _______ _____ _____    ______ ____
ROOT
ATOM      1  S   UNL     1       6.231   5.680  16.311  0.00  0.00    +0.000 S 
ATOM      2  O   UNL     1       5.002   6.448  16.266  0.00  0.00    +0.000 OA
ATOM      3  O   UNL     1       7.474   6.291  16.727  0.00  0.00    +0.000 OA
ENDROOT
BRANCH   1   9
ATOM      4  C   UNL     1       1.037   3.959  20.061  0.00  0.00    +0.000 C 
ATOM      5  C   UNL     1       2.306   4.062  19.273  0.00  0.00    +0.000 A 
ATOM      6  C   UNL     1       2.434   3.474  18.014  0.00  0.00    +0.000 A 
ATOM      7  C   UNL     1       3.632   3.601  17.317  0.00  0.00    +0.000 A 
ATOM      8  C   UNL     1       4.667   4.291  17.922  0.00  0.00    +0.000 A 
ATOM      9  N   UNL     1       5.925   4.367  17.307  0.00  0.00    +0.000 N 
ATOM     10  N   UNL     1       4.600   4.860  19.135  0.00  0.00    +0.000 NA
ATOM     11  C   UNL     1       3.413   4.744  19.777  0.00  0.00    +0.000 A 
ATOM     12  H   UNL     1       6.703   4.135  17.913  0.00  0.00    +0.000 HD
ENDBRANCH   1   9
BRANCH   1  13
ATOM     13  C   UNL     1       6.461   5.015  14.672  0.00  0.00    +0.000 A 
ATOM     14  C   UNL     1       7.570   5.420  13.912  0.00  0.00    +0.000 A 
ATOM     15  C   UNL     1       7.801   4.839  12.666  0.00  0.00    +0.000 A 
ATOM     16  C   UNL     1       6.942   3.850  12.194  0.00  0.00    +0.000 A 
ATOM     17  F   UNL     1       7.179   3.283  11.003  0.00  0.00    +0.000 F 
ATOM     18  C   UNL     1       5.853   3.427  12.950  0.00  0.00    +0.000 A 
ATOM     19  C   UNL     1       5.607   4.010  14.198  0.00  0.00    +0.000 A 
ENDBRANCH   1  13
TORSDOF 2
ENDMDL
MODEL 6
REMARK VINA RESULT:      -7.2      3.530      4.641
REMARK  Name = 
REMARK  3 active torsions:
REMARK  status: ('A' for Active; 'I' for Inactive)
REMARK    1  A    between atoms: C_1  and  C_2
REMARK    2  A    between atoms: N_6  and  S_7
REMARK    3  A    between atoms: S_7  and  C_10
REMARK                            x       y       z     vdW  Elec       q    Type
REMARK                         _______ _______ _______ _____ _____    ______ ____
ROOT
ATOM      1  S   UNL     1       7.133   6.277  17.670  0.00  0.00    +0.000 S 
ATOM      2  O   UNL     1       7.949   6.366  18.864  0.00  0.00    +0.000 OA
ATOM      3  O   UNL     1       7.069   7.376  16.731  0.00  0.00    +0.000 OA
ENDROOT
BRANCH   1   9
ATOM      4  C   UNL     1       5.180   3.364  12.040  0.00  0.00    +0.000 C 
ATOM      5  C   UNL     1       5.859   3.828  13.291  0.00  0.00    +0.000 A 
ATOM      6  C   UNL     1       6.979   4.659  13.249  0.00  0.00    +0.000 A 
ATOM      7  C   UNL     1       7.573   5.069  14.439  0.00  0.00    +0.000 A 
ATOM      8  C   UNL     1       7.036   4.607  15.627  0.00  0.00    +0.000 A 
ATOM      9  N   UNL     1       7.652   4.909  16.850  0.00  0.00    +0.000 N 
ATOM     10  N   UNL     1       5.972   3.795  15.721  0.00  0.00    +0.000 NA
ATOM     11  C   UNL     1       5.399   3.435  14.548  0.00  0.00    +0.000 A 
ATOM     12  H   UNL     1       7.797   4.111  17.456  0.00  0.00    +0.000 HD
ENDBRANCH   1   9
BRANCH   1  13
ATOM     13  C   UNL     1       5.476   5.924  18.225  0.00  0.00    +0.000 A 
ATOM     14  C   UNL     1       4.391   6.575  17.616  0.00  0.00    +0.000 A 
ATOM     15  C   UNL     1       3.090   6.239  17.988  0.00  0.00    +0.000 A 
ATOM     16  C   UNL     1       2.876   5.248  18.943  0.00  0.00    +0.000 A 
ATOM     17  F   UNL     1       1.623   4.918  19.283  0.00  0.00    +0.000 F 
ATOM     18  C   UNL     1       3.946   4.582  19.535  0.00  0.00    +0.000 A 
ATOM     19  C   UNL     1       5.256   4.919  19.176  0.00  0.00    +0.000 A 
ENDBRANCH   1  13
TORSDOF 2
ENDMDL
MODEL 7
REMARK VINA RESULT:      -7.2      3.203      4.041
REMARK  Name = 
REMARK  3 active torsions:
REMARK  status: ('A' for Active; 'I' for Inactive)
REMARK    1  A    between atoms: C_1  and  C_2
REMARK    2  A    between atoms: N_6  and  S_7
REMARK    3  A    between atoms: S_7  and  C_10
REMARK                            x       y       z     vdW  Elec       q    Type
REMARK                         _______ _______ _______ _____ _____    ______ ____
ROOT
ATOM      1  S   UNL     1       6.274   5.110  18.703  0.00  0.00    +0.000 S 
ATOM      2  O   UNL     1       6.972   3.913  18.278  0.00  0.00    +0.000 OA
ATOM      3  O   UNL     1       6.850   5.993  19.695  0.00  0.00    +0.000 OA
ENDROOT
BRANCH   1   9
ATOM      4  C   UNL     1       6.628   3.647  12.243  0.00  0.00    +0.000 C 
ATOM      5  C   UNL     1       6.407   4.232  13.603  0.00  0.00    +0.000 A 
ATOM      6  C   UNL     1       5.156   4.193  14.221  0.00  0.00    +0.000 A 
ATOM      7  C   UNL     1       5.000   4.746  15.489  0.00  0.00    +0.000 A 
ATOM      8  C   UNL     1       6.101   5.341  16.079  0.00  0.00    +0.000 A 
ATOM      9  N   UNL     1       5.978   5.997  17.312  0.00  0.00    +0.000 N 
ATOM     10  N   UNL     1       7.319   5.418  15.522  0.00  0.00    +0.000 NA
ATOM     11  C   UNL     1       7.447   4.847  14.300  0.00  0.00    +0.000 A 
ATOM     12  H   UNL     1       6.382   6.926  17.335  0.00  0.00    +0.000 HD
ENDBRANCH   1   9
BRANCH   1  13
ATOM     13  C   UNL     1       4.681   4.573  19.297  0.00  0.00    +0.000 A 
ATOM     14  C   UNL     1       4.457   3.206  19.530  0.00  0.00    +0.000 A 
ATOM     15  C   UNL     1       3.243   2.791  20.076  0.00  0.00    +0.000 A 
ATOM     16  C   UNL     1       2.272   3.735  20.402  0.00  0.00    +0.000 A 
ATOM     17  F   UNL     1       1.114   3.330  20.942  0.00  0.00    +0.000 F 
ATOM     18  C   UNL     1       2.494   5.093  20.195  0.00  0.00    +0.000 A 
ATOM     19  C   UNL     1       3.706   5.519  19.639  0.00  0.00    +0.000 A 
ENDBRANCH   1  13
TORSDOF 2
ENDMDL
MODEL 8
REMARK VINA RESULT:      -7.2      2.319      3.286
REMARK  Name = 
REMARK  3 active torsions:
REMARK  status: ('A' for Active; 'I' for Inactive)
REMARK    1  A    between atoms: C_1  and  C_2
REMARK    2  A    between atoms: N_6  and  S_7
REMARK    3  A    between atoms: S_7  and  C_10
REMARK                            x       y       z     vdW  Elec       q    Type
REMARK                         _______ _______ _______ _____ _____    ______ ____
ROOT
ATOM      1  S   UNL     1       2.808   5.695  19.137  0.00  0.00    +0.000 S 
ATOM      2  O   UNL     1       2.164   5.063  18.003  0.00  0.00    +0.000 OA
ATOM      3  O   UNL     1       2.685   5.138  20.467  0.00  0.00    +0.000 OA
ENDROOT
BRANCH   1   9
ATOM      4  C   UNL     1       6.298   4.020  13.752  0.00  0.00    +0.000 C 
ATOM      5  C   UNL     1       5.770   4.539  15.053  0.00  0.00    +0.000 A 
ATOM      6  C   UNL     1       5.403   5.876  15.212  0.00  0.00    +0.000 A 
ATOM      7  C   UNL     1       4.912   6.311  16.439  0.00  0.00    +0.000 A 
ATOM      8  C   UNL     1       4.832   5.392  17.470  0.00  0.00    +0.000 A 
ATOM      9  N   UNL     1       4.437   5.797  18.753  0.00  0.00    +0.000 N 
ATOM     10  N   UNL     1       5.186   4.101  17.374  0.00  0.00    +0.000 NA
ATOM     11  C   UNL     1       5.634   3.701  16.160  0.00  0.00    +0.000 A 
ATOM     12  H   UNL     1       5.044   5.480  19.499  0.00  0.00    +0.000 HD
ENDBRANCH   1   9
BRANCH   1  13
ATOM     13  C   UNL     1       2.203   7.372  19.181  0.00  0.00    +0.000 A 
ATOM     14  C   UNL     1       2.184   8.130  17.998  0.00  0.00    +0.000 A 
ATOM     15  C   UNL     1       1.633   9.410  18.010  0.00  0.00    +0.000 A 
ATOM     16  C   UNL     1       1.090   9.920  19.187  0.00  0.00    +0.000 A 
ATOM     17  F   UNL     1       0.546  11.145  19.187  0.00  0.00    +0.000 F 
ATOM     18  C   UNL     1       1.085   9.167  20.358  0.00  0.00    +0.000 A 
ATOM     19  C   UNL     1       1.644   7.884  20.359  0.00  0.00    +0.000 A 
ENDBRANCH   1  13
TORSDOF 2
ENDMDL
MODEL 9
REMARK VINA RESULT:      -7.2      3.520      4.496
REMARK  Name = 
REMARK  3 active torsions:
REMARK  status: ('A' for Active; 'I' for Inactive)
REMARK    1  A    between atoms: C_1  and  C_2
REMARK    2  A    between atoms: N_6  and  S_7
REMARK    3  A    between atoms: S_7  and  C_10
REMARK                            x       y       z     vdW  Elec       q    Type
REMARK                         _______ _______ _______ _____ _____    ______ ____
ROOT
ATOM      1  S   UNL     1       7.119   6.294  17.641  0.00  0.00    +0.000 S 
ATOM      2  O   UNL     1       7.909   6.381  18.853  0.00  0.00    +0.000 OA
ATOM      3  O   UNL     1       7.076   7.393  16.701  0.00  0.00    +0.000 OA
ENDROOT
BRANCH   1   9
ATOM      4  C   UNL     1       5.205   3.319  12.030  0.00  0.00    +0.000 C 
ATOM      5  C   UNL     1       5.877   3.799  13.279  0.00  0.00    +0.000 A 
ATOM      6  C   UNL     1       6.988   4.642  13.233  0.00  0.00    +0.000 A 
ATOM      7  C   UNL     1       7.576   5.067  14.420  0.00  0.00    +0.000 A 
ATOM      8  C   UNL     1       7.042   4.607  15.611  0.00  0.00    +0.000 A 
ATOM      9  N   UNL     1       7.653   4.925  16.833  0.00  0.00    +0.000 N 
ATOM     10  N   UNL     1       5.987   3.785  15.709  0.00  0.00    +0.000 NA
ATOM     11  C   UNL     1       5.419   3.411  14.538  0.00  0.00    +0.000 A 
ATOM     12  H   UNL     1       7.805   4.133  17.445  0.00  0.00    +0.000 HD
ENDBRANCH   1   9
BRANCH   1  13
ATOM     13  C   UNL     1       5.450   5.943  18.161  0.00  0.00    +0.000 A 
ATOM     14  C   UNL     1       5.231   5.066  19.236  0.00  0.00    +0.000 A 
ATOM     15  C   UNL     1       3.934   4.857  19.700  0.00  0.00    +0.000 A 
ATOM     16  C   UNL     1       2.869   5.530  19.108  0.00  0.00    +0.000 A 
ATOM     17  F   UNL     1       1.626   5.337  19.571  0.00  0.00    +0.000 F 
ATOM     18  C   UNL     1       3.079   6.418  18.057  0.00  0.00    +0.000 A 
ATOM     19  C   UNL     1       4.376   6.628  17.577  0.00  0.00    +0.000 A 
ENDBRANCH   1  13
TORSDOF 2
ENDMDL
