MODEL 1
REMARK VINA RESULT:      -6.9      0.000      0.000
REMARK  Name = 
REMARK  3 active torsions:
REMARK  status: ('A' for Active; 'I' for Inactive)
REMARK    1  A    between atoms: C_2  and  C_3
REMARK    2  A    between atoms: C_3  and  N_4
REMARK    3  A    between atoms: N_16  and  C_17
REMARK                            x       y       z     vdW  Elec       q    Type
REMARK                         _______ _______ _______ _____ _____    ______ ____
ROOT
ATOM      1  C   UNL     1       1.470   8.488  21.073  0.00  0.00    +0.000 C 
ENDROOT
BRANCH   1   2
ATOM      2  N   UNL     1       0.060   8.863  20.815  0.00  0.00    +0.000 NA
ATOM      3  C   UNL     1      -0.792   8.825  22.037  0.00  0.00    +0.000 C 
ATOM      4  C   UNL     1      -0.523   9.912  23.099  0.00  0.00    +0.000 C 
ATOM      5  N   UNL     1      -0.516  11.254  22.507  0.00  0.00    +0.000 N 
ATOM      6  C   UNL     1      -1.462  12.177  22.907  0.00  0.00    +0.000 A 
ATOM      7  C   UNL     1      -1.252  13.549  22.747  0.00  0.00    +0.000 A 
ATOM      8  C   UNL     1      -2.190  14.472  23.213  0.00  0.00    +0.000 A 
ATOM      9  C   UNL     1      -3.340  14.012  23.830  0.00  0.00    +0.000 A 
ATOM     10  C   UNL     1      -3.490  12.645  23.957  0.00  0.00    +0.000 A 
ATOM     11  N   UNL     1      -2.584  11.738  23.520  0.00  0.00    +0.000 NA
ATOM     12  C   UNL     1       0.272  11.411  21.283  0.00  0.00    +0.000 C 
ATOM     13  C   UNL     1       0.003  10.254  20.277  0.00  0.00    +0.000 C 
ENDBRANCH   1   2
BRANCH   1  15
ATOM     14  O   UNL     1       2.147   7.877  18.864  0.00  0.00    +0.000 OA
ATOM     15  C   UNL     1       2.066   7.523  20.038  0.00  0.00    +0.000 C 
ATOM     16  N   UNL     1       2.415   6.276  20.524  0.00  0.00    +0.000 N 
ATOM     17  H   UNL     1       2.116   6.067  21.475  0.00  0.00    +0.000 HD
BRANCH  16  18
ATOM     18  C   UNL     1       3.189   5.292  19.858  0.00  0.00    +0.000 A 
ATOM     19  C   UNL     1       4.489   5.557  19.405  0.00  0.00    +0.000 A 
ATOM     20  C   UNL     1       5.272   4.557  18.822  0.00  0.00    +0.000 A 
ATOM     21  C   UNL     1       4.769   3.269  18.679  0.00  0.00    +0.000 A 
ATOM     22  C   UNL     1       3.472   2.983  19.106  0.00  0.00    +0.000 A 
ATOM     23  C   UNL     1       2.688   3.989  19.693  0.00  0.00    +0.000 A 
ATOM     24 BR   UNL     1       0.918   3.530  20.216  0.00  0.00    +0.000 Br
ENDBRANCH  16  18
ENDBRANCH   1  15
TORSDOF 3
ENDMDL
MODEL 2
REMARK VINA RESULT:      -6.9      3.476      9.339
REMARK  Name = 
REMARK  3 active torsions:
REMARK  status: ('A' for Active; 'I' for Inactive)
REMARK    1  A    between atoms: C_2  and  C_3
REMARK    2  A    between atoms: C_3  and  N_4
REMARK    3  A    between atoms: N_16  and  C_17
REMARK                            x       y       z     vdW  Elec       q    Type
REMARK                         _______ _______ _______ _____ _____    ______ ____
ROOT
ATOM      1  C   UNL     1       2.773   4.198  20.906  0.00  0.00    +0.000 C 
ENDROOT
BRANCH   1   2
ATOM      2  N   UNL     1       2.984   3.267  19.774  0.00  0.00    +0.000 NA
ATOM      3  C   UNL     1       2.546   3.824  18.463  0.00  0.00    +0.000 C 
ATOM      4  C   UNL     1       3.393   4.979  17.887  0.00  0.00    +0.000 C 
ATOM      5  N   UNL     1       4.819   4.640  17.861  0.00  0.00    +0.000 N 
ATOM      6  C   UNL     1       5.478   4.569  16.649  0.00  0.00    +0.000 A 
ATOM      7  C   UNL     1       6.866   4.704  16.568  0.00  0.00    +0.000 A 
ATOM      8  C   UNL     1       7.511   4.692  15.329  0.00  0.00    +0.000 A 
ATOM      9  C   UNL     1       6.758   4.537  14.178  0.00  0.00    +0.000 A 
ATOM     10  C   UNL     1       5.392   4.407  14.325  0.00  0.00    +0.000 A 
ATOM     11  N   UNL     1       4.750   4.428  15.518  0.00  0.00    +0.000 NA
ATOM     12  C   UNL     1       5.363   4.060  19.090  0.00  0.00    +0.000 C 
ATOM     13  C   UNL     1       4.436   2.944  19.655  0.00  0.00    +0.000 C 
ENDBRANCH   1   2
BRANCH   1  15
ATOM     14  O   UNL     1       0.543   4.914  20.430  0.00  0.00    +0.000 OA
ATOM     15  C   UNL     1       1.700   5.265  20.654  0.00  0.00    +0.000 C 
ATOM     16  N   UNL     1       2.155   6.572  20.641  0.00  0.00    +0.000 N 
ATOM     17  H   UNL     1       3.166   6.693  20.656  0.00  0.00    +0.000 HD
BRANCH  16  18
ATOM     18  C   UNL     1       1.362   7.747  20.667  0.00  0.00    +0.000 A 
ATOM     19  C   UNL     1       0.557   8.071  21.769  0.00  0.00    +0.000 A 
ATOM     20  C   UNL     1      -0.157   9.271  21.817  0.00  0.00    +0.000 A 
ATOM     21  C   UNL     1      -0.082  10.173  20.762  0.00  0.00    +0.000 A 
ATOM     22  C   UNL     1       0.699   9.867  19.647  0.00  0.00    +0.000 A 
ATOM     23  C   UNL     1       1.417   8.662  19.602  0.00  0.00    +0.000 A 
ATOM     24 BR   UNL     1       2.429   8.302  18.032  0.00  0.00    +0.000 Br
ENDBRANCH  16  18
ENDBRANCH   1  15
TORSDOF 3
ENDMDL
MODEL 3
REMARK VINA RESULT:      -6.8      8.088     10.330
REMARK  Name = 
REMARK  3 active torsions:
REMARK  status: ('A' for Active; 'I' for Inactive)
REMARK    1  A    between atoms: C_2  and  C_3
REMARK    2  A    between atoms: C_3  and  N_4
REMARK    3  A    between atoms: N_16  and  C_17
REMARK                            x       y       z     vdW  Elec       q    Type
REMARK                         _______ _______ _______ _____ _____    ______ ____
ROOT
ATOM      1  C   UNL     1       7.445   7.860  17.279  0.00  0.00    +0.000 C 
ENDROOT
BRANCH   1   2
ATOM      2  N   UNL     1       7.668   6.400  17.393  0.00  0.00    +0.000 NA
ATOM      3  C   UNL     1       7.241   5.840  18.707  0.00  0.00    +0.000 C 
ATOM      4  C   UNL     1       5.722   5.797  18.976  0.00  0.00    +0.000 C 
ATOM      5  N   UNL     1       4.997   5.158  17.874  0.00  0.00    +0.000 N 
ATOM      6  C   UNL     1       4.298   3.989  18.109  0.00  0.00    +0.000 A 
ATOM      7  C   UNL     1       3.254   3.587  17.272  0.00  0.00    +0.000 A 
ATOM      8  C   UNL     1       2.517   2.436  17.557  0.00  0.00    +0.000 A 
ATOM      9  C   UNL     1       2.839   1.689  18.678  0.00  0.00    +0.000 A 
ATOM     10  C   UNL     1       3.882   2.139  19.463  0.00  0.00    +0.000 A 
ATOM     11  N   UNL     1       4.599   3.259  19.206  0.00  0.00    +0.000 NA
ATOM     12  C   UNL     1       5.348   5.611  16.527  0.00  0.00    +0.000 C 
ATOM     13  C   UNL     1       6.891   5.692  16.335  0.00  0.00    +0.000 C 
ENDBRANCH   1   2
BRANCH   1  15
ATOM     14  O   UNL     1       8.941   8.158  19.120  0.00  0.00    +0.000 OA
ATOM     15  C   UNL     1       8.324   8.708  18.210  0.00  0.00    +0.000 C 
ATOM     16  N   UNL     1       8.295  10.070  17.973  0.00  0.00    +0.000 N 
ATOM     17  H   UNL     1       7.595  10.394  17.307  0.00  0.00    +0.000 HD
BRANCH  16  18
ATOM     18  C   UNL     1       9.172  11.044  18.514  0.00  0.00    +0.000 A 
ATOM     19  C   UNL     1      10.279  10.688  19.297  0.00  0.00    +0.000 A 
ATOM     20  C   UNL     1      11.182  11.650  19.757  0.00  0.00    +0.000 A 
ATOM     21  C   UNL     1      10.995  12.991  19.444  0.00  0.00    +0.000 A 
ATOM     22  C   UNL     1       9.893  13.374  18.680  0.00  0.00    +0.000 A 
ATOM     23  C   UNL     1       8.988  12.406  18.218  0.00  0.00    +0.000 A 
ATOM     24 BR   UNL     1       7.491  13.012  17.213  0.00  0.00    +0.000 Br
ENDBRANCH  16  18
ENDBRANCH   1  15
TORSDOF 3
ENDMDL
MODEL 4
REMARK VINA RESULT:      -6.8      4.026      6.005
REMARK  Name = 
REMARK  3 active torsions:
REMARK  status: ('A' for Active; 'I' for Inactive)
REMARK    1  A    between atoms: C_2  and  C_3
REMARK    2  A    between atoms: C_3  and  N_4
REMARK    3  A    between atoms: N_16  and  C_17
REMARK                            x       y       z     vdW  Elec       q    Type
REMARK                         _______ _______ _______ _____ _____    ______ ____
ROOT
ATOM      1  C   UNL     1       3.227   2.945  19.760  0.00  0.00    +0.000 C 
ENDROOT
BRANCH   1   2
ATOM      2  N   UNL     1       1.925   3.649  19.702  0.00  0.00    +0.000 NA
ATOM      3  C   UNL     1       1.770   4.690  20.758  0.00  0.00    +0.000 C 
ATOM      4  C   UNL     1       2.648   5.952  20.615  0.00  0.00    +0.000 C 
ATOM      5  N   UNL     1       2.530   6.541  19.278  0.00  0.00    +0.000 N 
ATOM      6  C   UNL     1       2.013   7.815  19.141  0.00  0.00    +0.000 A 
ATOM      7  C   UNL     1       2.284   8.591  18.012  0.00  0.00    +0.000 A 
ATOM      8  C   UNL     1       1.805   9.900  17.916  0.00  0.00    +0.000 A 
ATOM      9  C   UNL     1       1.051  10.420  18.953  0.00  0.00    +0.000 A 
ATOM     10  C   UNL     1       0.817   9.602  20.041  0.00  0.00    +0.000 A 
ATOM     11  N   UNL     1       1.283   8.335  20.154  0.00  0.00    +0.000 NA
ATOM     12  C   UNL     1       2.641   5.610  18.155  0.00  0.00    +0.000 C 
ATOM     13  C   UNL     1       1.783   4.331  18.383  0.00  0.00    +0.000 C 
ENDBRANCH   1   2
BRANCH   1  15
ATOM     14  O   UNL     1       3.651   2.005  17.604  0.00  0.00    +0.000 OA
ATOM     15  C   UNL     1       3.966   2.872  18.417  0.00  0.00    +0.000 C 
ATOM     16  N   UNL     1       4.997   3.780  18.259  0.00  0.00    +0.000 N 
ATOM     17  H   UNL     1       5.259   4.308  19.090  0.00  0.00    +0.000 HD
BRANCH  16  18
ATOM     18  C   UNL     1       5.679   4.088  17.054  0.00  0.00    +0.000 A 
ATOM     19  C   UNL     1       5.221   3.634  15.810  0.00  0.00    +0.000 A 
ATOM     20  C   UNL     1       5.855   4.010  14.622  0.00  0.00    +0.000 A 
ATOM     21  C   UNL     1       6.962   4.851  14.656  0.00  0.00    +0.000 A 
ATOM     22  C   UNL     1       7.446   5.304  15.882  0.00  0.00    +0.000 A 
ATOM     23  C   UNL     1       6.807   4.926  17.073  0.00  0.00    +0.000 A 
ATOM     24 BR   UNL     1       7.551   5.556  18.707  0.00  0.00    +0.000 Br
ENDBRANCH  16  18
ENDBRANCH   1  15
TORSDOF 3
ENDMDL
MODEL 5
REMARK VINA RESULT:      -6.7      1.584      1.647
REMARK  Name = 
REMARK  3 active torsions:
REMARK  status: ('A' for Active; 'I' for Inactive)
REMARK    1  A    between atoms: C_2  and  C_3
REMARK    2  A    between atoms: C_3  and  N_4
REMARK    3  A    between atoms: N_16  and  C_17
REMARK                            x       y       z     vdW  Elec       q    Type
REMARK                         _______ _______ _______ _____ _____    ______ ____
ROOT
ATOM      1  C   UNL     1       1.571   9.104  19.817  0.00  0.00    +0.000 C 
ENDROOT
BRANCH   1   2
ATOM      2  N   UNL     1       0.217   9.681  19.651  0.00  0.00    +0.000 NA
ATOM      3  C   UNL     1      -0.707   9.345  20.771  0.00  0.00    +0.000 C 
ATOM      4  C   UNL     1      -0.411  10.009  22.132  0.00  0.00    +0.000 C 
ATOM      5  N   UNL     1      -0.254  11.461  22.000  0.00  0.00    +0.000 N 
ATOM      6  C   UNL     1      -1.141  12.301  22.646  0.00  0.00    +0.000 A 
ATOM      7  C   UNL     1      -0.804  13.624  22.939  0.00  0.00    +0.000 A 
ATOM      8  C   UNL     1      -1.687  14.443  23.647  0.00  0.00    +0.000 A 
ATOM      9  C   UNL     1      -2.907  13.929  24.051  0.00  0.00    +0.000 A 
ATOM     10  C   UNL     1      -3.180  12.614  23.730  0.00  0.00    +0.000 A 
ATOM     11  N   UNL     1      -2.331  11.804  23.053  0.00  0.00    +0.000 NA
ATOM     12  C   UNL     1       0.616  11.916  20.915  0.00  0.00    +0.000 C 
ATOM     13  C   UNL     1       0.311  11.168  19.584  0.00  0.00    +0.000 C 
ENDBRANCH   1   2
BRANCH   1  15
ATOM     14  O   UNL     1       1.961   8.874  17.470  0.00  0.00    +0.000 OA
ATOM     15  C   UNL     1       2.099   8.364  18.581  0.00  0.00    +0.000 C 
ATOM     16  N   UNL     1       2.648   7.118  18.826  0.00  0.00    +0.000 N 
ATOM     17  H   UNL     1       2.523   6.752  19.768  0.00  0.00    +0.000 HD
BRANCH  16  18
ATOM     18  C   UNL     1       3.409   6.334  17.922  0.00  0.00    +0.000 A 
ATOM     19  C   UNL     1       4.490   6.869  17.208  0.00  0.00    +0.000 A 
ATOM     20  C   UNL     1       5.282   6.068  16.382  0.00  0.00    +0.000 A 
ATOM     21  C   UNL     1       5.008   4.711  16.252  0.00  0.00    +0.000 A 
ATOM     22  C   UNL     1       3.928   4.157  16.938  0.00  0.00    +0.000 A 
ATOM     23  C   UNL     1       3.135   4.964  17.769  0.00  0.00    +0.000 A 
ATOM     24 BR   UNL     1       1.659   4.141  18.642  0.00  0.00    +0.000 Br
ENDBRANCH  16  18
ENDBRANCH   1  15
TORSDOF 3
ENDMDL
MODEL 6
REMARK VINA RESULT:      -6.6      7.694     10.035
REMARK  Name = 
REMARK  3 active torsions:
REMARK  status: ('A' for Active; 'I' for Inactive)
REMARK    1  A    between atoms: C_2  and  C_3
REMARK    2  A    between atoms: C_3  and  N_4
REMARK    3  A    between atoms: N_16  and  C_17
REMARK                            x       y       z     vdW  Elec       q    Type
REMARK                         _______ _______ _______ _____ _____    ______ ____
ROOT
ATOM      1  C   UNL     1       7.030   8.441  17.637  0.00  0.00    +0.000 C 
ENDROOT
BRANCH   1   2
ATOM      2  N   UNL     1       7.094   7.047  17.140  0.00  0.00    +0.000 NA
ATOM      3  C   UNL     1       7.110   6.032  18.232  0.00  0.00    +0.000 C 
ATOM      4  C   UNL     1       5.802   5.862  19.034  0.00  0.00    +0.000 C 
ATOM      5  N   UNL     1       4.650   5.661  18.149  0.00  0.00    +0.000 N 
ATOM      6  C   UNL     1       3.945   4.475  18.212  0.00  0.00    +0.000 A 
ATOM      7  C   UNL     1       2.626   4.390  17.760  0.00  0.00    +0.000 A 
ATOM      8  C   UNL     1       1.906   3.199  17.887  0.00  0.00    +0.000 A 
ATOM      9  C   UNL     1       2.518   2.099  18.460  0.00  0.00    +0.000 A 
ATOM     10  C   UNL     1       3.823   2.247  18.885  0.00  0.00    +0.000 A 
ATOM     11  N   UNL     1       4.531   3.397  18.779  0.00  0.00    +0.000 NA
ATOM     12  C   UNL     1       4.539   6.586  17.021  0.00  0.00    +0.000 C 
ATOM     13  C   UNL     1       5.902   6.764  16.289  0.00  0.00    +0.000 C 
ENDBRANCH   1   2
BRANCH   1  15
ATOM     14  O   UNL     1       9.013   8.117  18.932  0.00  0.00    +0.000 OA
ATOM     15  C   UNL     1       8.314   8.926  18.324  0.00  0.00    +0.000 C 
ATOM     16  N   UNL     1       8.548  10.287  18.249  0.00  0.00    +0.000 N 
ATOM     17  H   UNL     1       7.786  10.851  17.876  0.00  0.00    +0.000 HD
BRANCH  16  18
ATOM     18  C   UNL     1       9.750  10.961  18.583  0.00  0.00    +0.000 A 
ATOM     19  C   UNL     1      10.701  11.301  17.610  0.00  0.00    +0.000 A 
ATOM     20  C   UNL     1      11.843  12.035  17.939  0.00  0.00    +0.000 A 
ATOM     21  C   UNL     1      12.059  12.445  19.250  0.00  0.00    +0.000 A 
ATOM     22  C   UNL     1      11.137  12.105  20.239  0.00  0.00    +0.000 A 
ATOM     23  C   UNL     1       9.989  11.369  19.906  0.00  0.00    +0.000 A 
ATOM     24 BR   UNL     1       8.798  10.914  21.318  0.00  0.00    +0.000 Br
ENDBRANCH  16  18
ENDBRANCH   1  15
TORSDOF 3
ENDMDL
MODEL 7
REMARK VINA RESULT:      -6.5      7.460      9.993
REMARK  Name = 
REMARK  3 active torsions:
REMARK  status: ('A' for Active; 'I' for Inactive)
REMARK    1  A    between atoms: C_2  and  C_3
REMARK    2  A    between atoms: C_3  and  N_4
REMARK    3  A    between atoms: N_16  and  C_17
REMARK                            x       y       z     vdW  Elec       q    Type
REMARK                         _______ _______ _______ _____ _____    ______ ____
ROOT
ATOM      1  C   UNL     1       7.996   7.449  18.756  0.00  0.00    +0.000 C 
ENDROOT
BRANCH   1   2
ATOM      2  N   UNL     1       7.567   6.504  17.699  0.00  0.00    +0.000 NA
ATOM      3  C   UNL     1       7.408   5.105  18.188  0.00  0.00    +0.000 C 
ATOM      4  C   UNL     1       6.222   4.839  19.139  0.00  0.00    +0.000 C 
ATOM      5  N   UNL     1       4.963   5.346  18.584  0.00  0.00    +0.000 N 
ATOM      6  C   UNL     1       3.942   4.460  18.297  0.00  0.00    +0.000 A 
ATOM      7  C   UNL     1       2.615   4.886  18.209  0.00  0.00    +0.000 A 
ATOM      8  C   UNL     1       1.587   3.969  17.980  0.00  0.00    +0.000 A 
ATOM      9  C   UNL     1       1.899   2.629  17.832  0.00  0.00    +0.000 A 
ATOM     10  C   UNL     1       3.229   2.272  17.928  0.00  0.00    +0.000 A 
ATOM     11  N   UNL     1       4.236   3.148  18.161  0.00  0.00    +0.000 NA
ATOM     12  C   UNL     1       5.000   6.707  18.048  0.00  0.00    +0.000 C 
ATOM     13  C   UNL     1       6.250   6.934  17.147  0.00  0.00    +0.000 C 
ENDBRANCH   1   2
BRANCH   1  15
ATOM     14  O   UNL     1       8.101   9.178  17.110  0.00  0.00    +0.000 OA
ATOM     15  C   UNL     1       8.448   8.819  18.233  0.00  0.00    +0.000 C 
ATOM     16  N   UNL     1       9.285   9.528  19.077  0.00  0.00    +0.000 N 
ATOM     17  H   UNL     1       9.633   9.023  19.889  0.00  0.00    +0.000 HD
BRANCH  16  18
ATOM     18  C   UNL     1       9.655  10.892  18.954  0.00  0.00    +0.000 A 
ATOM     19  C   UNL     1      10.180  11.411  17.763  0.00  0.00    +0.000 A 
ATOM     20  C   UNL     1      10.465  12.772  17.629  0.00  0.00    +0.000 A 
ATOM     21  C   UNL     1      10.231  13.644  18.686  0.00  0.00    +0.000 A 
ATOM     22  C   UNL     1       9.724  13.150  19.888  0.00  0.00    +0.000 A 
ATOM     23  C   UNL     1       9.437  11.782  20.020  0.00  0.00    +0.000 A 
ATOM     24 BR   UNL     1       8.782  11.181  21.701  0.00  0.00    +0.000 Br
ENDBRANCH  16  18
ENDBRANCH   1  15
TORSDOF 3
ENDMDL
MODEL 8
REMARK VINA RESULT:      -6.5      1.685      2.171
REMARK  Name = 
REMARK  3 active torsions:
REMARK  status: ('A' for Active; 'I' for Inactive)
REMARK    1  A    between atoms: C_2  and  C_3
REMARK    2  A    between atoms: C_3  and  N_4
REMARK    3  A    between atoms: N_16  and  C_17
REMARK                            x       y       z     vdW  Elec       q    Type
REMARK                         _______ _______ _______ _____ _____    ______ ____
ROOT
ATOM      1  C   UNL     1       1.176   7.296  21.083  0.00  0.00    +0.000 C 
ENDROOT
BRANCH   1   2
ATOM      2  N   UNL     1       1.645   8.701  21.121  0.00  0.00    +0.000 NA
ATOM      3  C   UNL     1       0.963   9.577  20.127  0.00  0.00    +0.000 C 
ATOM      4  C   UNL     1      -0.525   9.893  20.394  0.00  0.00    +0.000 C 
ATOM      5  N   UNL     1      -0.735  10.386  21.758  0.00  0.00    +0.000 N 
ATOM      6  C   UNL     1      -1.219  11.666  21.950  0.00  0.00    +0.000 A 
ATOM      7  C   UNL     1      -1.855  12.031  23.139  0.00  0.00    +0.000 A 
ATOM      8  C   UNL     1      -2.393  13.310  23.294  0.00  0.00    +0.000 A 
ATOM      9  C   UNL     1      -2.283  14.219  22.257  0.00  0.00    +0.000 A 
ATOM     10  C   UNL     1      -1.642  13.798  21.109  0.00  0.00    +0.000 A 
ATOM     11  N   UNL     1      -1.124  12.558  20.938  0.00  0.00    +0.000 NA
ATOM     12  C   UNL     1      -0.091   9.618  22.824  0.00  0.00    +0.000 C 
ATOM     13  C   UNL     1       1.388   9.278  22.472  0.00  0.00    +0.000 C 
ENDBRANCH   1   2
BRANCH   1  15
ATOM     14  O   UNL     1       2.961   6.824  19.566  0.00  0.00    +0.000 OA
ATOM     15  C   UNL     1       1.928   6.406  20.085  0.00  0.00    +0.000 C 
ATOM     16  N   UNL     1       1.325   5.194  19.801  0.00  0.00    +0.000 N 
ATOM     17  H   UNL     1       0.381   5.068  20.164  0.00  0.00    +0.000 HD
BRANCH  16  18
ATOM     18  C   UNL     1       1.905   4.098  19.113  0.00  0.00    +0.000 A 
ATOM     19  C   UNL     1       2.128   4.129  17.729  0.00  0.00    +0.000 A 
ATOM     20  C   UNL     1       2.774   3.077  17.075  0.00  0.00    +0.000 A 
ATOM     21  C   UNL     1       3.210   1.969  17.792  0.00  0.00    +0.000 A 
ATOM     22  C   UNL     1       2.986   1.906  19.167  0.00  0.00    +0.000 A 
ATOM     23  C   UNL     1       2.339   2.965  19.822  0.00  0.00    +0.000 A 
ATOM     24 BR   UNL     1       2.038   2.788  21.692  0.00  0.00    +0.000 Br
ENDBRANCH  16  18
ENDBRANCH   1  15
TORSDOF 3
ENDMDL
MODEL 9
REMARK VINA RESULT:      -6.5      6.921     10.191
REMARK  Name = 
REMARK  3 active torsions:
REMARK  status: ('A' for Active; 'I' for Inactive)
REMARK    1  A    between atoms: C_2  and  C_3
REMARK    2  A    between atoms: C_3  and  N_4
REMARK    3  A    between atoms: N_16  and  C_17
REMARK                            x       y       z     vdW  Elec       q    Type
REMARK                         _______ _______ _______ _____ _____    ______ ____
ROOT
ATOM      1  C   UNL     1       6.120   5.816  19.202  0.00  0.00    +0.000 C 
ENDROOT
BRANCH   1   2
ATOM      2  N   UNL     1       5.926   6.584  17.950  0.00  0.00    +0.000 NA
ATOM      3  C   UNL     1       7.173   6.726  17.146  0.00  0.00    +0.000 C 
ATOM      4  C   UNL     1       7.709   5.445  16.473  0.00  0.00    +0.000 C 
ATOM      5  N   UNL     1       6.664   4.765  15.701  0.00  0.00    +0.000 N 
ATOM      6  C   UNL     1       6.810   4.628  14.334  0.00  0.00    +0.000 A 
ATOM      7  C   UNL     1       6.124   3.638  13.626  0.00  0.00    +0.000 A 
ATOM      8  C   UNL     1       6.329   3.473  12.255  0.00  0.00    +0.000 A 
ATOM      9  C   UNL     1       7.217   4.309  11.600  0.00  0.00    +0.000 A 
ATOM     10  C   UNL     1       7.862   5.267  12.355  0.00  0.00    +0.000 A 
ATOM     11  N   UNL     1       7.682   5.434  13.687  0.00  0.00    +0.000 NA
ATOM     12  C   UNL     1       5.379   4.586  16.379  0.00  0.00    +0.000 C 
ATOM     13  C   UNL     1       4.921   5.894  17.090  0.00  0.00    +0.000 C 
ENDBRANCH   1   2
BRANCH   1  15
ATOM     14  O   UNL     1       5.538   3.498  19.178  0.00  0.00    +0.000 OA
ATOM     15  C   UNL     1       5.145   4.645  19.382  0.00  0.00    +0.000 C 
ATOM     16  N   UNL     1       3.849   4.999  19.711  0.00  0.00    +0.000 N 
ATOM     17  H   UNL     1       3.631   5.993  19.662  0.00  0.00    +0.000 HD
BRANCH  16  18
ATOM     18  C   UNL     1       2.821   4.132  20.161  0.00  0.00    +0.000 A 
ATOM     19  C   UNL     1       2.802   3.622  21.466  0.00  0.00    +0.000 A 
ATOM     20  C   UNL     1       1.742   2.834  21.922  0.00  0.00    +0.000 A 
ATOM     21  C   UNL     1       0.677   2.539  21.079  0.00  0.00    +0.000 A 
ATOM     22  C   UNL     1       0.678   3.021  19.771  0.00  0.00    +0.000 A 
ATOM     23  C   UNL     1       1.744   3.814  19.316  0.00  0.00    +0.000 A 
ATOM     24 BR   UNL     1       1.690   4.402  17.508  0.00  0.00    +0.000 Br
ENDBRANCH  16  18
ENDBRANCH   1  15
TORSDOF 3
ENDMDL
