MODEL 1
REMARK VINA RESULT:      -9.5      0.000      0.000
REMARK  Name = 
REMARK  8 active torsions:
REMARK  status: ('A' for Active; 'I' for Inactive)
REMARK    1  A    between atoms: C_1  and  O_2
REMARK    2  A    between atoms: O_2  and  C_3
REMARK    3  A    between atoms: C_6  and  C_7
REMARK    4  A    between atoms: C_10  and  C_11
REMARK    5  A    between atoms: C_14  and  C_15
REMARK    6  A    between atoms: C_15  and  C_16
REMARK    7  A    between atoms: C_30  and  C_31
REMARK    8  A    between atoms: C_31  and  O_33
REMARK                            x       y       z     vdW  Elec       q    Type
REMARK                         _______ _______ _______ _____ _____    ______ ____
ROOT
ATOM      1  C   UNL     1       0.411   9.687  20.746  0.00  0.00    +0.000 A 
ATOM      2  S   UNL     1       0.549   8.131  21.493  0.00  0.00    +0.000 S 
ATOM      3  C   UNL     1       1.495   7.592  20.137  0.00  0.00    +0.000 A 
ATOM      4  C   UNL     1       1.957   6.321  19.996  0.00  0.00    +0.000 A 
ATOM      5  C   UNL     1       2.807   6.034  18.815  0.00  0.00    +0.000 A 
ATOM      6  C   UNL     1       2.929   6.981  17.867  0.00  0.00    +0.000 A 
ATOM      7  C   UNL     1       2.367   8.336  18.015  0.00  0.00    +0.000 A 
ATOM      8  O   UNL     1       2.540   9.129  17.094  0.00  0.00    +0.000 OA
ATOM      9  N   UNL     1       1.714   8.600  19.194  0.00  0.00    +0.000 N 
ATOM     10  C   UNL     1       1.099   9.798  19.590  0.00  0.00    +0.000 A 
ENDROOT
BRANCH   1  14
ATOM     11  C   UNL     1      -2.266  12.349  22.747  0.00  0.00    +0.000 A 
ATOM     12  C   UNL     1      -1.549  11.387  23.458  0.00  0.00    +0.000 A 
ATOM     13  C   UNL     1      -0.662  10.538  22.800  0.00  0.00    +0.000 A 
ATOM     14  C   UNL     1      -0.491  10.631  21.411  0.00  0.00    +0.000 A 
ATOM     15  C   UNL     1      -1.218  11.589  20.698  0.00  0.00    +0.000 A 
ATOM     16  C   UNL     1      -2.108  12.443  21.364  0.00  0.00    +0.000 A 
BRANCH  11  18
ATOM     17  C   UNL     1      -4.034  12.383  24.313  0.00  0.00    +0.000 C 
ATOM     18  O   UNL     1      -3.116  13.106  23.505  0.00  0.00    +0.000 OA
ENDBRANCH  11  18
ENDBRANCH   1  14
BRANCH   4  19
ATOM     19  C   UNL     1       1.742   5.231  20.985  0.00  0.00    +0.000 C 
ATOM     20  C   UNL     1       0.932   4.001  20.625  0.00  0.00    +0.000 C 
ATOM     21  C   UNL     1       2.401   3.878  20.823  0.00  0.00    +0.000 C 
ENDBRANCH   4  19
BRANCH  10  22
ATOM     22  C   UNL     1       1.126  11.133  18.894  0.00  0.00    +0.000 C 
ATOM     23  O   UNL     1       1.907  12.027  19.192  0.00  0.00    +0.000 OA
BRANCH  22  24
ATOM     24  O   UNL     1       0.329  11.323  17.829  0.00  0.00    +0.000 OA
ATOM     25  H   UNL     1       0.442  10.703  17.077  0.00  0.00    +0.000 HD
ENDBRANCH  22  24
ENDBRANCH  10  22
BRANCH   5  26
ATOM     26  C   UNL     1       3.565   4.728  18.617  0.00  0.00    +0.000 C 
BRANCH  26  27
ATOM     27  C   UNL     1       5.043   4.930  18.316  0.00  0.00    +0.000 A 
ATOM     28  C   UNL     1       5.869   5.365  19.368  0.00  0.00    +0.000 A 
ATOM     29  C   UNL     1       7.212   5.648  19.156  0.00  0.00    +0.000 A 
ATOM     30  C   UNL     1       7.747   5.534  17.878  0.00  0.00    +0.000 A 
ATOM     31  C   UNL     1       6.953   5.118  16.800  0.00  0.00    +0.000 A 
ATOM     32  C   UNL     1       7.504   5.064  15.509  0.00  0.00    +0.000 A 
ATOM     33  C   UNL     1       6.746   4.641  14.419  0.00  0.00    +0.000 A 
ATOM     34  C   UNL     1       5.441   4.216  14.617  0.00  0.00    +0.000 A 
ATOM     35  C   UNL     1       4.883   4.263  15.896  0.00  0.00    +0.000 A 
ATOM     36  C   UNL     1       5.597   4.763  17.010  0.00  0.00    +0.000 A 
ENDBRANCH  26  27
ENDBRANCH   5  26
TORSDOF 7
ENDMDL
MODEL 2
REMARK VINA RESULT:      -8.0      3.145      5.378
REMARK  Name = 
REMARK  8 active torsions:
REMARK  status: ('A' for Active; 'I' for Inactive)
REMARK    1  A    between atoms: C_1  and  O_2
REMARK    2  A    between atoms: O_2  and  C_3
REMARK    3  A    between atoms: C_6  and  C_7
REMARK    4  A    between atoms: C_10  and  C_11
REMARK    5  A    between atoms: C_14  and  C_15
REMARK    6  A    between atoms: C_15  and  C_16
REMARK    7  A    between atoms: C_30  and  C_31
REMARK    8  A    between atoms: C_31  and  O_33
REMARK                            x       y       z     vdW  Elec       q    Type
REMARK                         _______ _______ _______ _____ _____    ______ ____
ROOT
ATOM      1  C   UNL     1      -3.483  12.643  19.929  0.00  0.00    +0.000 A 
ATOM      2  S   UNL     1      -1.900  12.801  20.613  0.00  0.00    +0.000 S 
ATOM      3  C   UNL     1      -1.328  11.589  19.505  0.00  0.00    +0.000 A 
ATOM      4  C   UNL     1      -0.054  11.114  19.498  0.00  0.00    +0.000 A 
ATOM      5  C   UNL     1       0.298  10.128  18.447  0.00  0.00    +0.000 A 
ATOM      6  C   UNL     1      -0.687   9.631  17.678  0.00  0.00    +0.000 A 
ATOM      7  C   UNL     1      -2.077  10.120  17.745  0.00  0.00    +0.000 A 
ATOM      8  O   UNL     1      -2.900   9.602  16.996  0.00  0.00    +0.000 OA
ATOM      9  N   UNL     1      -2.322  11.138  18.633  0.00  0.00    +0.000 N 
ATOM     10  C   UNL     1      -3.541  11.786  18.888  0.00  0.00    +0.000 A 
ENDROOT
BRANCH   1  14
ATOM     11  C   UNL     1      -6.661  14.701  21.910  0.00  0.00    +0.000 A 
ATOM     12  C   UNL     1      -6.398  13.358  22.182  0.00  0.00    +0.000 A 
ATOM     13  C   UNL     1      -5.346  12.701  21.547  0.00  0.00    +0.000 A 
ATOM     14  C   UNL     1      -4.546  13.380  20.615  0.00  0.00    +0.000 A 
ATOM     15  C   UNL     1      -4.817  14.723  20.336  0.00  0.00    +0.000 A 
ATOM     16  C   UNL     1      -5.875  15.381  20.978  0.00  0.00    +0.000 A 
BRANCH  11  18
ATOM     17  C   UNL     1      -7.916  14.748  23.909  0.00  0.00    +0.000 C 
ATOM     18  O   UNL     1      -7.730  15.223  22.583  0.00  0.00    +0.000 OA
ENDBRANCH  11  18
ENDBRANCH   1  14
BRANCH   4  19
ATOM     19  C   UNL     1       1.025  11.578  20.412  0.00  0.00    +0.000 C 
ATOM     20  C   UNL     1       1.978  12.681  19.994  0.00  0.00    +0.000 C 
ATOM     21  C   UNL     1       0.974  12.945  21.060  0.00  0.00    +0.000 C 
ENDBRANCH   4  19
BRANCH  10  22
ATOM     22  C   UNL     1      -4.848  11.632  18.155  0.00  0.00    +0.000 C 
ATOM     23  O   UNL     1      -5.684  10.787  18.449  0.00  0.00    +0.000 OA
BRANCH  22  24
ATOM     24  O   UNL     1      -5.163  12.522  17.200  0.00  0.00    +0.000 OA
ATOM     25  H   UNL     1      -5.620  13.340  17.493  0.00  0.00    +0.000 HD
ENDBRANCH  22  24
ENDBRANCH  10  22
BRANCH   5  26
ATOM     26  C   UNL     1       1.720   9.655  18.175  0.00  0.00    +0.000 C 
BRANCH  26  27
ATOM     27  C   UNL     1       2.025   8.292  18.778  0.00  0.00    +0.000 A 
ATOM     28  C   UNL     1       1.383   7.954  19.983  0.00  0.00    +0.000 A 
ATOM     29  C   UNL     1       1.667   6.762  20.637  0.00  0.00    +0.000 A 
ATOM     30  C   UNL     1       2.626   5.901  20.117  0.00  0.00    +0.000 A 
ATOM     31  C   UNL     1       3.299   6.209  18.927  0.00  0.00    +0.000 A 
ATOM     32  C   UNL     1       4.302   5.348  18.450  0.00  0.00    +0.000 A 
ATOM     33  C   UNL     1       4.979   5.618  17.263  0.00  0.00    +0.000 A 
ATOM     34  C   UNL     1       4.624   6.726  16.509  0.00  0.00    +0.000 A 
ATOM     35  C   UNL     1       3.627   7.588  16.971  0.00  0.00    +0.000 A 
ATOM     36  C   UNL     1       2.975   7.389  18.210  0.00  0.00    +0.000 A 
ENDBRANCH  26  27
ENDBRANCH   5  26
TORSDOF 7
ENDMDL
MODEL 3
REMARK VINA RESULT:      -8.0      2.786      9.659
REMARK  Name = 
REMARK  8 active torsions:
REMARK  status: ('A' for Active; 'I' for Inactive)
REMARK    1  A    between atoms: C_1  and  O_2
REMARK    2  A    between atoms: O_2  and  C_3
REMARK    3  A    between atoms: C_6  and  C_7
REMARK    4  A    between atoms: C_10  and  C_11
REMARK    5  A    between atoms: C_14  and  C_15
REMARK    6  A    between atoms: C_15  and  C_16
REMARK    7  A    between atoms: C_30  and  C_31
REMARK    8  A    between atoms: C_31  and  O_33
REMARK                            x       y       z     vdW  Elec       q    Type
REMARK                         _______ _______ _______ _____ _____    ______ ____
ROOT
ATOM      1  C   UNL     1       2.507   7.261  18.767  0.00  0.00    +0.000 A 
ATOM      2  S   UNL     1       2.551   8.842  18.063  0.00  0.00    +0.000 S 
ATOM      3  C   UNL     1       1.376   9.369  19.232  0.00  0.00    +0.000 A 
ATOM      4  C   UNL     1       0.843  10.619  19.256  0.00  0.00    +0.000 A 
ATOM      5  C   UNL     1      -0.098  10.936  20.357  0.00  0.00    +0.000 A 
ATOM      6  C   UNL     1      -0.505   9.936  21.161  0.00  0.00    +0.000 A 
ATOM      7  C   UNL     1       0.045   8.571  21.078  0.00  0.00    +0.000 A 
ATOM      8  O   UNL     1      -0.390   7.732  21.862  0.00  0.00    +0.000 OA
ATOM      9  N   UNL     1       1.023   8.364  20.136  0.00  0.00    +0.000 N 
ATOM     10  C   UNL     1       1.713   7.174  19.855  0.00  0.00    +0.000 A 
ENDROOT
BRANCH   1  14
ATOM     11  C   UNL     1       4.717   4.324  16.589  0.00  0.00    +0.000 A 
ATOM     12  C   UNL     1       5.252   5.589  16.830  0.00  0.00    +0.000 A 
ATOM     13  C   UNL     1       4.533   6.533  17.560  0.00  0.00    +0.000 A 
ATOM     14  C   UNL     1       3.254   6.226  18.050  0.00  0.00    +0.000 A 
ATOM     15  C   UNL     1       2.715   4.961  17.799  0.00  0.00    +0.000 A 
ATOM     16  C   UNL     1       3.442   4.013  17.066  0.00  0.00    +0.000 A 
BRANCH  11  18
ATOM     17  C   UNL     1       6.055   4.063  14.661  0.00  0.00    +0.000 C 
ATOM     18  O   UNL     1       5.513   3.497  15.847  0.00  0.00    +0.000 OA
ENDBRANCH  11  18
ENDBRANCH   1  14
BRANCH   4  19
ATOM     19  C   UNL     1       1.204  11.709  18.308  0.00  0.00    +0.000 C 
ATOM     20  C   UNL     1       1.841  12.992  18.804  0.00  0.00    +0.000 C 
ATOM     21  C   UNL     1       2.648  12.036  17.998  0.00  0.00    +0.000 C 
ENDBRANCH   4  19
BRANCH  10  22
ATOM     22  C   UNL     1       1.662   5.869  20.606  0.00  0.00    +0.000 C 
ATOM     23  O   UNL     1       0.744   5.066  20.491  0.00  0.00    +0.000 OA
BRANCH  22  24
ATOM     24  O   UNL     1       2.715   5.516  21.362  0.00  0.00    +0.000 OA
ATOM     25  H   UNL     1       3.332   4.856  20.977  0.00  0.00    +0.000 HD
ENDBRANCH  22  24
ENDBRANCH  10  22
BRANCH   5  26
ATOM     26  C   UNL     1      -0.623  12.337  20.644  0.00  0.00    +0.000 C 
BRANCH  26  27
ATOM     27  C   UNL     1      -2.138  12.441  20.553  0.00  0.00    +0.000 A 
ATOM     28  C   UNL     1      -2.836  12.808  21.718  0.00  0.00    +0.000 A 
ATOM     29  C   UNL     1      -4.225  12.850  21.739  0.00  0.00    +0.000 A 
ATOM     30  C   UNL     1      -4.943  12.491  20.604  0.00  0.00    +0.000 A 
ATOM     31  C   UNL     1      -4.284  12.106  19.428  0.00  0.00    +0.000 A 
ATOM     32  C   UNL     1      -5.032  11.696  18.312  0.00  0.00    +0.000 A 
ATOM     33  C   UNL     1      -4.408  11.321  17.124  0.00  0.00    +0.000 A 
ATOM     34  C   UNL     1      -3.028  11.402  17.021  0.00  0.00    +0.000 A 
ATOM     35  C   UNL     1      -2.273  11.810  18.123  0.00  0.00    +0.000 A 
ATOM     36  C   UNL     1      -2.867  12.120  19.368  0.00  0.00    +0.000 A 
ENDBRANCH  26  27
ENDBRANCH   5  26
TORSDOF 7
ENDMDL
MODEL 4
REMARK VINA RESULT:      -8.0      0.770      1.949
REMARK  Name = 
REMARK  8 active torsions:
REMARK  status: ('A' for Active; 'I' for Inactive)
REMARK    1  A    between atoms: C_1  and  O_2
REMARK    2  A    between atoms: O_2  and  C_3
REMARK    3  A    between atoms: C_6  and  C_7
REMARK    4  A    between atoms: C_10  and  C_11
REMARK    5  A    between atoms: C_14  and  C_15
REMARK    6  A    between atoms: C_15  and  C_16
REMARK    7  A    between atoms: C_30  and  C_31
REMARK    8  A    between atoms: C_31  and  O_33
REMARK                            x       y       z     vdW  Elec       q    Type
REMARK                         _______ _______ _______ _____ _____    ______ ____
ROOT
ATOM      1  C   UNL     1       0.762   9.876  20.850  0.00  0.00    +0.000 A 
ATOM      2  S   UNL     1       0.854   8.334  21.631  0.00  0.00    +0.000 S 
ATOM      3  C   UNL     1       1.526   7.664  20.174  0.00  0.00    +0.000 A 
ATOM      4  C   UNL     1       1.832   6.348  20.018  0.00  0.00    +0.000 A 
ATOM      5  C   UNL     1       2.462   5.944  18.738  0.00  0.00    +0.000 A 
ATOM      6  C   UNL     1       2.535   6.848  17.745  0.00  0.00    +0.000 A 
ATOM      7  C   UNL     1       2.140   8.258  17.919  0.00  0.00    +0.000 A 
ATOM      8  O   UNL     1       2.252   9.005  16.951  0.00  0.00    +0.000 OA
ATOM      9  N   UNL     1       1.702   8.619  19.169  0.00  0.00    +0.000 N 
ATOM     10  C   UNL     1       1.276   9.885  19.603  0.00  0.00    +0.000 A 
ENDROOT
BRANCH   1  14
ATOM     11  C   UNL     1      -1.362  12.887  23.014  0.00  0.00    +0.000 A 
ATOM     12  C   UNL     1      -1.662  11.535  23.187  0.00  0.00    +0.000 A 
ATOM     13  C   UNL     1      -0.949  10.559  22.493  0.00  0.00    +0.000 A 
ATOM     14  C   UNL     1       0.070  10.927  21.601  0.00  0.00    +0.000 A 
ATOM     15  C   UNL     1       0.363  12.281  21.422  0.00  0.00    +0.000 A 
ATOM     16  C   UNL     1      -0.355  13.260  22.123  0.00  0.00    +0.000 A 
BRANCH  11  18
ATOM     17  C   UNL     1      -3.401  13.228  24.155  0.00  0.00    +0.000 C 
ATOM     18  O   UNL     1      -2.144  13.743  23.737  0.00  0.00    +0.000 OA
ENDBRANCH  11  18
ENDBRANCH   1  14
BRANCH   4  19
ATOM     19  C   UNL     1       1.660   5.312  21.072  0.00  0.00    +0.000 C 
ATOM     20  C   UNL     1       1.073   3.954  20.739  0.00  0.00    +0.000 C 
ATOM     21  C   UNL     1       2.514   4.062  21.095  0.00  0.00    +0.000 C 
ENDBRANCH   4  19
BRANCH  10  22
ATOM     22  C   UNL     1       1.332  11.191  18.856  0.00  0.00    +0.000 C 
ATOM     23  O   UNL     1       2.295  11.947  18.901  0.00  0.00    +0.000 OA
BRANCH  22  24
ATOM     24  O   UNL     1       0.327  11.503  18.020  0.00  0.00    +0.000 OA
ATOM     25  H   UNL     1       0.281  10.998  17.180  0.00  0.00    +0.000 HD
ENDBRANCH  22  24
ENDBRANCH  10  22
BRANCH   5  26
ATOM     26  C   UNL     1       3.046   4.561  18.484  0.00  0.00    +0.000 C 
BRANCH  26  27
ATOM     27  C   UNL     1       4.270   4.582  17.580  0.00  0.00    +0.000 A 
ATOM     28  C   UNL     1       4.095   4.198  16.238  0.00  0.00    +0.000 A 
ATOM     29  C   UNL     1       5.176   4.116  15.369  0.00  0.00    +0.000 A 
ATOM     30  C   UNL     1       6.458   4.382  15.835  0.00  0.00    +0.000 A 
ATOM     31  C   UNL     1       6.676   4.753  17.170  0.00  0.00    +0.000 A 
ATOM     32  C   UNL     1       7.986   4.963  17.630  0.00  0.00    +0.000 A 
ATOM     33  C   UNL     1       8.234   5.348  18.946  0.00  0.00    +0.000 A 
ATOM     34  C   UNL     1       7.170   5.576  19.805  0.00  0.00    +0.000 A 
ATOM     35  C   UNL     1       5.863   5.372  19.359  0.00  0.00    +0.000 A 
ATOM     36  C   UNL     1       5.577   4.906  18.054  0.00  0.00    +0.000 A 
ENDBRANCH  26  27
ENDBRANCH   5  26
TORSDOF 7
ENDMDL
MODEL 5
REMARK VINA RESULT:      -7.9      2.479     10.251
REMARK  Name = 
REMARK  8 active torsions:
REMARK  status: ('A' for Active; 'I' for Inactive)
REMARK    1  A    between atoms: C_1  and  O_2
REMARK    2  A    between atoms: O_2  and  C_3
REMARK    3  A    between atoms: C_6  and  C_7
REMARK    4  A    between atoms: C_10  and  C_11
REMARK    5  A    between atoms: C_14  and  C_15
REMARK    6  A    between atoms: C_15  and  C_16
REMARK    7  A    between atoms: C_30  and  C_31
REMARK    8  A    between atoms: C_31  and  O_33
REMARK                            x       y       z     vdW  Elec       q    Type
REMARK                         _______ _______ _______ _____ _____    ______ ____
ROOT
ATOM      1  C   UNL     1       2.506   7.342  18.751  0.00  0.00    +0.000 A 
ATOM      2  S   UNL     1       2.472   8.944  18.097  0.00  0.00    +0.000 S 
ATOM      3  C   UNL     1       1.313   9.390  19.315  0.00  0.00    +0.000 A 
ATOM      4  C   UNL     1       0.734  10.617  19.394  0.00  0.00    +0.000 A 
ATOM      5  C   UNL     1      -0.185  10.863  20.531  0.00  0.00    +0.000 A 
ATOM      6  C   UNL     1      -0.532   9.825  21.312  0.00  0.00    +0.000 A 
ATOM      7  C   UNL     1       0.065   8.484  21.169  0.00  0.00    +0.000 A 
ATOM      8  O   UNL     1      -0.316   7.605  21.937  0.00  0.00    +0.000 OA
ATOM      9  N   UNL     1       1.023   8.344  20.195  0.00  0.00    +0.000 N 
ATOM     10  C   UNL     1       1.748   7.190  19.856  0.00  0.00    +0.000 A 
ENDROOT
BRANCH   1  14
ATOM     11  C   UNL     1       4.752   4.557  16.414  0.00  0.00    +0.000 A 
ATOM     12  C   UNL     1       5.207   5.862  16.605  0.00  0.00    +0.000 A 
ATOM     13  C   UNL     1       4.478   6.757  17.386  0.00  0.00    +0.000 A 
ATOM     14  C   UNL     1       3.271   6.359  17.979  0.00  0.00    +0.000 A 
ATOM     15  C   UNL     1       2.811   5.054  17.779  0.00  0.00    +0.000 A 
ATOM     16  C   UNL     1       3.547   4.156  16.994  0.00  0.00    +0.000 A 
BRANCH  11  18
ATOM     17  C   UNL     1       6.695   4.429  15.078  0.00  0.00    +0.000 C 
ATOM     18  O   UNL     1       5.547   3.786  15.613  0.00  0.00    +0.000 OA
ENDBRANCH  11  18
ENDBRANCH   1  14
BRANCH   4  19
ATOM     19  C   UNL     1       1.028  11.749  18.473  0.00  0.00    +0.000 C 
ATOM     20  C   UNL     1       1.656  13.029  18.989  0.00  0.00    +0.000 C 
ATOM     21  C   UNL     1       2.450  12.124  18.113  0.00  0.00    +0.000 C 
ENDBRANCH   4  19
BRANCH  10  22
ATOM     22  C   UNL     1       1.766   5.862  20.566  0.00  0.00    +0.000 C 
ATOM     23  O   UNL     1       0.842   5.061  20.510  0.00  0.00    +0.000 OA
BRANCH  22  24
ATOM     24  O   UNL     1       2.885   5.486  21.208  0.00  0.00    +0.000 OA
ATOM     25  H   UNL     1       3.012   5.838  22.116  0.00  0.00    +0.000 HD
ENDBRANCH  22  24
ENDBRANCH  10  22
BRANCH   5  26
ATOM     26  C   UNL     1      -0.753  12.234  20.877  0.00  0.00    +0.000 C 
BRANCH  26  27
ATOM     27  C   UNL     1      -2.266  12.310  20.740  0.00  0.00    +0.000 A 
ATOM     28  C   UNL     1      -2.807  12.227  19.444  0.00  0.00    +0.000 A 
ATOM     29  C   UNL     1      -4.172  12.367  19.227  0.00  0.00    +0.000 A 
ATOM     30  C   UNL     1      -5.018  12.627  20.298  0.00  0.00    +0.000 A 
ATOM     31  C   UNL     1      -4.516  12.731  21.603  0.00  0.00    +0.000 A 
ATOM     32  C   UNL     1      -5.384  13.049  22.661  0.00  0.00    +0.000 A 
ATOM     33  C   UNL     1      -4.918  13.144  23.971  0.00  0.00    +0.000 A 
ATOM     34  C   UNL     1      -3.587  12.873  24.245  0.00  0.00    +0.000 A 
ATOM     35  C   UNL     1      -2.714  12.555  23.202  0.00  0.00    +0.000 A 
ATOM     36  C   UNL     1      -3.135  12.527  21.852  0.00  0.00    +0.000 A 
ENDBRANCH  26  27
ENDBRANCH   5  26
TORSDOF 7
ENDMDL
MODEL 6
REMARK VINA RESULT:      -7.5      2.955     10.526
REMARK  Name = 
REMARK  8 active torsions:
REMARK  status: ('A' for Active; 'I' for Inactive)
REMARK    1  A    between atoms: C_1  and  O_2
REMARK    2  A    between atoms: O_2  and  C_3
REMARK    3  A    between atoms: C_6  and  C_7
REMARK    4  A    between atoms: C_10  and  C_11
REMARK    5  A    between atoms: C_14  and  C_15
REMARK    6  A    between atoms: C_15  and  C_16
REMARK    7  A    between atoms: C_30  and  C_31
REMARK    8  A    between atoms: C_31  and  O_33
REMARK                            x       y       z     vdW  Elec       q    Type
REMARK                         _______ _______ _______ _____ _____    ______ ____
ROOT
ATOM      1  C   UNL     1       0.926   9.262  19.673  0.00  0.00    +0.000 A 
ATOM      2  S   UNL     1      -0.014   9.961  18.398  0.00  0.00    +0.000 S 
ATOM      3  C   UNL     1      -0.905  10.868  19.585  0.00  0.00    +0.000 A 
ATOM      4  C   UNL     1      -1.950  11.684  19.284  0.00  0.00    +0.000 A 
ATOM      5  C   UNL     1      -2.564  12.441  20.401  0.00  0.00    +0.000 A 
ATOM      6  C   UNL     1      -2.180  12.155  21.658  0.00  0.00    +0.000 A 
ATOM      7  C   UNL     1      -1.083  11.220  21.964  0.00  0.00    +0.000 A 
ATOM      8  O   UNL     1      -0.806  11.033  23.145  0.00  0.00    +0.000 OA
ATOM      9  N   UNL     1      -0.445  10.655  20.887  0.00  0.00    +0.000 N 
ATOM     10  C   UNL     1       0.626   9.747  20.897  0.00  0.00    +0.000 A 
ENDROOT
BRANCH   1  14
ATOM     11  C   UNL     1       3.561   6.154  18.389  0.00  0.00    +0.000 A 
ATOM     12  C   UNL     1       3.451   7.343  17.668  0.00  0.00    +0.000 A 
ATOM     13  C   UNL     1       2.605   8.360  18.106  0.00  0.00    +0.000 A 
ATOM     14  C   UNL     1       1.843   8.193  19.272  0.00  0.00    +0.000 A 
ATOM     15  C   UNL     1       1.947   6.998  19.989  0.00  0.00    +0.000 A 
ATOM     16  C   UNL     1       2.801   5.978  19.546  0.00  0.00    +0.000 A 
BRANCH  11  18
ATOM     17  C   UNL     1       5.042   4.353  18.767  0.00  0.00    +0.000 C 
ATOM     18  O   UNL     1       4.410   5.231  17.845  0.00  0.00    +0.000 OA
ENDBRANCH  11  18
ENDBRANCH   1  14
BRANCH   4  19
ATOM     19  C   UNL     1      -2.457  11.932  17.907  0.00  0.00    +0.000 C 
ATOM     20  C   UNL     1      -2.748  10.779  16.965  0.00  0.00    +0.000 C 
ATOM     21  C   UNL     1      -3.876  11.580  17.514  0.00  0.00    +0.000 C 
ENDBRANCH   4  19
BRANCH  10  22
ATOM     22  C   UNL     1       1.437   9.278  22.075  0.00  0.00    +0.000 C 
ATOM     23  O   UNL     1       2.511   9.777  22.389  0.00  0.00    +0.000 OA
BRANCH  22  24
ATOM     24  O   UNL     1       0.921   8.339  22.885  0.00  0.00    +0.000 OA
ATOM     25  H   UNL     1       1.315   7.442  22.828  0.00  0.00    +0.000 HD
ENDBRANCH  22  24
ENDBRANCH  10  22
BRANCH   5  26
ATOM     26  C   UNL     1      -3.601  13.541  20.206  0.00  0.00    +0.000 C 
BRANCH  26  27
ATOM     27  C   UNL     1      -4.690  13.535  21.269  0.00  0.00    +0.000 A 
ATOM     28  C   UNL     1      -4.547  14.420  22.353  0.00  0.00    +0.000 A 
ATOM     29  C   UNL     1      -5.457  14.421  23.403  0.00  0.00    +0.000 A 
ATOM     30  C   UNL     1      -6.508  13.511  23.406  0.00  0.00    +0.000 A 
ATOM     31  C   UNL     1      -6.675  12.603  22.351  0.00  0.00    +0.000 A 
ATOM     32  C   UNL     1      -7.713  11.657  22.404  0.00  0.00    +0.000 A 
ATOM     33  C   UNL     1      -7.916  10.751  21.366  0.00  0.00    +0.000 A 
ATOM     34  C   UNL     1      -7.114  10.814  20.237  0.00  0.00    +0.000 A 
ATOM     35  C   UNL     1      -6.080  11.750  20.171  0.00  0.00    +0.000 A 
ATOM     36  C   UNL     1      -5.795  12.632  21.240  0.00  0.00    +0.000 A 
ENDBRANCH  26  27
ENDBRANCH   5  26
TORSDOF 7
ENDMDL
MODEL 7
REMARK VINA RESULT:      -7.5      4.649     11.339
REMARK  Name = 
REMARK  8 active torsions:
REMARK  status: ('A' for Active; 'I' for Inactive)
REMARK    1  A    between atoms: C_1  and  O_2
REMARK    2  A    between atoms: O_2  and  C_3
REMARK    3  A    between atoms: C_6  and  C_7
REMARK    4  A    between atoms: C_10  and  C_11
REMARK    5  A    between atoms: C_14  and  C_15
REMARK    6  A    between atoms: C_15  and  C_16
REMARK    7  A    between atoms: C_30  and  C_31
REMARK    8  A    between atoms: C_31  and  O_33
REMARK                            x       y       z     vdW  Elec       q    Type
REMARK                         _______ _______ _______ _____ _____    ______ ____
ROOT
ATOM      1  C   UNL     1      -0.965  10.792  19.570  0.00  0.00    +0.000 A 
ATOM      2  S   UNL     1      -2.334  10.705  18.514  0.00  0.00    +0.000 S 
ATOM      3  C   UNL     1      -3.157  11.853  19.529  0.00  0.00    +0.000 A 
ATOM      4  C   UNL     1      -4.437  12.263  19.321  0.00  0.00    +0.000 A 
ATOM      5  C   UNL     1      -4.976  13.298  20.236  0.00  0.00    +0.000 A 
ATOM      6  C   UNL     1      -4.248  13.644  21.313  0.00  0.00    +0.000 A 
ATOM      7  C   UNL     1      -2.883  13.139  21.550  0.00  0.00    +0.000 A 
ATOM      8  O   UNL     1      -2.302  13.522  22.561  0.00  0.00    +0.000 OA
ATOM      9  N   UNL     1      -2.371  12.297  20.595  0.00  0.00    +0.000 N 
ATOM     10  C   UNL     1      -1.107  11.685  20.572  0.00  0.00    +0.000 A 
ENDROOT
BRANCH   1  14
ATOM     11  C   UNL     1       2.228   8.041  18.865  0.00  0.00    +0.000 A 
ATOM     12  C   UNL     1       1.629   8.135  20.121  0.00  0.00    +0.000 A 
ATOM     13  C   UNL     1       0.574   9.020  20.336  0.00  0.00    +0.000 A 
ATOM     14  C   UNL     1       0.111   9.837  19.293  0.00  0.00    +0.000 A 
ATOM     15  C   UNL     1       0.719   9.749  18.037  0.00  0.00    +0.000 A 
ATOM     16  C   UNL     1       1.778   8.856  17.825  0.00  0.00    +0.000 A 
BRANCH  11  18
ATOM     17  C   UNL     1       3.696   6.817  17.477  0.00  0.00    +0.000 C 
ATOM     18  O   UNL     1       3.262   7.151  18.789  0.00  0.00    +0.000 OA
ENDBRANCH  11  18
ENDBRANCH   1  14
BRANCH   4  19
ATOM     19  C   UNL     1      -5.295  11.810  18.192  0.00  0.00    +0.000 C 
ATOM     20  C   UNL     1      -5.793  10.380  18.118  0.00  0.00    +0.000 C 
ATOM     21  C   UNL     1      -6.757  11.478  18.399  0.00  0.00    +0.000 C 
ENDBRANCH   4  19
BRANCH  10  22
ATOM     22  C   UNL     1       0.054  11.913  21.504  0.00  0.00    +0.000 C 
ATOM     23  O   UNL     1       1.040  12.570  21.196  0.00  0.00    +0.000 OA
BRANCH  22  24
ATOM     24  O   UNL     1      -0.033  11.464  22.767  0.00  0.00    +0.000 OA
ATOM     25  H   UNL     1       0.636  11.801  23.401  0.00  0.00    +0.000 HD
ENDBRANCH  22  24
ENDBRANCH  10  22
BRANCH   5  26
ATOM     26  C   UNL     1      -6.307  14.007  20.019  0.00  0.00    +0.000 C 
BRANCH  26  27
ATOM     27  C   UNL     1      -6.166  15.347  19.311  0.00  0.00    +0.000 A 
ATOM     28  C   UNL     1      -5.529  16.388  20.010  0.00  0.00    +0.000 A 
ATOM     29  C   UNL     1      -5.431  17.662  19.465  0.00  0.00    +0.000 A 
ATOM     30  C   UNL     1      -5.999  17.927  18.224  0.00  0.00    +0.000 A 
ATOM     31  C   UNL     1      -6.655  16.920  17.503  0.00  0.00    +0.000 A 
ATOM     32  C   UNL     1      -7.269  17.226  16.277  0.00  0.00    +0.000 A 
ATOM     33  C   UNL     1      -7.915  16.244  15.530  0.00  0.00    +0.000 A 
ATOM     34  C   UNL     1      -7.912  14.932  15.975  0.00  0.00    +0.000 A 
ATOM     35  C   UNL     1      -7.304  14.614  17.192  0.00  0.00    +0.000 A 
ATOM     36  C   UNL     1      -6.708  15.598  18.015  0.00  0.00    +0.000 A 
ENDBRANCH  26  27
ENDBRANCH   5  26
TORSDOF 7
ENDMDL
MODEL 8
REMARK VINA RESULT:      -7.5      3.219      5.552
REMARK  Name = 
REMARK  8 active torsions:
REMARK  status: ('A' for Active; 'I' for Inactive)
REMARK    1  A    between atoms: C_1  and  O_2
REMARK    2  A    between atoms: O_2  and  C_3
REMARK    3  A    between atoms: C_6  and  C_7
REMARK    4  A    between atoms: C_10  and  C_11
REMARK    5  A    between atoms: C_14  and  C_15
REMARK    6  A    between atoms: C_15  and  C_16
REMARK    7  A    between atoms: C_30  and  C_31
REMARK    8  A    between atoms: C_31  and  O_33
REMARK                            x       y       z     vdW  Elec       q    Type
REMARK                         _______ _______ _______ _____ _____    ______ ____
ROOT
ATOM      1  C   UNL     1      -3.531  12.819  19.979  0.00  0.00    +0.000 A 
ATOM      2  S   UNL     1      -1.954  13.019  20.665  0.00  0.00    +0.000 S 
ATOM      3  C   UNL     1      -1.362  11.772  19.607  0.00  0.00    +0.000 A 
ATOM      4  C   UNL     1      -0.084  11.310  19.624  0.00  0.00    +0.000 A 
ATOM      5  C   UNL     1       0.284  10.290  18.613  0.00  0.00    +0.000 A 
ATOM      6  C   UNL     1      -0.692   9.753  17.859  0.00  0.00    +0.000 A 
ATOM      7  C   UNL     1      -2.086  10.230  17.900  0.00  0.00    +0.000 A 
ATOM      8  O   UNL     1      -2.900   9.677  17.166  0.00  0.00    +0.000 OA
ATOM      9  N   UNL     1      -2.347  11.279  18.747  0.00  0.00    +0.000 N 
ATOM     10  C   UNL     1      -3.574  11.923  18.971  0.00  0.00    +0.000 A 
ENDROOT
BRANCH   1  14
ATOM     11  C   UNL     1      -6.584  15.092  21.919  0.00  0.00    +0.000 A 
ATOM     12  C   UNL     1      -5.626  15.716  21.119  0.00  0.00    +0.000 A 
ATOM     13  C   UNL     1      -4.647  14.964  20.473  0.00  0.00    +0.000 A 
ATOM     14  C   UNL     1      -4.605  13.570  20.631  0.00  0.00    +0.000 A 
ATOM     15  C   UNL     1      -5.560  12.948  21.441  0.00  0.00    +0.000 A 
ATOM     16  C   UNL     1      -6.544  13.707  22.088  0.00  0.00    +0.000 A 
BRANCH  11  18
ATOM     17  C   UNL     1      -6.947  16.788  23.522  0.00  0.00    +0.000 C 
ATOM     18  O   UNL     1      -7.477  15.942  22.511  0.00  0.00    +0.000 OA
ENDBRANCH  11  18
ENDBRANCH   1  14
BRANCH   4  19
ATOM     19  C   UNL     1       0.985  11.819  20.526  0.00  0.00    +0.000 C 
ATOM     20  C   UNL     1       1.934  12.911  20.069  0.00  0.00    +0.000 C 
ATOM     21  C   UNL     1       0.920  13.212  21.116  0.00  0.00    +0.000 C 
ENDBRANCH   4  19
BRANCH  10  22
ATOM     22  C   UNL     1      -4.875  11.728  18.237  0.00  0.00    +0.000 C 
ATOM     23  O   UNL     1      -5.291  12.513  17.394  0.00  0.00    +0.000 OA
BRANCH  22  24
ATOM     24  O   UNL     1      -5.567  10.594  18.436  0.00  0.00    +0.000 OA
ATOM     25  H   UNL     1      -5.235   9.790  17.981  0.00  0.00    +0.000 HD
ENDBRANCH  22  24
ENDBRANCH  10  22
BRANCH   5  26
ATOM     26  C   UNL     1       1.712   9.821  18.367  0.00  0.00    +0.000 C 
BRANCH  26  27
ATOM     27  C   UNL     1       1.982   8.417  18.886  0.00  0.00    +0.000 A 
ATOM     28  C   UNL     1       1.370   8.041  20.096  0.00  0.00    +0.000 A 
ATOM     29  C   UNL     1       1.628   6.806  20.677  0.00  0.00    +0.000 A 
ATOM     30  C   UNL     1       2.530   5.936  20.076  0.00  0.00    +0.000 A 
ATOM     31  C   UNL     1       3.172   6.279  18.878  0.00  0.00    +0.000 A 
ATOM     32  C   UNL     1       4.121   5.406  18.320  0.00  0.00    +0.000 A 
ATOM     33  C   UNL     1       4.764   5.712  17.122  0.00  0.00    +0.000 A 
ATOM     34  C   UNL     1       4.429   6.871  16.442  0.00  0.00    +0.000 A 
ATOM     35  C   UNL     1       3.486   7.747  16.985  0.00  0.00    +0.000 A 
ATOM     36  C   UNL     1       2.872   7.508  18.237  0.00  0.00    +0.000 A 
ENDBRANCH  26  27
ENDBRANCH   5  26
TORSDOF 7
ENDMDL
MODEL 9
REMARK VINA RESULT:      -7.4      3.059      5.810
REMARK  Name = 
REMARK  8 active torsions:
REMARK  status: ('A' for Active; 'I' for Inactive)
REMARK    1  A    between atoms: C_1  and  O_2
REMARK    2  A    between atoms: O_2  and  C_3
REMARK    3  A    between atoms: C_6  and  C_7
REMARK    4  A    between atoms: C_10  and  C_11
REMARK    5  A    between atoms: C_14  and  C_15
REMARK    6  A    between atoms: C_15  and  C_16
REMARK    7  A    between atoms: C_30  and  C_31
REMARK    8  A    between atoms: C_31  and  O_33
REMARK                            x       y       z     vdW  Elec       q    Type
REMARK                         _______ _______ _______ _____ _____    ______ ____
ROOT
ATOM      1  C   UNL     1      -2.461  13.974  21.513  0.00  0.00    +0.000 A 
ATOM      2  S   UNL     1      -2.939  12.657  20.497  0.00  0.00    +0.000 S 
ATOM      3  C   UNL     1      -1.265  12.373  20.121  0.00  0.00    +0.000 A 
ATOM      4  C   UNL     1      -0.838  11.422  19.247  0.00  0.00    +0.000 A 
ATOM      5  C   UNL     1       0.627  11.258  19.083  0.00  0.00    +0.000 A 
ATOM      6  C   UNL     1       1.442  12.158  19.662  0.00  0.00    +0.000 A 
ATOM      7  C   UNL     1       0.950  13.219  20.560  0.00  0.00    +0.000 A 
ATOM      8  O   UNL     1       1.778  13.987  21.043  0.00  0.00    +0.000 OA
ATOM      9  N   UNL     1      -0.402  13.238  20.798  0.00  0.00    +0.000 N 
ATOM     10  C   UNL     1      -1.123  14.128  21.610  0.00  0.00    +0.000 A 
ENDROOT
BRANCH   1  14
ATOM     11  C   UNL     1      -5.706  16.245  23.117  0.00  0.00    +0.000 A 
ATOM     12  C   UNL     1      -5.165  15.171  23.825  0.00  0.00    +0.000 A 
ATOM     13  C   UNL     1      -4.093  14.450  23.303  0.00  0.00    +0.000 A 
ATOM     14  C   UNL     1      -3.553  14.788  22.053  0.00  0.00    +0.000 A 
ATOM     15  C   UNL     1      -4.102  15.857  21.340  0.00  0.00    +0.000 A 
ATOM     16  C   UNL     1      -5.180  16.581  21.869  0.00  0.00    +0.000 A 
BRANCH  11  18
ATOM     17  C   UNL     1      -6.931  18.238  23.437  0.00  0.00    +0.000 C 
ATOM     18  O   UNL     1      -6.765  16.857  23.727  0.00  0.00    +0.000 OA
ENDBRANCH  11  18
ENDBRANCH   1  14
BRANCH   4  19
ATOM     19  C   UNL     1      -1.734  10.485  18.516  0.00  0.00    +0.000 C 
ATOM     20  C   UNL     1      -2.638  10.980  17.404  0.00  0.00    +0.000 C 
ATOM     21  C   UNL     1      -1.475  10.113  17.071  0.00  0.00    +0.000 C 
ENDBRANCH   4  19
BRANCH  10  22
ATOM     22  C   UNL     1      -0.586  15.187  22.536  0.00  0.00    +0.000 C 
ATOM     23  O   UNL     1      -0.467  15.022  23.744  0.00  0.00    +0.000 OA
BRANCH  22  24
ATOM     24  O   UNL     1      -0.117  16.330  22.009  0.00  0.00    +0.000 OA
ATOM     25  H   UNL     1      -0.274  16.471  21.050  0.00  0.00    +0.000 HD
ENDBRANCH  22  24
ENDBRANCH  10  22
BRANCH   5  26
ATOM     26  C   UNL     1       1.267  10.116  18.306  0.00  0.00    +0.000 C 
BRANCH  26  27
ATOM     27  C   UNL     1       1.466   8.858  19.139  0.00  0.00    +0.000 A 
ATOM     28  C   UNL     1       0.794   8.781  20.372  0.00  0.00    +0.000 A 
ATOM     29  C   UNL     1       0.985   7.703  21.227  0.00  0.00    +0.000 A 
ATOM     30  C   UNL     1       1.879   6.697  20.879  0.00  0.00    +0.000 A 
ATOM     31  C   UNL     1       2.580   6.745  19.666  0.00  0.00    +0.000 A 
ATOM     32  C   UNL     1       3.518   5.744  19.363  0.00  0.00    +0.000 A 
ATOM     33  C   UNL     1       4.219   5.755  18.159  0.00  0.00    +0.000 A 
ATOM     34  C   UNL     1       3.952   6.739  17.220  0.00  0.00    +0.000 A 
ATOM     35  C   UNL     1       3.020   7.739  17.509  0.00  0.00    +0.000 A 
ATOM     36  C   UNL     1       2.348   7.805  18.752  0.00  0.00    +0.000 A 
ENDBRANCH  26  27
ENDBRANCH   5  26
TORSDOF 7
ENDMDL
