MODEL 1
REMARK VINA RESULT:      -8.4      0.000      0.000
REMARK  Name = 
REMARK  8 active torsions:
REMARK  status: ('A' for Active; 'I' for Inactive)
REMARK    1  A    between atoms: C_1  and  C_2
REMARK    2  A    between atoms: C_2  and  C_3
REMARK    3  A    between atoms: C_2  and  C_4
REMARK    4  A    between atoms: C_2  and  C_5
REMARK    5  A    between atoms: C_10  and  C_12
REMARK    6  A    between atoms: C_12  and  C_13
REMARK    7  A    between atoms: N_15  and  C_16
REMARK    8  A    between atoms: C_16  and  C_17
REMARK                            x       y       z     vdW  Elec       q    Type
REMARK                         _______ _______ _______ _____ _____    ______ ____
ROOT
ATOM      1  C   UNL     1       2.735   6.925  18.001  0.00  0.00    +0.000 A 
ATOM      2  C   UNL     1       3.973   7.145  17.432  0.00  0.00    +0.000 A 
ATOM      3  N   UNL     1       4.839   6.169  17.855  0.00  0.00    +0.000 N 
ATOM      4  C   UNL     1       4.175   5.286  18.686  0.00  0.00    +0.000 A 
ATOM      5  C   UNL     1       4.612   4.120  19.335  0.00  0.00    +0.000 A 
ATOM      6  C   UNL     1       3.670   3.366  20.047  0.00  0.00    +0.000 A 
ATOM      7  C   UNL     1       2.348   3.785  20.133  0.00  0.00    +0.000 A 
ATOM      8 CL   UNL     1       1.199   2.814  20.972  0.00  0.00    +0.000 Cl
ATOM      9  C   UNL     1       1.926   4.973  19.532  0.00  0.00    +0.000 A 
ATOM     10  C   UNL     1       2.848   5.728  18.782  0.00  0.00    +0.000 A 
ENDROOT
BRANCH   1  11
ATOM     11  C   UNL     1       1.517   7.768  17.808  0.00  0.00    +0.000 C 
BRANCH  11  17
ATOM     12  C   UNL     1       1.375  13.130  19.884  0.00  0.00    +0.000 A 
ATOM     13  C   UNL     1       0.765  12.880  21.107  0.00  0.00    +0.000 A 
ATOM     14  S   UNL     1       0.269  11.237  21.200  0.00  0.00    +0.000 S 
ATOM     15  C   UNL     1       0.997  10.955  19.688  0.00  0.00    +0.000 A 
ATOM     16  N   UNL     1       0.952   9.663  19.250  0.00  0.00    +0.000 N 
ATOM     17  C   UNL     1       1.683   9.236  18.167  0.00  0.00    +0.000 C 
ATOM     18  O   UNL     1       2.514   9.906  17.550  0.00  0.00    +0.000 OA
ATOM     19  N   UNL     1       1.530  11.992  19.102  0.00  0.00    +0.000 NA
ATOM     20  H   UNL     1       0.386   9.026  19.789  0.00  0.00    +0.000 HD
BRANCH  12  22
ATOM     21  C   UNL     1       2.796  14.176  18.113  0.00  0.00    +0.000 C 
ATOM     22  C   UNL     1       1.912  14.446  19.342  0.00  0.00    +0.000 C 
ATOM     23  C   UNL     1       2.739  15.200  20.402  0.00  0.00    +0.000 C 
ATOM     24  C   UNL     1       0.747  15.369  18.918  0.00  0.00    +0.000 C 
ENDBRANCH  12  22
ENDBRANCH  11  17
ENDBRANCH   1  11
BRANCH   3  25
ATOM     25  C   UNL     1       6.169   5.972  17.283  0.00  0.00    +0.000 C 
BRANCH  25  26
ATOM     26  C   UNL     1       6.194   5.412  15.881  0.00  0.00    +0.000 A 
ATOM     27  C   UNL     1       5.223   4.514  15.434  0.00  0.00    +0.000 A 
ATOM     28  C   UNL     1       5.427   3.834  14.234  0.00  0.00    +0.000 A 
ATOM     29  C   UNL     1       6.580   4.073  13.501  0.00  0.00    +0.000 A 
ATOM     30  C   UNL     1       7.475   5.009  13.986  0.00  0.00    +0.000 A 
ATOM     31  N   UNL     1       7.312   5.675  15.152  0.00  0.00    +0.000 NA
ENDBRANCH  25  26
ENDBRANCH   3  25
TORSDOF 5
ENDMDL
MODEL 2
REMARK VINA RESULT:      -8.1      2.863      8.834
REMARK  Name = 
REMARK  8 active torsions:
REMARK  status: ('A' for Active; 'I' for Inactive)
REMARK    1  A    between atoms: C_1  and  C_2
REMARK    2  A    between atoms: C_2  and  C_3
REMARK    3  A    between atoms: C_2  and  C_4
REMARK    4  A    between atoms: C_2  and  C_5
REMARK    5  A    between atoms: C_10  and  C_12
REMARK    6  A    between atoms: C_12  and  C_13
REMARK    7  A    between atoms: N_15  and  C_16
REMARK    8  A    between atoms: C_16  and  C_17
REMARK                            x       y       z     vdW  Elec       q    Type
REMARK                         _______ _______ _______ _____ _____    ______ ____
ROOT
ATOM      1  C   UNL     1       0.720   9.983  20.209  0.00  0.00    +0.000 A 
ATOM      2  C   UNL     1       1.289  11.109  20.768  0.00  0.00    +0.000 A 
ATOM      3  N   UNL     1       0.776  12.221  20.153  0.00  0.00    +0.000 N 
ATOM      4  C   UNL     1      -0.152  11.840  19.201  0.00  0.00    +0.000 A 
ATOM      5  C   UNL     1      -0.964  12.600  18.344  0.00  0.00    +0.000 A 
ATOM      6  C   UNL     1      -1.892  11.926  17.541  0.00  0.00    +0.000 A 
ATOM      7  C   UNL     1      -1.980  10.539  17.573  0.00  0.00    +0.000 A 
ATOM      8 CL   UNL     1      -3.165   9.738  16.613  0.00  0.00    +0.000 Cl
ATOM      9  C   UNL     1      -1.135   9.781  18.386  0.00  0.00    +0.000 A 
ATOM     10  C   UNL     1      -0.218  10.439  19.227  0.00  0.00    +0.000 A 
ENDROOT
BRANCH   1  11
ATOM     11  C   UNL     1       1.018   8.567  20.587  0.00  0.00    +0.000 C 
BRANCH  11  17
ATOM     12  C   UNL     1       4.756   5.105  17.918  0.00  0.00    +0.000 A 
ATOM     13  C   UNL     1       4.460   3.914  18.568  0.00  0.00    +0.000 A 
ATOM     14  S   UNL     1       3.346   4.194  19.845  0.00  0.00    +0.000 S 
ATOM     15  C   UNL     1       3.246   5.825  19.371  0.00  0.00    +0.000 A 
ATOM     16  N   UNL     1       2.365   6.587  20.083  0.00  0.00    +0.000 N 
ATOM     17  C   UNL     1       2.008   7.852  19.681  0.00  0.00    +0.000 C 
ATOM     18  O   UNL     1       2.340   8.393  18.623  0.00  0.00    +0.000 OA
ATOM     19  N   UNL     1       4.012   6.185  18.378  0.00  0.00    +0.000 NA
ATOM     20  H   UNL     1       1.954   6.156  20.897  0.00  0.00    +0.000 HD
BRANCH  12  22
ATOM     21  C   UNL     1       6.001   4.025  16.038  0.00  0.00    +0.000 C 
ATOM     22  C   UNL     1       5.731   5.348  16.775  0.00  0.00    +0.000 C 
ATOM     23  C   UNL     1       7.067   5.925  17.281  0.00  0.00    +0.000 C 
ATOM     24  C   UNL     1       5.138   6.361  15.768  0.00  0.00    +0.000 C 
ENDBRANCH  12  22
ENDBRANCH  11  17
ENDBRANCH   1  11
BRANCH   3  25
ATOM     25  C   UNL     1       0.995  13.582  20.639  0.00  0.00    +0.000 C 
BRANCH  25  26
ATOM     26  C   UNL     1       1.853  14.455  19.756  0.00  0.00    +0.000 A 
ATOM     27  C   UNL     1       1.416  15.706  19.317  0.00  0.00    +0.000 A 
ATOM     28  C   UNL     1       2.125  16.358  18.309  0.00  0.00    +0.000 A 
ATOM     29  C   UNL     1       3.255  15.760  17.772  0.00  0.00    +0.000 A 
ATOM     30  C   UNL     1       3.652  14.540  18.288  0.00  0.00    +0.000 A 
ATOM     31  N   UNL     1       2.978  13.877  19.257  0.00  0.00    +0.000 NA
ENDBRANCH  25  26
ENDBRANCH   3  25
TORSDOF 5
ENDMDL
MODEL 3
REMARK VINA RESULT:      -8.1      3.565      9.941
REMARK  Name = 
REMARK  8 active torsions:
REMARK  status: ('A' for Active; 'I' for Inactive)
REMARK    1  A    between atoms: C_1  and  C_2
REMARK    2  A    between atoms: C_2  and  C_3
REMARK    3  A    between atoms: C_2  and  C_4
REMARK    4  A    between atoms: C_2  and  C_5
REMARK    5  A    between atoms: C_10  and  C_12
REMARK    6  A    between atoms: C_12  and  C_13
REMARK    7  A    between atoms: N_15  and  C_16
REMARK    8  A    between atoms: C_16  and  C_17
REMARK                            x       y       z     vdW  Elec       q    Type
REMARK                         _______ _______ _______ _____ _____    ______ ____
ROOT
ATOM      1  C   UNL     1       0.121   9.841  21.053  0.00  0.00    +0.000 A 
ATOM      2  C   UNL     1       0.416  10.924  21.857  0.00  0.00    +0.000 A 
ATOM      3  N   UNL     1       0.016  12.072  21.224  0.00  0.00    +0.000 N 
ATOM      4  C   UNL     1      -0.566  11.756  20.010  0.00  0.00    +0.000 A 
ATOM      5  C   UNL     1      -1.153  12.568  19.026  0.00  0.00    +0.000 A 
ATOM      6  C   UNL     1      -1.756  11.945  17.927  0.00  0.00    +0.000 A 
ATOM      7  C   UNL     1      -1.741  10.560  17.803  0.00  0.00    +0.000 A 
ATOM      8 CL   UNL     1      -2.533   9.816  16.467  0.00  0.00    +0.000 Cl
ATOM      9  C   UNL     1      -1.109   9.757  18.754  0.00  0.00    +0.000 A 
ATOM     10  C   UNL     1      -0.527  10.360  19.885  0.00  0.00    +0.000 A 
ENDROOT
BRANCH   1  11
ATOM     11  C   UNL     1       0.408   8.409  21.368  0.00  0.00    +0.000 C 
BRANCH  11  17
ATOM     12  C   UNL     1       4.263   5.083  18.694  0.00  0.00    +0.000 A 
ATOM     13  C   UNL     1       3.847   3.842  19.157  0.00  0.00    +0.000 A 
ATOM     14  S   UNL     1       2.612   4.030  20.336  0.00  0.00    +0.000 S 
ATOM     15  C   UNL     1       2.635   5.708  20.061  0.00  0.00    +0.000 A 
ATOM     16  N   UNL     1       1.715   6.430  20.766  0.00  0.00    +0.000 N 
ATOM     17  C   UNL     1       1.459   7.751  20.489  0.00  0.00    +0.000 C 
ATOM     18  O   UNL     1       1.928   8.394  19.547  0.00  0.00    +0.000 OA
ATOM     19  N   UNL     1       3.520   6.140  19.204  0.00  0.00    +0.000 NA
ATOM     20  H   UNL     1       1.199   5.929  21.473  0.00  0.00    +0.000 HD
BRANCH  12  22
ATOM     21  C   UNL     1       6.703   5.569  18.442  0.00  0.00    +0.000 C 
ATOM     22  C   UNL     1       5.367   5.404  17.698  0.00  0.00    +0.000 C 
ATOM     23  C   UNL     1       5.065   6.695  16.913  0.00  0.00    +0.000 C 
ATOM     24  C   UNL     1       5.514   4.258  16.670  0.00  0.00    +0.000 C 
ENDBRANCH  12  22
ENDBRANCH  11  17
ENDBRANCH   1  11
BRANCH   3  25
ATOM     25  C   UNL     1      -0.020  13.379  21.877  0.00  0.00    +0.000 C 
BRANCH  25  26
ATOM     26  C   UNL     1      -1.088  13.547  22.931  0.00  0.00    +0.000 A 
ATOM     27  C   UNL     1      -2.309  12.874  22.849  0.00  0.00    +0.000 A 
ATOM     28  C   UNL     1      -3.350  13.250  23.696  0.00  0.00    +0.000 A 
ATOM     29  C   UNL     1      -3.151  14.273  24.611  0.00  0.00    +0.000 A 
ATOM     30  C   UNL     1      -1.901  14.863  24.663  0.00  0.00    +0.000 A 
ATOM     31  N   UNL     1      -0.875  14.529  23.847  0.00  0.00    +0.000 NA
ENDBRANCH  25  26
ENDBRANCH   3  25
TORSDOF 5
ENDMDL
MODEL 4
REMARK VINA RESULT:      -8.1      2.966      8.847
REMARK  Name = 
REMARK  8 active torsions:
REMARK  status: ('A' for Active; 'I' for Inactive)
REMARK    1  A    between atoms: C_1  and  C_2
REMARK    2  A    between atoms: C_2  and  C_3
REMARK    3  A    between atoms: C_2  and  C_4
REMARK    4  A    between atoms: C_2  and  C_5
REMARK    5  A    between atoms: C_10  and  C_12
REMARK    6  A    between atoms: C_12  and  C_13
REMARK    7  A    between atoms: N_15  and  C_16
REMARK    8  A    between atoms: C_16  and  C_17
REMARK                            x       y       z     vdW  Elec       q    Type
REMARK                         _______ _______ _______ _____ _____    ______ ____
ROOT
ATOM      1  C   UNL     1       0.582   9.745  20.387  0.00  0.00    +0.000 A 
ATOM      2  C   UNL     1       1.044  10.822  21.117  0.00  0.00    +0.000 A 
ATOM      3  N   UNL     1       0.549  11.977  20.569  0.00  0.00    +0.000 N 
ATOM      4  C   UNL     1      -0.261  11.672  19.490  0.00  0.00    +0.000 A 
ATOM      5  C   UNL     1      -1.012  12.494  18.635  0.00  0.00    +0.000 A 
ATOM      6  C   UNL     1      -1.825  11.882  17.673  0.00  0.00    +0.000 A 
ATOM      7  C   UNL     1      -1.856  10.497  17.551  0.00  0.00    +0.000 A 
ATOM      8 CL   UNL     1      -2.902   9.767  16.394  0.00  0.00    +0.000 Cl
ATOM      9  C   UNL     1      -1.067   9.683  18.366  0.00  0.00    +0.000 A 
ATOM     10  C   UNL     1      -0.270  10.275  19.363  0.00  0.00    +0.000 A 
ENDROOT
BRANCH   1  11
ATOM     11  C   UNL     1       0.900   8.308  20.644  0.00  0.00    +0.000 C 
BRANCH  11  17
ATOM     12  C   UNL     1       5.032   5.281  18.028  0.00  0.00    +0.000 A 
ATOM     13  C   UNL     1       4.776   4.032  18.579  0.00  0.00    +0.000 A 
ATOM     14  S   UNL     1       3.564   4.152  19.790  0.00  0.00    +0.000 S 
ATOM     15  C   UNL     1       3.385   5.802  19.416  0.00  0.00    +0.000 A 
ATOM     16  N   UNL     1       2.408   6.456  20.111  0.00  0.00    +0.000 N 
ATOM     17  C   UNL     1       1.993   7.720  19.766  0.00  0.00    +0.000 C 
ATOM     18  O   UNL     1       2.357   8.352  18.771  0.00  0.00    +0.000 OA
ATOM     19  N   UNL     1       4.188   6.277  18.503  0.00  0.00    +0.000 NA
ATOM     20  H   UNL     1       1.976   5.945  20.865  0.00  0.00    +0.000 HD
BRANCH  12  22
ATOM     21  C   UNL     1       7.102   4.538  16.839  0.00  0.00    +0.000 C 
ATOM     22  C   UNL     1       6.061   5.662  16.974  0.00  0.00    +0.000 C 
ATOM     23  C   UNL     1       6.782   6.976  17.334  0.00  0.00    +0.000 C 
ATOM     24  C   UNL     1       5.376   5.867  15.604  0.00  0.00    +0.000 C 
ENDBRANCH  12  22
ENDBRANCH  11  17
ENDBRANCH   1  11
BRANCH   3  25
ATOM     25  C   UNL     1       0.659  13.284  21.214  0.00  0.00    +0.000 C 
BRANCH  25  26
ATOM     26  C   UNL     1       1.951  14.024  20.961  0.00  0.00    +0.000 A 
ATOM     27  C   UNL     1       2.399  14.292  19.667  0.00  0.00    +0.000 A 
ATOM     28  C   UNL     1       3.704  14.745  19.480  0.00  0.00    +0.000 A 
ATOM     29  C   UNL     1       4.526  14.933  20.582  0.00  0.00    +0.000 A 
ATOM     30  C   UNL     1       3.997  14.688  21.836  0.00  0.00    +0.000 A 
ATOM     31  N   UNL     1       2.740  14.236  22.048  0.00  0.00    +0.000 NA
ENDBRANCH  25  26
ENDBRANCH   3  25
TORSDOF 5
ENDMDL
MODEL 5
REMARK VINA RESULT:      -8.1      2.915      8.957
REMARK  Name = 
REMARK  8 active torsions:
REMARK  status: ('A' for Active; 'I' for Inactive)
REMARK    1  A    between atoms: C_1  and  C_2
REMARK    2  A    between atoms: C_2  and  C_3
REMARK    3  A    between atoms: C_2  and  C_4
REMARK    4  A    between atoms: C_2  and  C_5
REMARK    5  A    between atoms: C_10  and  C_12
REMARK    6  A    between atoms: C_12  and  C_13
REMARK    7  A    between atoms: N_15  and  C_16
REMARK    8  A    between atoms: C_16  and  C_17
REMARK                            x       y       z     vdW  Elec       q    Type
REMARK                         _______ _______ _______ _____ _____    ______ ____
ROOT
ATOM      1  C   UNL     1       0.773  10.083  20.202  0.00  0.00    +0.000 A 
ATOM      2  C   UNL     1       1.402  11.230  20.642  0.00  0.00    +0.000 A 
ATOM      3  N   UNL     1       0.864  12.311  19.991  0.00  0.00    +0.000 N 
ATOM      4  C   UNL     1      -0.137  11.889  19.137  0.00  0.00    +0.000 A 
ATOM      5  C   UNL     1      -0.996  12.610  18.290  0.00  0.00    +0.000 A 
ATOM      6  C   UNL     1      -1.992  11.905  17.604  0.00  0.00    +0.000 A 
ATOM      7  C   UNL     1      -2.102  10.526  17.735  0.00  0.00    +0.000 A 
ATOM      8 CL   UNL     1      -3.368   9.690  16.919  0.00  0.00    +0.000 Cl
ATOM      9  C   UNL     1      -1.213   9.804  18.534  0.00  0.00    +0.000 A 
ATOM     10  C   UNL     1      -0.226  10.495  19.261  0.00  0.00    +0.000 A 
ENDROOT
BRANCH   1  11
ATOM     11  C   UNL     1       1.074   8.689  20.651  0.00  0.00    +0.000 C 
BRANCH  11  17
ATOM     12  C   UNL     1       4.610   5.003  18.009  0.00  0.00    +0.000 A 
ATOM     13  C   UNL     1       4.313   3.854  18.730  0.00  0.00    +0.000 A 
ATOM     14  S   UNL     1       3.262   4.225  20.037  0.00  0.00    +0.000 S 
ATOM     15  C   UNL     1       3.181   5.833  19.485  0.00  0.00    +0.000 A 
ATOM     16  N   UNL     1       2.349   6.652  20.193  0.00  0.00    +0.000 N 
ATOM     17  C   UNL     1       2.006   7.904  19.742  0.00  0.00    +0.000 C 
ATOM     18  O   UNL     1       2.305   8.383  18.646  0.00  0.00    +0.000 OA
ATOM     19  N   UNL     1       3.912   6.123  18.444  0.00  0.00    +0.000 NA
ATOM     20  H   UNL     1       1.964   6.273  21.045  0.00  0.00    +0.000 HD
BRANCH  12  22
ATOM     21  C   UNL     1       5.189   6.453  16.057  0.00  0.00    +0.000 C 
ATOM     22  C   UNL     1       5.539   5.162  16.815  0.00  0.00    +0.000 C 
ATOM     23  C   UNL     1       5.433   3.966  15.849  0.00  0.00    +0.000 C 
ATOM     24  C   UNL     1       7.009   5.250  17.286  0.00  0.00    +0.000 C 
ENDBRANCH  12  22
ENDBRANCH  11  17
ENDBRANCH   1  11
BRANCH   3  25
ATOM     25  C   UNL     1       1.143  13.696  20.368  0.00  0.00    +0.000 C 
BRANCH  25  26
ATOM     26  C   UNL     1       1.766  14.548  19.289  0.00  0.00    +0.000 A 
ATOM     27  C   UNL     1       2.949  14.169  18.650  0.00  0.00    +0.000 A 
ATOM     28  C   UNL     1       3.617  15.097  17.852  0.00  0.00    +0.000 A 
ATOM     29  C   UNL     1       3.089  16.371  17.698  0.00  0.00    +0.000 A 
ATOM     30  C   UNL     1       1.892  16.658  18.327  0.00  0.00    +0.000 A 
ATOM     31  N   UNL     1       1.227  15.784  19.117  0.00  0.00    +0.000 NA
ENDBRANCH  25  26
ENDBRANCH   3  25
TORSDOF 5
ENDMDL
MODEL 6
REMARK VINA RESULT:      -8.0      4.147      9.814
REMARK  Name = 
REMARK  8 active torsions:
REMARK  status: ('A' for Active; 'I' for Inactive)
REMARK    1  A    between atoms: C_1  and  C_2
REMARK    2  A    between atoms: C_2  and  C_3
REMARK    3  A    between atoms: C_2  and  C_4
REMARK    4  A    between atoms: C_2  and  C_5
REMARK    5  A    between atoms: C_10  and  C_12
REMARK    6  A    between atoms: C_12  and  C_13
REMARK    7  A    between atoms: N_15  and  C_16
REMARK    8  A    between atoms: C_16  and  C_17
REMARK                            x       y       z     vdW  Elec       q    Type
REMARK                         _______ _______ _______ _____ _____    ______ ____
ROOT
ATOM      1  C   UNL     1      -0.046  10.385  20.084  0.00  0.00    +0.000 A 
ATOM      2  C   UNL     1      -1.253  10.249  19.429  0.00  0.00    +0.000 A 
ATOM      3  N   UNL     1      -1.550  11.427  18.792  0.00  0.00    +0.000 N 
ATOM      4  C   UNL     1      -0.533  12.339  19.001  0.00  0.00    +0.000 A 
ATOM      5  C   UNL     1      -0.357  13.653  18.536  0.00  0.00    +0.000 A 
ATOM      6  C   UNL     1       0.842  14.308  18.841  0.00  0.00    +0.000 A 
ATOM      7  C   UNL     1       1.814  13.682  19.613  0.00  0.00    +0.000 A 
ATOM      8 CL   UNL     1       3.301  14.491  19.931  0.00  0.00    +0.000 Cl
ATOM      9  C   UNL     1       1.616  12.397  20.120  0.00  0.00    +0.000 A 
ATOM     10  C   UNL     1       0.433  11.705  19.797  0.00  0.00    +0.000 A 
ENDROOT
BRANCH   1  11
ATOM     11  C   UNL     1       0.630   9.337  20.909  0.00  0.00    +0.000 C 
BRANCH  11  17
ATOM     12  C   UNL     1       3.778   5.002  18.819  0.00  0.00    +0.000 A 
ATOM     13  C   UNL     1       3.308   3.975  19.627  0.00  0.00    +0.000 A 
ATOM     14  S   UNL     1       2.258   4.600  20.834  0.00  0.00    +0.000 S 
ATOM     15  C   UNL     1       2.405   6.143  20.132  0.00  0.00    +0.000 A 
ATOM     16  N   UNL     1       1.655   7.124  20.713  0.00  0.00    +0.000 N 
ATOM     17  C   UNL     1       1.492   8.358  20.129  0.00  0.00    +0.000 C 
ATOM     18  O   UNL     1       1.896   8.685  19.011  0.00  0.00    +0.000 OA
ATOM     19  N   UNL     1       3.210   6.236  19.108  0.00  0.00    +0.000 NA
ATOM     20  H   UNL     1       1.189   6.881  21.574  0.00  0.00    +0.000 HD
BRANCH  12  22
ATOM     21  C   UNL     1       6.188   4.706  18.222  0.00  0.00    +0.000 C 
ATOM     22  C   UNL     1       4.770   4.927  17.668  0.00  0.00    +0.000 C 
ATOM     23  C   UNL     1       4.755   6.215  16.821  0.00  0.00    +0.000 C 
ATOM     24  C   UNL     1       4.418   3.750  16.730  0.00  0.00    +0.000 C 
ENDBRANCH  12  22
ENDBRANCH  11  17
ENDBRANCH   1  11
BRANCH   3  25
ATOM     25  C   UNL     1      -2.643  11.567  17.831  0.00  0.00    +0.000 C 
BRANCH  25  26
ATOM     26  C   UNL     1      -4.023  11.684  18.432  0.00  0.00    +0.000 A 
ATOM     27  C   UNL     1      -4.254  12.418  19.597  0.00  0.00    +0.000 A 
ATOM     28  C   UNL     1      -5.480  12.290  20.249  0.00  0.00    +0.000 A 
ATOM     29  C   UNL     1      -6.448  11.448  19.723  0.00  0.00    +0.000 A 
ATOM     30  C   UNL     1      -6.162  10.787  18.542  0.00  0.00    +0.000 A 
ATOM     31  N   UNL     1      -4.979  10.881  17.893  0.00  0.00    +0.000 NA
ENDBRANCH  25  26
ENDBRANCH   3  25
TORSDOF 5
ENDMDL
MODEL 7
REMARK VINA RESULT:      -8.0      2.923      8.798
REMARK  Name = 
REMARK  8 active torsions:
REMARK  status: ('A' for Active; 'I' for Inactive)
REMARK    1  A    between atoms: C_1  and  C_2
REMARK    2  A    between atoms: C_2  and  C_3
REMARK    3  A    between atoms: C_2  and  C_4
REMARK    4  A    between atoms: C_2  and  C_5
REMARK    5  A    between atoms: C_10  and  C_12
REMARK    6  A    between atoms: C_12  and  C_13
REMARK    7  A    between atoms: N_15  and  C_16
REMARK    8  A    between atoms: C_16  and  C_17
REMARK                            x       y       z     vdW  Elec       q    Type
REMARK                         _______ _______ _______ _____ _____    ______ ____
ROOT
ATOM      1  C   UNL     1       0.641   9.955  20.443  0.00  0.00    +0.000 A 
ATOM      2  C   UNL     1       1.253  11.078  20.960  0.00  0.00    +0.000 A 
ATOM      3  N   UNL     1       0.769  12.187  20.314  0.00  0.00    +0.000 N 
ATOM      4  C   UNL     1      -0.181  11.807  19.384  0.00  0.00    +0.000 A 
ATOM      5  C   UNL     1      -0.977  12.567  18.511  0.00  0.00    +0.000 A 
ATOM      6  C   UNL     1      -1.936  11.899  17.739  0.00  0.00    +0.000 A 
ATOM      7  C   UNL     1      -2.068  10.517  17.816  0.00  0.00    +0.000 A 
ATOM      8 CL   UNL     1      -3.289   9.726  16.894  0.00  0.00    +0.000 Cl
ATOM      9  C   UNL     1      -1.240   9.758  18.644  0.00  0.00    +0.000 A 
ATOM     10  C   UNL     1      -0.293  10.411  19.455  0.00  0.00    +0.000 A 
ENDROOT
BRANCH   1  11
ATOM     11  C   UNL     1       0.897   8.543  20.861  0.00  0.00    +0.000 C 
BRANCH  11  17
ATOM     12  C   UNL     1       4.478   4.867  18.265  0.00  0.00    +0.000 A 
ATOM     13  C   UNL     1       4.101   3.696  18.909  0.00  0.00    +0.000 A 
ATOM     14  S   UNL     1       2.980   4.041  20.164  0.00  0.00    +0.000 S 
ATOM     15  C   UNL     1       2.985   5.674  19.689  0.00  0.00    +0.000 A 
ATOM     16  N   UNL     1       2.135   6.488  20.383  0.00  0.00    +0.000 N 
ATOM     17  C   UNL     1       1.860   7.771  19.975  0.00  0.00    +0.000 C 
ATOM     18  O   UNL     1       2.244   8.290  18.924  0.00  0.00    +0.000 OA
ATOM     19  N   UNL     1       3.789   5.989  18.711  0.00  0.00    +0.000 NA
ATOM     20  H   UNL     1       1.685   6.082  21.189  0.00  0.00    +0.000 HD
BRANCH  12  22
ATOM     21  C   UNL     1       5.400   6.488  16.599  0.00  0.00    +0.000 C 
ATOM     22  C   UNL     1       5.487   5.052  17.141  0.00  0.00    +0.000 C 
ATOM     23  C   UNL     1       5.237   4.061  15.987  0.00  0.00    +0.000 C 
ATOM     24  C   UNL     1       6.922   4.807  17.661  0.00  0.00    +0.000 C 
ENDBRANCH  12  22
ENDBRANCH  11  17
ENDBRANCH   1  11
BRANCH   3  25
ATOM     25  C   UNL     1       1.038  13.555  20.755  0.00  0.00    +0.000 C 
BRANCH  25  26
ATOM     26  C   UNL     1       2.182  14.248  20.056  0.00  0.00    +0.000 A 
ATOM     27  C   UNL     1       2.181  14.450  18.674  0.00  0.00    +0.000 A 
ATOM     28  C   UNL     1       3.357  14.859  18.046  0.00  0.00    +0.000 A 
ATOM     29  C   UNL     1       4.499  15.069  18.805  0.00  0.00    +0.000 A 
ATOM     30  C   UNL     1       4.411  14.890  20.174  0.00  0.00    +0.000 A 
ATOM     31  N   UNL     1       3.289  14.482  20.810  0.00  0.00    +0.000 NA
ENDBRANCH  25  26
ENDBRANCH   3  25
TORSDOF 5
ENDMDL
MODEL 8
REMARK VINA RESULT:      -8.0      1.749      2.381
REMARK  Name = 
REMARK  8 active torsions:
REMARK  status: ('A' for Active; 'I' for Inactive)
REMARK    1  A    between atoms: C_1  and  C_2
REMARK    2  A    between atoms: C_2  and  C_3
REMARK    3  A    between atoms: C_2  and  C_4
REMARK    4  A    between atoms: C_2  and  C_5
REMARK    5  A    between atoms: C_10  and  C_12
REMARK    6  A    between atoms: C_12  and  C_13
REMARK    7  A    between atoms: N_15  and  C_16
REMARK    8  A    between atoms: C_16  and  C_17
REMARK                            x       y       z     vdW  Elec       q    Type
REMARK                         _______ _______ _______ _____ _____    ______ ____
ROOT
ATOM      1  C   UNL     1       1.905   7.227  20.181  0.00  0.00    +0.000 A 
ATOM      2  C   UNL     1       2.541   7.724  19.062  0.00  0.00    +0.000 A 
ATOM      3  N   UNL     1       3.218   6.705  18.444  0.00  0.00    +0.000 N 
ATOM      4  C   UNL     1       3.017   5.525  19.136  0.00  0.00    +0.000 A 
ATOM      5  C   UNL     1       3.464   4.217  18.885  0.00  0.00    +0.000 A 
ATOM      6  C   UNL     1       3.012   3.191  19.724  0.00  0.00    +0.000 A 
ATOM      7  C   UNL     1       2.169   3.471  20.794  0.00  0.00    +0.000 A 
ATOM      8 CL   UNL     1       1.587   2.185  21.779  0.00  0.00    +0.000 Cl
ATOM      9  C   UNL     1       1.768   4.779  21.074  0.00  0.00    +0.000 A 
ATOM     10  C   UNL     1       2.183   5.822  20.223  0.00  0.00    +0.000 A 
ENDROOT
BRANCH   1  11
ATOM     11  C   UNL     1       1.072   8.014  21.141  0.00  0.00    +0.000 C 
BRANCH  11  17
ATOM     12  C   UNL     1       0.037  13.278  19.069  0.00  0.00    +0.000 A 
ATOM     13  C   UNL     1      -1.037  12.984  18.239  0.00  0.00    +0.000 A 
ATOM     14  S   UNL     1      -1.295  11.287  18.177  0.00  0.00    +0.000 S 
ATOM     15  C   UNL     1      -0.062  11.080  19.332  0.00  0.00    +0.000 A 
ATOM     16  N   UNL     1       0.146   9.794  19.740  0.00  0.00    +0.000 N 
ATOM     17  C   UNL     1       0.941   9.494  20.821  0.00  0.00    +0.000 C 
ATOM     18  O   UNL     1       1.458  10.313  21.585  0.00  0.00    +0.000 OA
ATOM     19  N   UNL     1       0.555  12.164  19.716  0.00  0.00    +0.000 NA
ATOM     20  H   UNL     1      -0.350   9.077  19.234  0.00  0.00    +0.000 HD
BRANCH  12  22
ATOM     21  C   UNL     1       0.868  14.775  20.891  0.00  0.00    +0.000 C 
ATOM     22  C   UNL     1       0.659  14.633  19.374  0.00  0.00    +0.000 C 
ATOM     23  C   UNL     1      -0.231  15.790  18.878  0.00  0.00    +0.000 C 
ATOM     24  C   UNL     1       2.029  14.766  18.672  0.00  0.00    +0.000 C 
ENDBRANCH  12  22
ENDBRANCH  11  17
ENDBRANCH   1  11
BRANCH   3  25
ATOM     25  C   UNL     1       3.821   6.828  17.118  0.00  0.00    +0.000 C 
BRANCH  25  26
ATOM     26  C   UNL     1       5.153   6.139  16.945  0.00  0.00    +0.000 A 
ATOM     27  C   UNL     1       5.325   5.099  16.029  0.00  0.00    +0.000 A 
ATOM     28  C   UNL     1       6.487   4.331  16.084  0.00  0.00    +0.000 A 
ATOM     29  C   UNL     1       7.454   4.622  17.035  0.00  0.00    +0.000 A 
ATOM     30  C   UNL     1       7.232   5.694  17.879  0.00  0.00    +0.000 A 
ATOM     31  N   UNL     1       6.110   6.450  17.859  0.00  0.00    +0.000 NA
ENDBRANCH  25  26
ENDBRANCH   3  25
TORSDOF 5
ENDMDL
MODEL 9
REMARK VINA RESULT:      -8.0      4.194      9.788
REMARK  Name = 
REMARK  8 active torsions:
REMARK  status: ('A' for Active; 'I' for Inactive)
REMARK    1  A    between atoms: C_1  and  C_2
REMARK    2  A    between atoms: C_2  and  C_3
REMARK    3  A    between atoms: C_2  and  C_4
REMARK    4  A    between atoms: C_2  and  C_5
REMARK    5  A    between atoms: C_10  and  C_12
REMARK    6  A    between atoms: C_12  and  C_13
REMARK    7  A    between atoms: N_15  and  C_16
REMARK    8  A    between atoms: C_16  and  C_17
REMARK                            x       y       z     vdW  Elec       q    Type
REMARK                         _______ _______ _______ _____ _____    ______ ____
ROOT
ATOM      1  C   UNL     1      -0.002  10.410  20.054  0.00  0.00    +0.000 A 
ATOM      2  C   UNL     1      -1.196  10.273  19.377  0.00  0.00    +0.000 A 
ATOM      3  N   UNL     1      -1.489  11.454  18.745  0.00  0.00    +0.000 N 
ATOM      4  C   UNL     1      -0.481  12.371  18.981  0.00  0.00    +0.000 A 
ATOM      5  C   UNL     1      -0.306  13.689  18.531  0.00  0.00    +0.000 A 
ATOM      6  C   UNL     1       0.884  14.349  18.863  0.00  0.00    +0.000 A 
ATOM      7  C   UNL     1       1.846  13.722  19.646  0.00  0.00    +0.000 A 
ATOM      8 CL   UNL     1       3.321  14.537  19.999  0.00  0.00    +0.000 Cl
ATOM      9  C   UNL     1       1.646  12.431  20.139  0.00  0.00    +0.000 A 
ATOM     10  C   UNL     1       0.474  11.735  19.788  0.00  0.00    +0.000 A 
ENDROOT
BRANCH   1  11
ATOM     11  C   UNL     1       0.665   9.358  20.882  0.00  0.00    +0.000 C 
BRANCH  11  17
ATOM     12  C   UNL     1       3.774   4.989  18.803  0.00  0.00    +0.000 A 
ATOM     13  C   UNL     1       3.298   3.970  19.617  0.00  0.00    +0.000 A 
ATOM     14  S   UNL     1       2.257   4.609  20.825  0.00  0.00    +0.000 S 
ATOM     15  C   UNL     1       2.413   6.147  20.114  0.00  0.00    +0.000 A 
ATOM     16  N   UNL     1       1.673   7.137  20.693  0.00  0.00    +0.000 N 
ATOM     17  C   UNL     1       1.518   8.369  20.104  0.00  0.00    +0.000 C 
ATOM     18  O   UNL     1       1.920   8.687  18.983  0.00  0.00    +0.000 OA
ATOM     19  N   UNL     1       3.216   6.229  19.088  0.00  0.00    +0.000 NA
ATOM     20  H   UNL     1       1.207   6.901  21.557  0.00  0.00    +0.000 HD
BRANCH  12  22
ATOM     21  C   UNL     1       4.378   3.731  16.728  0.00  0.00    +0.000 C 
ATOM     22  C   UNL     1       4.762   4.901  17.649  0.00  0.00    +0.000 C 
ATOM     23  C   UNL     1       6.204   4.694  18.152  0.00  0.00    +0.000 C 
ATOM     24  C   UNL     1       4.741   6.207  16.822  0.00  0.00    +0.000 C 
ENDBRANCH  12  22
ENDBRANCH  11  17
ENDBRANCH   1  11
BRANCH   3  25
ATOM     25  C   UNL     1      -2.565  11.597  17.766  0.00  0.00    +0.000 C 
BRANCH  25  26
ATOM     26  C   UNL     1      -3.964  11.571  18.333  0.00  0.00    +0.000 A 
ATOM     27  C   UNL     1      -5.028  11.002  17.630  0.00  0.00    +0.000 A 
ATOM     28  C   UNL     1      -6.331  11.226  18.072  0.00  0.00    +0.000 A 
ATOM     29  C   UNL     1      -6.545  11.995  19.206  0.00  0.00    +0.000 A 
ATOM     30  C   UNL     1      -5.440  12.488  19.874  0.00  0.00    +0.000 A 
ATOM     31  N   UNL     1      -4.164  12.299  19.464  0.00  0.00    +0.000 NA
ENDBRANCH  25  26
ENDBRANCH   3  25
TORSDOF 5
ENDMDL
