MODEL 1
REMARK VINA RESULT:      -8.1      0.000      0.000
REMARK  Name = 
REMARK  10 active torsions:
REMARK  status: ('A' for Active; 'I' for Inactive)
REMARK    1  A    between atoms: C_1  and  C_2
REMARK    2  A    between atoms: C_2  and  C_3
REMARK    3  A    between atoms: C_3  and  O_4
REMARK    4  A    between atoms: O_4  and  C_5
REMARK    5  A    between atoms: C_8  and  C_9
REMARK    6  A    between atoms: C_9  and  C_11
REMARK    7  A    between atoms: N_14  and  C_15
REMARK    8  A    between atoms: C_15  and  C_16
REMARK    9  A    between atoms: N_18  and  C_19
REMARK   10  A    between atoms: C_19  and  C_20
REMARK                            x       y       z     vdW  Elec       q    Type
REMARK                         _______ _______ _______ _____ _____    ______ ____
ROOT
ATOM      1  C   UNL     1       2.807   3.944  19.001  0.00  0.00    +0.000 C 
ATOM      2  C   UNL     1       1.626   4.404  18.141  0.00  0.00    +0.000 C 
ATOM      3  C   UNL     1       1.657   5.873  17.725  0.00  0.00    +0.000 C 
ATOM      4  N   UNL     1       1.980   6.825  18.801  0.00  0.00    +0.000 NA
ATOM      5  C   UNL     1       3.060   6.434  19.712  0.00  0.00    +0.000 C 
ATOM      6  C   UNL     1       3.064   4.958  20.117  0.00  0.00    +0.000 C 
ENDROOT
BRANCH   1   7
ATOM      7  C   UNL     1       4.033   3.462  18.177  0.00  0.00    +0.000 C 
ATOM      8  O   UNL     1       4.186   2.298  17.857  0.00  0.00    +0.000 OA
BRANCH   7  12
ATOM      9  C   UNL     1       6.999   6.481  17.204  0.00  0.00    +0.000 A 
ATOM     10  C   UNL     1       5.932   6.200  16.352  0.00  0.00    +0.000 A 
ATOM     11  C   UNL     1       4.998   5.210  16.641  0.00  0.00    +0.000 A 
ATOM     12  C   UNL     1       5.129   4.445  17.805  0.00  0.00    +0.000 A 
ATOM     13  C   UNL     1       6.257   4.645  18.596  0.00  0.00    +0.000 A 
ATOM     14  C   UNL     1       7.158   5.688  18.342  0.00  0.00    +0.000 A 
BRANCH   9  15
ATOM     15  O   UNL     1       7.888   7.500  16.959  0.00  0.00    +0.000 OA
BRANCH  15  16
ATOM     16  C   UNL     1       7.576   8.711  17.678  0.00  0.00    +0.000 C 
BRANCH  16  18
ATOM     17  C   UNL     1       9.083  10.601  18.314  0.00  0.00    +0.000 C 
ATOM     18  C   UNL     1       8.749   9.132  18.535  0.00  0.00    +0.000 C 
ENDBRANCH  16  18
ENDBRANCH  15  16
ENDBRANCH   9  15
ENDBRANCH   7  12
ENDBRANCH   1   7
BRANCH   4  19
ATOM     19  C   UNL     1       2.209   8.188  18.246  0.00  0.00    +0.000 C 
BRANCH  19  20
ATOM     20  C   UNL     1       1.365   9.287  18.920  0.00  0.00    +0.000 C 
ATOM     21  O   UNL     1       0.891   9.212  20.058  0.00  0.00    +0.000 OA
ATOM     22  N   UNL     1       1.151  10.416  18.175  0.00  0.00    +0.000 N 
ATOM     23  H   UNL     1       1.115  10.323  17.165  0.00  0.00    +0.000 HD
BRANCH  22  24
ATOM     24  C   UNL     1       0.376  11.473  18.800  0.00  0.00    +0.000 C 
BRANCH  24  25
ATOM     25  C   UNL     1      -1.088  11.475  18.423  0.00  0.00    +0.000 A 
ATOM     26  N   UNL     1      -1.996  11.849  19.277  0.00  0.00    +0.000 NA
ATOM     27  C   UNL     1      -3.296  11.837  18.840  0.00  0.00    +0.000 A 
ATOM     28  C   UNL     1      -3.692  11.415  17.627  0.00  0.00    +0.000 A 
ATOM     29  C   UNL     1      -2.650  10.998  16.674  0.00  0.00    +0.000 A 
ATOM     30  O   UNL     1      -2.914  10.589  15.548  0.00  0.00    +0.000 OA
ATOM     31  N   UNL     1      -1.375  11.116  17.138  0.00  0.00    +0.000 N 
ATOM     32  C   UNL     1      -5.116  11.365  17.185  0.00  0.00    +0.000 C 
ATOM     33  O   UNL     1      -6.027  11.555  18.283  0.00  0.00    +0.000 OA
ATOM     34  C   UNL     1      -5.646  12.663  19.100  0.00  0.00    +0.000 C 
ATOM     35  C   UNL     1      -4.324  12.364  19.806  0.00  0.00    +0.000 C 
ATOM     36  H   UNL     1      -0.641  10.860  16.478  0.00  0.00    +0.000 HD
ENDBRANCH  24  25
ENDBRANCH  22  24
ENDBRANCH  19  20
ENDBRANCH   4  19
TORSDOF 9
ENDMDL
MODEL 2
REMARK VINA RESULT:      -7.9      3.257      4.338
REMARK  Name = 
REMARK  10 active torsions:
REMARK  status: ('A' for Active; 'I' for Inactive)
REMARK    1  A    between atoms: C_1  and  C_2
REMARK    2  A    between atoms: C_2  and  C_3
REMARK    3  A    between atoms: C_3  and  O_4
REMARK    4  A    between atoms: O_4  and  C_5
REMARK    5  A    between atoms: C_8  and  C_9
REMARK    6  A    between atoms: C_9  and  C_11
REMARK    7  A    between atoms: N_14  and  C_15
REMARK    8  A    between atoms: C_15  and  C_16
REMARK    9  A    between atoms: N_18  and  C_19
REMARK   10  A    between atoms: C_19  and  C_20
REMARK                            x       y       z     vdW  Elec       q    Type
REMARK                         _______ _______ _______ _____ _____    ______ ____
ROOT
ATOM      1  C   UNL     1       2.049   2.798  19.181  0.00  0.00    +0.000 C 
ATOM      2  C   UNL     1       1.344   3.826  18.290  0.00  0.00    +0.000 C 
ATOM      3  C   UNL     1       1.726   5.281  18.549  0.00  0.00    +0.000 C 
ATOM      4  N   UNL     1       1.753   5.682  19.966  0.00  0.00    +0.000 NA
ATOM      5  C   UNL     1       2.355   4.726  20.900  0.00  0.00    +0.000 C 
ATOM      6  C   UNL     1       2.009   3.258  20.638  0.00  0.00    +0.000 C 
ENDROOT
BRANCH   1   7
ATOM      7  C   UNL     1       3.416   2.314  18.620  0.00  0.00    +0.000 C 
ATOM      8  O   UNL     1       3.728   1.140  18.589  0.00  0.00    +0.000 OA
BRANCH   7  12
ATOM      9  C   UNL     1       6.554   5.031  17.341  0.00  0.00    +0.000 A 
ATOM     10  C   UNL     1       6.248   4.846  18.688  0.00  0.00    +0.000 A 
ATOM     11  C   UNL     1       5.221   4.004  19.103  0.00  0.00    +0.000 A 
ATOM     12  C   UNL     1       4.444   3.331  18.155  0.00  0.00    +0.000 A 
ATOM     13  C   UNL     1       4.671   3.604  16.809  0.00  0.00    +0.000 A 
ATOM     14  C   UNL     1       5.750   4.397  16.392  0.00  0.00    +0.000 A 
BRANCH   9  15
ATOM     15  O   UNL     1       7.608   5.809  16.926  0.00  0.00    +0.000 OA
BRANCH  15  16
ATOM     16  C   UNL     1       7.364   7.222  17.078  0.00  0.00    +0.000 C 
BRANCH  16  18
ATOM     17  C   UNL     1       8.344   9.282  18.103  0.00  0.00    +0.000 C 
ATOM     18  C   UNL     1       8.168   7.775  18.234  0.00  0.00    +0.000 C 
ENDBRANCH  16  18
ENDBRANCH  15  16
ENDBRANCH   9  15
ENDBRANCH   7  12
ENDBRANCH   1   7
BRANCH   4  19
ATOM     19  C   UNL     1       2.354   7.037  20.119  0.00  0.00    +0.000 C 
BRANCH  19  20
ATOM     20  C   UNL     1       1.355   8.113  20.586  0.00  0.00    +0.000 C 
ATOM     21  O   UNL     1       0.829   8.148  21.703  0.00  0.00    +0.000 OA
ATOM     22  N   UNL     1       1.061   9.090  19.673  0.00  0.00    +0.000 N 
ATOM     23  H   UNL     1       1.093   8.849  18.687  0.00  0.00    +0.000 HD
BRANCH  22  24
ATOM     24  C   UNL     1       0.140  10.127  20.100  0.00  0.00    +0.000 C 
BRANCH  24  25
ATOM     25  C   UNL     1       0.743  11.512  20.147  0.00  0.00    +0.000 A 
ATOM     26  N   UNL     1       1.540  11.925  19.203  0.00  0.00    +0.000 NA
ATOM     27  C   UNL     1       2.024  13.203  19.320  0.00  0.00    +0.000 A 
ATOM     28  C   UNL     1       1.781  14.022  20.357  0.00  0.00    +0.000 A 
ATOM     29  C   UNL     1       0.877  13.538  21.414  0.00  0.00    +0.000 A 
ATOM     30  O   UNL     1       0.603  14.209  22.404  0.00  0.00    +0.000 OA
ATOM     31  N   UNL     1       0.361  12.296  21.196  0.00  0.00    +0.000 N 
ATOM     32  C   UNL     1       2.354  15.392  20.490  0.00  0.00    +0.000 C 
ATOM     33  O   UNL     1       3.402  15.633  19.533  0.00  0.00    +0.000 OA
ATOM     34  C   UNL     1       3.023  15.219  18.219  0.00  0.00    +0.000 C 
ATOM     35  C   UNL     1       2.864  13.699  18.173  0.00  0.00    +0.000 C 
ATOM     36  H   UNL     1      -0.291  11.961  21.904  0.00  0.00    +0.000 HD
ENDBRANCH  24  25
ENDBRANCH  22  24
ENDBRANCH  19  20
ENDBRANCH   4  19
TORSDOF 9
ENDMDL
MODEL 3
REMARK VINA RESULT:      -7.9      2.024      2.543
REMARK  Name = 
REMARK  10 active torsions:
REMARK  status: ('A' for Active; 'I' for Inactive)
REMARK    1  A    between atoms: C_1  and  C_2
REMARK    2  A    between atoms: C_2  and  C_3
REMARK    3  A    between atoms: C_3  and  O_4
REMARK    4  A    between atoms: O_4  and  C_5
REMARK    5  A    between atoms: C_8  and  C_9
REMARK    6  A    between atoms: C_9  and  C_11
REMARK    7  A    between atoms: N_14  and  C_15
REMARK    8  A    between atoms: C_15  and  C_16
REMARK    9  A    between atoms: N_18  and  C_19
REMARK   10  A    between atoms: C_19  and  C_20
REMARK                            x       y       z     vdW  Elec       q    Type
REMARK                         _______ _______ _______ _____ _____    ______ ____
ROOT
ATOM      1  C   UNL     1       2.023   3.354  18.814  0.00  0.00    +0.000 C 
ATOM      2  C   UNL     1       1.460   4.302  17.750  0.00  0.00    +0.000 C 
ATOM      3  C   UNL     1       1.930   5.751  17.856  0.00  0.00    +0.000 C 
ATOM      4  N   UNL     1       1.890   6.329  19.210  0.00  0.00    +0.000 NA
ATOM      5  C   UNL     1       2.352   5.464  20.299  0.00  0.00    +0.000 C 
ATOM      6  C   UNL     1       1.917   4.000  20.195  0.00  0.00    +0.000 C 
ENDROOT
BRANCH   1   7
ATOM      7  C   UNL     1       3.385   2.714  18.426  0.00  0.00    +0.000 C 
ATOM      8  O   UNL     1       3.591   1.519  18.511  0.00  0.00    +0.000 OA
BRANCH   7  12
ATOM      9  C   UNL     1       6.498   5.447  17.120  0.00  0.00    +0.000 A 
ATOM     10  C   UNL     1       5.741   4.710  16.212  0.00  0.00    +0.000 A 
ATOM     11  C   UNL     1       4.766   3.807  16.624  0.00  0.00    +0.000 A 
ATOM     12  C   UNL     1       4.539   3.600  17.989  0.00  0.00    +0.000 A 
ATOM     13  C   UNL     1       5.373   4.246  18.897  0.00  0.00    +0.000 A 
ATOM     14  C   UNL     1       6.306   5.207  18.483  0.00  0.00    +0.000 A 
BRANCH   9  15
ATOM     15  O   UNL     1       7.416   6.388  16.721  0.00  0.00    +0.000 OA
BRANCH  15  16
ATOM     16  C   UNL     1       7.190   7.686  17.308  0.00  0.00    +0.000 C 
BRANCH  16  18
ATOM     17  C   UNL     1       8.522   9.583  18.245  0.00  0.00    +0.000 C 
ATOM     18  C   UNL     1       8.349   8.071  18.201  0.00  0.00    +0.000 C 
ENDBRANCH  16  18
ENDBRANCH  15  16
ENDBRANCH   9  15
ENDBRANCH   7  12
ENDBRANCH   1   7
BRANCH   4  19
ATOM     19  C   UNL     1       2.578   7.649  19.240  0.00  0.00    +0.000 C 
BRANCH  19  20
ATOM     20  C   UNL     1       1.798   8.776  18.534  0.00  0.00    +0.000 C 
ATOM     21  O   UNL     1       2.136   9.307  17.471  0.00  0.00    +0.000 OA
ATOM     22  N   UNL     1       0.649   9.186  19.156  0.00  0.00    +0.000 N 
ATOM     23  H   UNL     1       0.603   9.120  20.167  0.00  0.00    +0.000 HD
BRANCH  22  24
ATOM     24  C   UNL     1      -0.112  10.231  18.496  0.00  0.00    +0.000 C 
BRANCH  24  25
ATOM     25  C   UNL     1      -0.973  11.053  19.428  0.00  0.00    +0.000 A 
ATOM     26  N   UNL     1      -0.556  11.366  20.621  0.00  0.00    +0.000 NA
ATOM     27  C   UNL     1      -1.397  12.131  21.388  0.00  0.00    +0.000 A 
ATOM     28  C   UNL     1      -2.627  12.523  21.017  0.00  0.00    +0.000 A 
ATOM     29  C   UNL     1      -3.082  12.160  19.664  0.00  0.00    +0.000 A 
ATOM     30  O   UNL     1      -4.192  12.464  19.240  0.00  0.00    +0.000 OA
ATOM     31  N   UNL     1      -2.167  11.477  18.921  0.00  0.00    +0.000 N 
ATOM     32  C   UNL     1      -3.546  13.315  21.883  0.00  0.00    +0.000 C 
ATOM     33  O   UNL     1      -3.083  13.379  23.245  0.00  0.00    +0.000 OA
ATOM     34  C   UNL     1      -1.693  13.703  23.315  0.00  0.00    +0.000 C 
ATOM     35  C   UNL     1      -0.859  12.567  22.726  0.00  0.00    +0.000 C 
ATOM     36  H   UNL     1      -2.457  11.246  17.971  0.00  0.00    +0.000 HD
ENDBRANCH  24  25
ENDBRANCH  22  24
ENDBRANCH  19  20
ENDBRANCH   4  19
TORSDOF 9
ENDMDL
MODEL 4
REMARK VINA RESULT:      -7.6      1.286      1.772
REMARK  Name = 
REMARK  10 active torsions:
REMARK  status: ('A' for Active; 'I' for Inactive)
REMARK    1  A    between atoms: C_1  and  C_2
REMARK    2  A    between atoms: C_2  and  C_3
REMARK    3  A    between atoms: C_3  and  O_4
REMARK    4  A    between atoms: O_4  and  C_5
REMARK    5  A    between atoms: C_8  and  C_9
REMARK    6  A    between atoms: C_9  and  C_11
REMARK    7  A    between atoms: N_14  and  C_15
REMARK    8  A    between atoms: C_15  and  C_16
REMARK    9  A    between atoms: N_18  and  C_19
REMARK   10  A    between atoms: C_19  and  C_20
REMARK                            x       y       z     vdW  Elec       q    Type
REMARK                         _______ _______ _______ _____ _____    ______ ____
ROOT
ATOM      1  C   UNL     1       1.824   2.991  18.946  0.00  0.00    +0.000 C 
ATOM      2  C   UNL     1       1.355   4.103  18.002  0.00  0.00    +0.000 C 
ATOM      3  C   UNL     1       1.794   5.513  18.388  0.00  0.00    +0.000 C 
ATOM      4  N   UNL     1       1.614   5.862  19.808  0.00  0.00    +0.000 NA
ATOM      5  C   UNL     1       1.980   4.828  20.782  0.00  0.00    +0.000 C 
ATOM      6  C   UNL     1       1.576   3.403  20.398  0.00  0.00    +0.000 C 
ENDROOT
BRANCH   1   7
ATOM      7  C   UNL     1       3.226   2.419  18.595  0.00  0.00    +0.000 C 
ATOM      8  O   UNL     1       3.479   1.232  18.658  0.00  0.00    +0.000 OA
BRANCH   7  12
ATOM      9  C   UNL     1       6.639   4.919  17.611  0.00  0.00    +0.000 A 
ATOM     10  C   UNL     1       6.189   4.774  18.922  0.00  0.00    +0.000 A 
ATOM     11  C   UNL     1       5.076   4.003  19.241  0.00  0.00    +0.000 A 
ATOM     12  C   UNL     1       4.356   3.364  18.225  0.00  0.00    +0.000 A 
ATOM     13  C   UNL     1       4.733   3.602  16.906  0.00  0.00    +0.000 A 
ATOM     14  C   UNL     1       5.895   4.320  16.592  0.00  0.00    +0.000 A 
BRANCH   9  15
ATOM     15  O   UNL     1       7.775   5.625  17.296  0.00  0.00    +0.000 OA
BRANCH  15  16
ATOM     16  C   UNL     1       7.502   6.857  16.598  0.00  0.00    +0.000 C 
BRANCH  16  18
ATOM     17  C   UNL     1       8.330   8.683  18.092  0.00  0.00    +0.000 C 
ATOM     18  C   UNL     1       7.105   7.941  17.576  0.00  0.00    +0.000 C 
ENDBRANCH  16  18
ENDBRANCH  15  16
ENDBRANCH   9  15
ENDBRANCH   7  12
ENDBRANCH   1   7
BRANCH   4  19
ATOM     19  C   UNL     1       2.279   7.157  20.121  0.00  0.00    +0.000 C 
BRANCH  19  20
ATOM     20  C   UNL     1       2.008   8.264  19.083  0.00  0.00    +0.000 C 
ATOM     21  O   UNL     1       2.713   8.488  18.093  0.00  0.00    +0.000 OA
ATOM     22  N   UNL     1       0.894   9.029  19.303  0.00  0.00    +0.000 N 
ATOM     23  H   UNL     1       0.597   9.175  20.262  0.00  0.00    +0.000 HD
BRANCH  22  24
ATOM     24  C   UNL     1       0.608  10.062  18.325  0.00  0.00    +0.000 C 
BRANCH  24  25
ATOM     25  C   UNL     1      -0.803  10.600  18.386  0.00  0.00    +0.000 A 
ATOM     26  N   UNL     1      -1.222  11.260  19.427  0.00  0.00    +0.000 NA
ATOM     27  C   UNL     1      -2.511  11.726  19.384  0.00  0.00    +0.000 A 
ATOM     28  C   UNL     1      -3.374  11.500  18.380  0.00  0.00    +0.000 A 
ATOM     29  C   UNL     1      -2.882  10.753  17.210  0.00  0.00    +0.000 A 
ATOM     30  O   UNL     1      -3.598  10.490  16.249  0.00  0.00    +0.000 OA
ATOM     31  N   UNL     1      -1.570  10.395  17.276  0.00  0.00    +0.000 N 
ATOM     32  C   UNL     1      -4.787  11.976  18.372  0.00  0.00    +0.000 C 
ATOM     33  O   UNL     1      -5.200  12.461  19.663  0.00  0.00    +0.000 OA
ATOM     34  C   UNL     1      -4.229  13.340  20.233  0.00  0.00    +0.000 C 
ATOM     35  C   UNL     1      -2.948  12.570  20.553  0.00  0.00    +0.000 C 
ATOM     36  H   UNL     1      -1.207   9.904  16.459  0.00  0.00    +0.000 HD
ENDBRANCH  24  25
ENDBRANCH  22  24
ENDBRANCH  19  20
ENDBRANCH   4  19
TORSDOF 9
ENDMDL
MODEL 5
REMARK VINA RESULT:      -7.6      1.751      2.494
REMARK  Name = 
REMARK  10 active torsions:
REMARK  status: ('A' for Active; 'I' for Inactive)
REMARK    1  A    between atoms: C_1  and  C_2
REMARK    2  A    between atoms: C_2  and  C_3
REMARK    3  A    between atoms: C_3  and  O_4
REMARK    4  A    between atoms: O_4  and  C_5
REMARK    5  A    between atoms: C_8  and  C_9
REMARK    6  A    between atoms: C_9  and  C_11
REMARK    7  A    between atoms: N_14  and  C_15
REMARK    8  A    between atoms: C_15  and  C_16
REMARK    9  A    between atoms: N_18  and  C_19
REMARK   10  A    between atoms: C_19  and  C_20
REMARK                            x       y       z     vdW  Elec       q    Type
REMARK                         _______ _______ _______ _____ _____    ______ ____
ROOT
ATOM      1  C   UNL     1       2.367   3.678  19.803  0.00  0.00    +0.000 C 
ATOM      2  C   UNL     1       1.624   4.055  18.517  0.00  0.00    +0.000 C 
ATOM      3  C   UNL     1       1.846   5.486  18.034  0.00  0.00    +0.000 C 
ATOM      4  N   UNL     1       1.746   6.525  19.073  0.00  0.00    +0.000 NA
ATOM      5  C   UNL     1       2.377   6.219  20.360  0.00  0.00    +0.000 C 
ATOM      6  C   UNL     1       2.192   4.780  20.848  0.00  0.00    +0.000 C 
ENDROOT
BRANCH   1   7
ATOM      7  C   UNL     1       3.807   3.143  19.561  0.00  0.00    +0.000 C 
ATOM      8  O   UNL     1       4.316   2.298  20.272  0.00  0.00    +0.000 OA
BRANCH   7  12
ATOM      9  C   UNL     1       6.431   4.645  16.443  0.00  0.00    +0.000 A 
ATOM     10  C   UNL     1       6.578   5.031  17.774  0.00  0.00    +0.000 A 
ATOM     11  C   UNL     1       5.720   4.581  18.773  0.00  0.00    +0.000 A 
ATOM     12  C   UNL     1       4.655   3.733  18.448  0.00  0.00    +0.000 A 
ATOM     13  C   UNL     1       4.437   3.441  17.105  0.00  0.00    +0.000 A 
ATOM     14  C   UNL     1       5.342   3.837  16.110  0.00  0.00    +0.000 A 
BRANCH   9  15
ATOM     15  O   UNL     1       7.312   5.032  15.463  0.00  0.00    +0.000 OA
BRANCH  15  16
ATOM     16  C   UNL     1       6.746   4.978  14.137  0.00  0.00    +0.000 C 
BRANCH  16  18
ATOM     17  C   UNL     1       7.459   4.423  11.806  0.00  0.00    +0.000 C 
ATOM     18  C   UNL     1       7.828   5.147  13.094  0.00  0.00    +0.000 C 
ENDBRANCH  16  18
ENDBRANCH  15  16
ENDBRANCH   9  15
ENDBRANCH   7  12
ENDBRANCH   1   7
BRANCH   4  19
ATOM     19  C   UNL     1       2.203   7.842  18.548  0.00  0.00    +0.000 C 
BRANCH  19  20
ATOM     20  C   UNL     1       1.446   9.046  19.141  0.00  0.00    +0.000 C 
ATOM     21  O   UNL     1       1.135   9.166  20.330  0.00  0.00    +0.000 OA
ATOM     22  N   UNL     1       1.119  10.039  18.256  0.00  0.00    +0.000 N 
ATOM     23  H   UNL     1       0.946   9.782  17.290  0.00  0.00    +0.000 HD
BRANCH  22  24
ATOM     24  C   UNL     1       0.427  11.194  18.798  0.00  0.00    +0.000 C 
BRANCH  24  25
ATOM     25  C   UNL     1      -1.032  11.282  18.408  0.00  0.00    +0.000 A 
ATOM     26  N   UNL     1      -1.927  11.691  19.260  0.00  0.00    +0.000 NA
ATOM     27  C   UNL     1      -3.221  11.757  18.811  0.00  0.00    +0.000 A 
ATOM     28  C   UNL     1      -3.627  11.377  17.588  0.00  0.00    +0.000 A 
ATOM     29  C   UNL     1      -2.600  10.918  16.638  0.00  0.00    +0.000 A 
ATOM     30  O   UNL     1      -2.875  10.542  15.503  0.00  0.00    +0.000 OA
ATOM     31  N   UNL     1      -1.325  10.959  17.115  0.00  0.00    +0.000 N 
ATOM     32  C   UNL     1      -5.047  11.412  17.133  0.00  0.00    +0.000 C 
ATOM     33  O   UNL     1      -5.958  11.634  18.225  0.00  0.00    +0.000 OA
ATOM     34  C   UNL     1      -5.525  12.706  19.064  0.00  0.00    +0.000 C 
ATOM     35  C   UNL     1      -4.228  12.324  19.777  0.00  0.00    +0.000 C 
ATOM     36  H   UNL     1      -0.600  10.674  16.458  0.00  0.00    +0.000 HD
ENDBRANCH  24  25
ENDBRANCH  22  24
ENDBRANCH  19  20
ENDBRANCH   4  19
TORSDOF 9
ENDMDL
MODEL 6
REMARK VINA RESULT:      -7.6      3.411      5.440
REMARK  Name = 
REMARK  10 active torsions:
REMARK  status: ('A' for Active; 'I' for Inactive)
REMARK    1  A    between atoms: C_1  and  C_2
REMARK    2  A    between atoms: C_2  and  C_3
REMARK    3  A    between atoms: C_3  and  O_4
REMARK    4  A    between atoms: O_4  and  C_5
REMARK    5  A    between atoms: C_8  and  C_9
REMARK    6  A    between atoms: C_9  and  C_11
REMARK    7  A    between atoms: N_14  and  C_15
REMARK    8  A    between atoms: C_15  and  C_16
REMARK    9  A    between atoms: N_18  and  C_19
REMARK   10  A    between atoms: C_19  and  C_20
REMARK                            x       y       z     vdW  Elec       q    Type
REMARK                         _______ _______ _______ _____ _____    ______ ____
ROOT
ATOM      1  C   UNL     1       6.807   5.955  17.688  0.00  0.00    +0.000 C 
ATOM      2  C   UNL     1       6.551   5.603  19.158  0.00  0.00    +0.000 C 
ATOM      3  C   UNL     1       5.196   4.963  19.447  0.00  0.00    +0.000 C 
ATOM      4  N   UNL     1       4.041   5.620  18.811  0.00  0.00    +0.000 NA
ATOM      5  C   UNL     1       4.221   6.048  17.421  0.00  0.00    +0.000 C 
ATOM      6  C   UNL     1       5.585   6.664  17.103  0.00  0.00    +0.000 C 
ENDROOT
BRANCH   1   7
ATOM      7  C   UNL     1       7.423   4.791  16.862  0.00  0.00    +0.000 C 
ATOM      8  O   UNL     1       8.370   4.140  17.260  0.00  0.00    +0.000 OA
BRANCH   7  12
ATOM      9  C   UNL     1       5.699   4.112  12.934  0.00  0.00    +0.000 A 
ATOM     10  C   UNL     1       5.126   3.582  14.089  0.00  0.00    +0.000 A 
ATOM     11  C   UNL     1       5.691   3.767  15.346  0.00  0.00    +0.000 A 
ATOM     12  C   UNL     1       6.886   4.483  15.476  0.00  0.00    +0.000 A 
ATOM     13  C   UNL     1       7.521   4.912  14.314  0.00  0.00    +0.000 A 
ATOM     14  C   UNL     1       6.916   4.787  13.055  0.00  0.00    +0.000 A 
BRANCH   9  15
ATOM     15  O   UNL     1       5.112   3.990  11.698  0.00  0.00    +0.000 OA
BRANCH  15  16
ATOM     16  C   UNL     1       4.530   2.689  11.472  0.00  0.00    +0.000 C 
BRANCH  16  18
ATOM     17  C   UNL     1       3.168   4.229  10.048  0.00  0.00    +0.000 C 
ATOM     18  C   UNL     1       3.361   2.793  10.518  0.00  0.00    +0.000 C 
ENDBRANCH  16  18
ENDBRANCH  15  16
ENDBRANCH   9  15
ENDBRANCH   7  12
ENDBRANCH   1   7
BRANCH   4  19
ATOM     19  C   UNL     1       2.813   4.791  18.966  0.00  0.00    +0.000 C 
BRANCH  19  20
ATOM     20  C   UNL     1       1.816   5.341  20.004  0.00  0.00    +0.000 C 
ATOM     21  O   UNL     1       0.865   4.706  20.472  0.00  0.00    +0.000 OA
ATOM     22  N   UNL     1       2.035   6.627  20.419  0.00  0.00    +0.000 N 
ATOM     23  H   UNL     1       2.467   7.273  19.766  0.00  0.00    +0.000 HD
BRANCH  22  24
ATOM     24  C   UNL     1       1.121   7.157  21.413  0.00  0.00    +0.000 C 
BRANCH  24  25
ATOM     25  C   UNL     1       0.718   8.596  21.181  0.00  0.00    +0.000 A 
ATOM     26  N   UNL     1       0.021   9.246  22.069  0.00  0.00    +0.000 NA
ATOM     27  C   UNL     1      -0.281  10.552  21.781  0.00  0.00    +0.000 A 
ATOM     28  C   UNL     1       0.039  11.177  20.635  0.00  0.00    +0.000 A 
ATOM     29  C   UNL     1       0.828  10.427  19.644  0.00  0.00    +0.000 A 
ATOM     30  O   UNL     1       1.159  10.909  18.566  0.00  0.00    +0.000 OA
ATOM     31  N   UNL     1       1.171   9.165  20.027  0.00  0.00    +0.000 N 
ATOM     32  C   UNL     1      -0.339  12.584  20.320  0.00  0.00    +0.000 C 
ATOM     33  O   UNL     1      -1.308  13.103  21.249  0.00  0.00    +0.000 OA
ATOM     34  C   UNL     1      -0.946  12.823  22.602  0.00  0.00    +0.000 C 
ATOM     35  C   UNL     1      -1.003  11.317  22.859  0.00  0.00    +0.000 C 
ATOM     36  H   UNL     1       1.744   8.645  19.364  0.00  0.00    +0.000 HD
ENDBRANCH  24  25
ENDBRANCH  22  24
ENDBRANCH  19  20
ENDBRANCH   4  19
TORSDOF 9
ENDMDL
MODEL 7
REMARK VINA RESULT:      -7.4      2.346      3.290
REMARK  Name = 
REMARK  10 active torsions:
REMARK  status: ('A' for Active; 'I' for Inactive)
REMARK    1  A    between atoms: C_1  and  C_2
REMARK    2  A    between atoms: C_2  and  C_3
REMARK    3  A    between atoms: C_3  and  O_4
REMARK    4  A    between atoms: O_4  and  C_5
REMARK    5  A    between atoms: C_8  and  C_9
REMARK    6  A    between atoms: C_9  and  C_11
REMARK    7  A    between atoms: N_14  and  C_15
REMARK    8  A    between atoms: C_15  and  C_16
REMARK    9  A    between atoms: N_18  and  C_19
REMARK   10  A    between atoms: C_19  and  C_20
REMARK                            x       y       z     vdW  Elec       q    Type
REMARK                         _______ _______ _______ _____ _____    ______ ____
ROOT
ATOM      1  C   UNL     1       1.645   3.430  18.569  0.00  0.00    +0.000 C 
ATOM      2  C   UNL     1       1.387   4.725  17.793  0.00  0.00    +0.000 C 
ATOM      3  C   UNL     1       1.905   5.997  18.460  0.00  0.00    +0.000 C 
ATOM      4  N   UNL     1       1.600   6.125  19.895  0.00  0.00    +0.000 NA
ATOM      5  C   UNL     1       1.759   4.912  20.704  0.00  0.00    +0.000 C 
ATOM      6  C   UNL     1       1.274   3.621  20.040  0.00  0.00    +0.000 C 
ENDROOT
BRANCH   1   7
ATOM      7  C   UNL     1       3.020   2.775  18.257  0.00  0.00    +0.000 C 
ATOM      8  O   UNL     1       3.175   1.570  18.227  0.00  0.00    +0.000 OA
BRANCH   7  12
ATOM      9  C   UNL     1       6.677   5.062  17.750  0.00  0.00    +0.000 A 
ATOM     10  C   UNL     1       6.077   4.905  18.998  0.00  0.00    +0.000 A 
ATOM     11  C   UNL     1       4.888   4.203  19.163  0.00  0.00    +0.000 A 
ATOM     12  C   UNL     1       4.243   3.650  18.050  0.00  0.00    +0.000 A 
ATOM     13  C   UNL     1       4.778   3.906  16.791  0.00  0.00    +0.000 A 
ATOM     14  C   UNL     1       6.012   4.552  16.633  0.00  0.00    +0.000 A 
BRANCH   9  15
ATOM     15  O   UNL     1       7.884   5.697  17.587  0.00  0.00    +0.000 OA
BRANCH  15  16
ATOM     16  C   UNL     1       8.019   6.878  18.405  0.00  0.00    +0.000 C 
BRANCH  16  18
ATOM     17  C   UNL     1       8.443   9.333  18.194  0.00  0.00    +0.000 C 
ATOM     18  C   UNL     1       7.753   8.121  17.584  0.00  0.00    +0.000 C 
ENDBRANCH  16  18
ENDBRANCH  15  16
ENDBRANCH   9  15
ENDBRANCH   7  12
ENDBRANCH   1   7
BRANCH   4  19
ATOM     19  C   UNL     1       2.340   7.272  20.491  0.00  0.00    +0.000 C 
BRANCH  19  20
ATOM     20  C   UNL     1       1.434   8.299  21.198  0.00  0.00    +0.000 C 
ATOM     21  O   UNL     1       1.716   8.878  22.252  0.00  0.00    +0.000 OA
ATOM     22  N   UNL     1       0.242   8.568  20.580  0.00  0.00    +0.000 N 
ATOM     23  H   UNL     1      -0.190   7.832  20.033  0.00  0.00    +0.000 HD
BRANCH  22  24
ATOM     24  C   UNL     1      -0.616   9.550  21.218  0.00  0.00    +0.000 C 
BRANCH  24  25
ATOM     25  C   UNL     1      -0.465  10.953  20.674  0.00  0.00    +0.000 A 
ATOM     26  N   UNL     1       0.055  11.899  21.402  0.00  0.00    +0.000 NA
ATOM     27  C   UNL     1       0.170  13.134  20.818  0.00  0.00    +0.000 A 
ATOM     28  C   UNL     1      -0.266  13.442  19.585  0.00  0.00    +0.000 A 
ATOM     29  C   UNL     1      -0.850  12.359  18.776  0.00  0.00    +0.000 A 
ATOM     30  O   UNL     1      -1.284  12.544  17.643  0.00  0.00    +0.000 OA
ATOM     31  N   UNL     1      -0.855  11.138  19.380  0.00  0.00    +0.000 N 
ATOM     32  C   UNL     1      -0.175  14.803  18.984  0.00  0.00    +0.000 C 
ATOM     33  O   UNL     1       0.175  15.801  19.960  0.00  0.00    +0.000 OA
ATOM     34  C   UNL     1       1.273  15.382  20.773  0.00  0.00    +0.000 C 
ATOM     35  C   UNL     1       0.861  14.192  21.638  0.00  0.00    +0.000 C 
ATOM     36  H   UNL     1      -1.228  10.372  18.819  0.00  0.00    +0.000 HD
ENDBRANCH  24  25
ENDBRANCH  22  24
ENDBRANCH  19  20
ENDBRANCH   4  19
TORSDOF 9
ENDMDL
MODEL 8
REMARK VINA RESULT:      -7.4      2.041      3.250
REMARK  Name = 
REMARK  10 active torsions:
REMARK  status: ('A' for Active; 'I' for Inactive)
REMARK    1  A    between atoms: C_1  and  C_2
REMARK    2  A    between atoms: C_2  and  C_3
REMARK    3  A    between atoms: C_3  and  O_4
REMARK    4  A    between atoms: O_4  and  C_5
REMARK    5  A    between atoms: C_8  and  C_9
REMARK    6  A    between atoms: C_9  and  C_11
REMARK    7  A    between atoms: N_14  and  C_15
REMARK    8  A    between atoms: C_15  and  C_16
REMARK    9  A    between atoms: N_18  and  C_19
REMARK   10  A    between atoms: C_19  and  C_20
REMARK                            x       y       z     vdW  Elec       q    Type
REMARK                         _______ _______ _______ _____ _____    ______ ____
ROOT
ATOM      1  C   UNL     1       4.292   2.918  17.620  0.00  0.00    +0.000 C 
ATOM      2  C   UNL     1       2.783   2.672  17.524  0.00  0.00    +0.000 C 
ATOM      3  C   UNL     1       1.918   3.595  18.379  0.00  0.00    +0.000 C 
ATOM      4  N   UNL     1       2.375   3.779  19.766  0.00  0.00    +0.000 NA
ATOM      5  C   UNL     1       3.817   3.958  19.957  0.00  0.00    +0.000 C 
ATOM      6  C   UNL     1       4.703   3.064  19.086  0.00  0.00    +0.000 C 
ENDROOT
BRANCH   1   7
ATOM      7  C   UNL     1       4.819   3.984  16.620  0.00  0.00    +0.000 C 
ATOM      8  O   UNL     1       4.478   4.008  15.453  0.00  0.00    +0.000 OA
BRANCH   7  12
ATOM      9  C   UNL     1       7.596   6.970  18.115  0.00  0.00    +0.000 A 
ATOM     10  C   UNL     1       6.553   7.304  17.254  0.00  0.00    +0.000 A 
ATOM     11  C   UNL     1       5.681   6.348  16.744  0.00  0.00    +0.000 A 
ATOM     12  C   UNL     1       5.853   4.999  17.073  0.00  0.00    +0.000 A 
ATOM     13  C   UNL     1       6.963   4.649  17.838  0.00  0.00    +0.000 A 
ATOM     14  C   UNL     1       7.799   5.620  18.408  0.00  0.00    +0.000 A 
BRANCH   9  15
ATOM     15  O   UNL     1       8.421   7.915  18.675  0.00  0.00    +0.000 OA
BRANCH  15  16
ATOM     16  C   UNL     1       8.293   9.215  18.062  0.00  0.00    +0.000 C 
BRANCH  16  18
ATOM     17  C   UNL     1       9.087  11.585  18.127  0.00  0.00    +0.000 C 
ATOM     18  C   UNL     1       9.335  10.163  18.611  0.00  0.00    +0.000 C 
ENDBRANCH  16  18
ENDBRANCH  15  16
ENDBRANCH   9  15
ENDBRANCH   7  12
ENDBRANCH   1   7
BRANCH   4  19
ATOM     19  C   UNL     1       1.604   4.864  20.435  0.00  0.00    +0.000 C 
BRANCH  19  20
ATOM     20  C   UNL     1       1.953   6.279  19.934  0.00  0.00    +0.000 C 
ATOM     21  O   UNL     1       2.583   6.523  18.900  0.00  0.00    +0.000 OA
ATOM     22  N   UNL     1       1.509   7.314  20.712  0.00  0.00    +0.000 N 
ATOM     23  H   UNL     1       1.421   7.158  21.711  0.00  0.00    +0.000 HD
BRANCH  22  24
ATOM     24  C   UNL     1       1.807   8.656  20.245  0.00  0.00    +0.000 C 
BRANCH  24  25
ATOM     25  C   UNL     1       0.697   9.655  20.479  0.00  0.00    +0.000 A 
ATOM     26  N   UNL     1      -0.022  10.097  19.488  0.00  0.00    +0.000 NA
ATOM     27  C   UNL     1      -1.019  10.986  19.798  0.00  0.00    +0.000 A 
ATOM     28  C   UNL     1      -1.260  11.468  21.029  0.00  0.00    +0.000 A 
ATOM     29  C   UNL     1      -0.437  10.955  22.137  0.00  0.00    +0.000 A 
ATOM     30  O   UNL     1      -0.576  11.342  23.293  0.00  0.00    +0.000 OA
ATOM     31  N   UNL     1       0.476  10.010  21.777  0.00  0.00    +0.000 N 
ATOM     32  C   UNL     1      -2.319  12.471  21.340  0.00  0.00    +0.000 C 
ATOM     33  O   UNL     1      -2.866  13.064  20.148  0.00  0.00    +0.000 OA
ATOM     34  C   UNL     1      -3.183  12.077  19.164  0.00  0.00    +0.000 C 
ATOM     35  C   UNL     1      -1.904  11.413  18.656  0.00  0.00    +0.000 C 
ATOM     36  H   UNL     1       1.032   9.624  22.540  0.00  0.00    +0.000 HD
ENDBRANCH  24  25
ENDBRANCH  22  24
ENDBRANCH  19  20
ENDBRANCH   4  19
TORSDOF 9
ENDMDL
MODEL 9
REMARK VINA RESULT:      -7.4      1.406      1.793
REMARK  Name = 
REMARK  10 active torsions:
REMARK  status: ('A' for Active; 'I' for Inactive)
REMARK    1  A    between atoms: C_1  and  C_2
REMARK    2  A    between atoms: C_2  and  C_3
REMARK    3  A    between atoms: C_3  and  O_4
REMARK    4  A    between atoms: O_4  and  C_5
REMARK    5  A    between atoms: C_8  and  C_9
REMARK    6  A    between atoms: C_9  and  C_11
REMARK    7  A    between atoms: N_14  and  C_15
REMARK    8  A    between atoms: C_15  and  C_16
REMARK    9  A    between atoms: N_18  and  C_19
REMARK   10  A    between atoms: C_19  and  C_20
REMARK                            x       y       z     vdW  Elec       q    Type
REMARK                         _______ _______ _______ _____ _____    ______ ____
ROOT
ATOM      1  C   UNL     1       1.500   3.436  18.498  0.00  0.00    +0.000 C 
ATOM      2  C   UNL     1       1.338   4.655  17.584  0.00  0.00    +0.000 C 
ATOM      3  C   UNL     1       1.896   5.963  18.140  0.00  0.00    +0.000 C 
ATOM      4  N   UNL     1       1.545   6.253  19.540  0.00  0.00    +0.000 NA
ATOM      5  C   UNL     1       1.612   5.124  20.474  0.00  0.00    +0.000 C 
ATOM      6  C   UNL     1       1.085   3.796  19.925  0.00  0.00    +0.000 C 
ENDROOT
BRANCH   1   7
ATOM      7  C   UNL     1       2.850   2.688  18.312  0.00  0.00    +0.000 C 
ATOM      8  O   UNL     1       2.929   1.475  18.326  0.00  0.00    +0.000 OA
BRANCH   7  12
ATOM      9  C   UNL     1       6.675   4.726  18.028  0.00  0.00    +0.000 A 
ATOM     10  C   UNL     1       5.976   4.641  19.231  0.00  0.00    +0.000 A 
ATOM     11  C   UNL     1       4.735   4.019  19.322  0.00  0.00    +0.000 A 
ATOM     12  C   UNL     1       4.139   3.478  18.178  0.00  0.00    +0.000 A 
ATOM     13  C   UNL     1       4.780   3.666  16.956  0.00  0.00    +0.000 A 
ATOM     14  C   UNL     1       6.062   4.228  16.876  0.00  0.00    +0.000 A 
BRANCH   9  15
ATOM     15  O   UNL     1       7.929   5.279  17.943  0.00  0.00    +0.000 OA
BRANCH  15  16
ATOM     16  C   UNL     1       8.038   6.547  18.623  0.00  0.00    +0.000 C 
BRANCH  16  18
ATOM     17  C   UNL     1       6.395   7.947  17.361  0.00  0.00    +0.000 C 
ATOM     18  C   UNL     1       7.869   7.687  17.644  0.00  0.00    +0.000 C 
ENDBRANCH  16  18
ENDBRANCH  15  16
ENDBRANCH   9  15
ENDBRANCH   7  12
ENDBRANCH   1   7
BRANCH   4  19
ATOM     19  C   UNL     1       2.321   7.419  20.048  0.00  0.00    +0.000 C 
BRANCH  19  20
ATOM     20  C   UNL     1       1.444   8.596  20.515  0.00  0.00    +0.000 C 
ATOM     21  O   UNL     1       1.277   8.925  21.694  0.00  0.00    +0.000 OA
ATOM     22  N   UNL     1       0.827   9.311  19.523  0.00  0.00    +0.000 N 
ATOM     23  H   UNL     1       0.577   8.825  18.668  0.00  0.00    +0.000 HD
BRANCH  22  24
ATOM     24  C   UNL     1       0.014  10.438  19.940  0.00  0.00    +0.000 C 
BRANCH  24  25
ATOM     25  C   UNL     1      -1.211  10.671  19.084  0.00  0.00    +0.000 A 
ATOM     26  N   UNL     1      -2.252  11.289  19.562  0.00  0.00    +0.000 NA
ATOM     27  C   UNL     1      -3.308  11.471  18.706  0.00  0.00    +0.000 A 
ATOM     28  C   UNL     1      -3.360  11.009  17.446  0.00  0.00    +0.000 A 
ATOM     29  C   UNL     1      -2.172  10.314  16.922  0.00  0.00    +0.000 A 
ATOM     30  O   UNL     1      -2.128   9.850  15.787  0.00  0.00    +0.000 OA
ATOM     31  N   UNL     1      -1.126  10.244  17.791  0.00  0.00    +0.000 N 
ATOM     32  C   UNL     1      -4.536  11.177  16.544  0.00  0.00    +0.000 C 
ATOM     33  O   UNL     1      -5.699  11.640  17.256  0.00  0.00    +0.000 OA
ATOM     34  C   UNL     1      -5.389  12.735  18.119  0.00  0.00    +0.000 C 
ATOM     35  C   UNL     1      -4.465  12.272  19.244  0.00  0.00    +0.000 C 
ATOM     36  H   UNL     1      -0.285   9.792  17.431  0.00  0.00    +0.000 HD
ENDBRANCH  24  25
ENDBRANCH  22  24
ENDBRANCH  19  20
ENDBRANCH   4  19
TORSDOF 9
ENDMDL
