MODEL 1
REMARK VINA RESULT:      -5.3      0.000      0.000
REMARK  Name = 
REMARK  4 active torsions:
REMARK  status: ('A' for Active; 'I' for Inactive)
REMARK    1  A    between atoms: C_2  and  O_3
REMARK    2  A    between atoms: C_2  and  C_4
REMARK    3  A    between atoms: C_7  and  C_8
REMARK    4  A    between atoms: C_8  and  O_10
REMARK                            x       y       z     vdW  Elec       q    Type
REMARK                         _______ _______ _______ _____ _____    ______ ____
ROOT
ATOM      1  C   UNK     1       7.399   5.264  17.756  0.00  0.00    +0.000 C 
ATOM      2  C   UNK     1       6.041   4.584  17.835  0.00  0.00    +0.000 C 
ATOM      3  O   UNK     1       5.280   5.065  16.719  0.00  0.00    +0.000 OA
ATOM      4  C   UNK     1       6.178   5.718  15.853  0.00  0.00    +0.000 C 
ATOM      5  N   UNK     1       7.249   6.329  16.699  0.00  0.00    +0.000 NA
ATOM      6  H   UNK     1       6.744   7.102  17.153  0.00  0.00    +0.000 HD
ENDROOT
BRANCH   1   8
ATOM      7  O   UNK     1       7.604   5.379  20.186  0.00  0.00    +0.000 OA
ATOM      8  C   UNK     1       7.801   5.882  19.093  0.00  0.00    +0.000 C 
BRANCH   8   9
ATOM      9  O   UNK     1       8.448   7.067  18.938  0.00  0.00    +0.000 OA
ATOM     10  H   UNK     1       8.701   7.202  18.002  0.00  0.00    +0.000 HD
ENDBRANCH   8   9
ENDBRANCH   1   8
BRANCH   4  11
ATOM     11  C   UNK     1       6.817   4.837  14.734  0.00  0.00    +0.000 C 
ATOM     12  O   UNK     1       6.429   3.735  14.382  0.00  0.00    +0.000 OA
BRANCH  11  13
ATOM     13  O   UNK     1       7.885   5.457  14.158  0.00  0.00    +0.000 OA
ATOM     14  H   UNK     1       7.636   6.394  13.989  0.00  0.00    +0.000 HD
ENDBRANCH  11  13
ENDBRANCH   4  11
TORSDOF 4
ENDMDL
MODEL 2
REMARK VINA RESULT:      -5.2      2.708      4.272
REMARK  Name = 
REMARK  4 active torsions:
REMARK  status: ('A' for Active; 'I' for Inactive)
REMARK    1  A    between atoms: C_2  and  O_3
REMARK    2  A    between atoms: C_2  and  C_4
REMARK    3  A    between atoms: C_7  and  C_8
REMARK    4  A    between atoms: C_8  and  O_10
REMARK                            x       y       z     vdW  Elec       q    Type
REMARK                         _______ _______ _______ _____ _____    ______ ____
ROOT
ATOM      1  C   UNK     1       4.589   3.605  17.354  0.00  0.00    +0.000 C 
ATOM      2  C   UNK     1       4.121   5.051  17.308  0.00  0.00    +0.000 C 
ATOM      3  O   UNK     1       4.996   5.789  18.173  0.00  0.00    +0.000 OA
ATOM      4  C   UNK     1       6.092   4.955  18.465  0.00  0.00    +0.000 C 
ATOM      5  N   UNK     1       5.590   3.547  18.479  0.00  0.00    +0.000 NA
ATOM      6  H   UNK     1       5.035   3.530  19.346  0.00  0.00    +0.000 HD
ENDROOT
BRANCH   1   8
ATOM      7  O   UNK     1       2.268   2.846  17.301  0.00  0.00    +0.000 OA
ATOM      8  C   UNK     1       3.430   2.643  17.611  0.00  0.00    +0.000 C 
BRANCH   8   9
ATOM      9  O   UNK     1       3.840   1.493  18.207  0.00  0.00    +0.000 OA
ATOM     10  H   UNK     1       3.229   1.243  18.930  0.00  0.00    +0.000 HD
ENDBRANCH   8   9
ENDBRANCH   1   8
BRANCH   4  11
ATOM     11  C   UNK     1       7.321   5.076  17.509  0.00  0.00    +0.000 C 
ATOM     12  O   UNK     1       7.512   5.967  16.698  0.00  0.00    +0.000 OA
BRANCH  11  13
ATOM     13  O   UNK     1       8.200   4.051  17.693  0.00  0.00    +0.000 OA
ATOM     14  H   UNK     1       9.079   4.439  17.905  0.00  0.00    +0.000 HD
ENDBRANCH  11  13
ENDBRANCH   4  11
TORSDOF 4
ENDMDL
MODEL 3
REMARK VINA RESULT:      -5.2      2.040      4.439
REMARK  Name = 
REMARK  4 active torsions:
REMARK  status: ('A' for Active; 'I' for Inactive)
REMARK    1  A    between atoms: C_2  and  O_3
REMARK    2  A    between atoms: C_2  and  C_4
REMARK    3  A    between atoms: C_7  and  C_8
REMARK    4  A    between atoms: C_8  and  O_10
REMARK                            x       y       z     vdW  Elec       q    Type
REMARK                         _______ _______ _______ _____ _____    ______ ____
ROOT
ATOM      1  C   UNK     1       6.369   4.839  16.175  0.00  0.00    +0.000 C 
ATOM      2  C   UNK     1       5.367   5.979  16.275  0.00  0.00    +0.000 C 
ATOM      3  O   UNK     1       4.225   5.457  16.968  0.00  0.00    +0.000 OA
ATOM      4  C   UNK     1       4.608   4.225  17.531  0.00  0.00    +0.000 C 
ATOM      5  N   UNK     1       5.616   3.609  16.614  0.00  0.00    +0.000 NA
ATOM      6  H   UNK     1       5.033   3.338  15.811  0.00  0.00    +0.000 HD
ENDROOT
BRANCH   1   8
ATOM      7  O   UNK     1       7.697   5.412  14.208  0.00  0.00    +0.000 OA
ATOM      8  C   UNK     1       6.896   4.671  14.751  0.00  0.00    +0.000 C 
BRANCH   8   9
ATOM      9  O   UNK     1       6.393   3.564  14.144  0.00  0.00    +0.000 OA
ATOM     10  H   UNK     1       7.082   2.872  14.063  0.00  0.00    +0.000 HD
ENDBRANCH   8   9
ENDBRANCH   1   8
BRANCH   4  11
ATOM     11  C   UNK     1       5.171   4.279  18.987  0.00  0.00    +0.000 C 
ATOM     12  O   UNK     1       5.420   5.292  19.620  0.00  0.00    +0.000 OA
BRANCH  11  13
ATOM     13  O   UNK     1       5.347   3.030  19.501  0.00  0.00    +0.000 OA
ATOM     14  H   UNK     1       6.093   3.068  20.142  0.00  0.00    +0.000 HD
ENDBRANCH  11  13
ENDBRANCH   4  11
TORSDOF 4
ENDMDL
MODEL 4
REMARK VINA RESULT:      -5.1      2.358      3.317
REMARK  Name = 
REMARK  4 active torsions:
REMARK  status: ('A' for Active; 'I' for Inactive)
REMARK    1  A    between atoms: C_2  and  O_3
REMARK    2  A    between atoms: C_2  and  C_4
REMARK    3  A    between atoms: C_7  and  C_8
REMARK    4  A    between atoms: C_8  and  O_10
REMARK                            x       y       z     vdW  Elec       q    Type
REMARK                         _______ _______ _______ _____ _____    ______ ____
ROOT
ATOM      1  C   UNK     1       5.179   4.432  18.399  0.00  0.00    +0.000 C 
ATOM      2  C   UNK     1       6.252   5.069  19.269  0.00  0.00    +0.000 C 
ATOM      3  O   UNK     1       7.483   4.962  18.541  0.00  0.00    +0.000 OA
ATOM      4  C   UNK     1       7.154   4.598  17.221  0.00  0.00    +0.000 C 
ATOM      5  N   UNK     1       5.928   3.746  17.285  0.00  0.00    +0.000 NA
ATOM      6  H   UNK     1       6.297   2.875  17.692  0.00  0.00    +0.000 HD
ENDROOT
BRANCH   1   8
ATOM      7  O   UNK     1       3.120   3.451  19.269  0.00  0.00    +0.000 OA
ATOM      8  C   UNK     1       4.336   3.428  19.182  0.00  0.00    +0.000 C 
BRANCH   8   9
ATOM      9  O   UNK     1       5.094   2.463  19.764  0.00  0.00    +0.000 OA
ATOM     10  H   UNK     1       5.709   2.068  19.112  0.00  0.00    +0.000 HD
ENDBRANCH   8   9
ENDBRANCH   1   8
BRANCH   4  11
ATOM     11  C   UNK     1       6.938   5.775  16.217  0.00  0.00    +0.000 C 
ATOM     12  O   UNK     1       6.205   5.758  15.243  0.00  0.00    +0.000 OA
BRANCH  11  13
ATOM     13  O   UNK     1       7.671   6.870  16.566  0.00  0.00    +0.000 OA
ATOM     14  H   UNK     1       8.618   6.607  16.587  0.00  0.00    +0.000 HD
ENDBRANCH  11  13
ENDBRANCH   4  11
TORSDOF 4
ENDMDL
MODEL 5
REMARK VINA RESULT:      -5.1      0.941      4.349
REMARK  Name = 
REMARK  4 active torsions:
REMARK  status: ('A' for Active; 'I' for Inactive)
REMARK    1  A    between atoms: C_2  and  O_3
REMARK    2  A    between atoms: C_2  and  C_4
REMARK    3  A    between atoms: C_7  and  C_8
REMARK    4  A    between atoms: C_8  and  O_10
REMARK                            x       y       z     vdW  Elec       q    Type
REMARK                         _______ _______ _______ _____ _____    ______ ____
ROOT
ATOM      1  C   UNK     1       7.047   5.379  16.147  0.00  0.00    +0.000 C 
ATOM      2  C   UNK     1       5.671   5.734  16.688  0.00  0.00    +0.000 C 
ATOM      3  O   UNK     1       5.592   5.163  18.002  0.00  0.00    +0.000 OA
ATOM      4  C   UNK     1       6.896   4.780  18.368  0.00  0.00    +0.000 C 
ATOM      5  N   UNK     1       7.609   4.374  17.118  0.00  0.00    +0.000 NA
ATOM      6  H   UNK     1       7.149   3.481  16.893  0.00  0.00    +0.000 HD
ENDROOT
BRANCH   1   8
ATOM      7  O   UNK     1       7.403   5.315  13.732  0.00  0.00    +0.000 OA
ATOM      8  C   UNK     1       6.967   4.787  14.741  0.00  0.00    +0.000 C 
BRANCH   8   9
ATOM      9  O   UNK     1       6.373   3.565  14.731  0.00  0.00    +0.000 OA
ATOM     10  H   UNK     1       6.501   3.126  13.865  0.00  0.00    +0.000 HD
ENDBRANCH   8   9
ENDBRANCH   1   8
BRANCH   4  11
ATOM     11  C   UNK     1       7.735   5.848  19.140  0.00  0.00    +0.000 C 
ATOM     12  O   UNK     1       8.142   6.904  18.685  0.00  0.00    +0.000 OA
BRANCH  11  13
ATOM     13  O   UNK     1       7.960   5.468  20.430  0.00  0.00    +0.000 OA
ATOM     14  H   UNK     1       7.390   4.690  20.621  0.00  0.00    +0.000 HD
ENDBRANCH  11  13
ENDBRANCH   4  11
TORSDOF 4
ENDMDL
MODEL 6
REMARK VINA RESULT:      -5.1      2.611      4.358
REMARK  Name = 
REMARK  4 active torsions:
REMARK  status: ('A' for Active; 'I' for Inactive)
REMARK    1  A    between atoms: C_2  and  O_3
REMARK    2  A    between atoms: C_2  and  C_4
REMARK    3  A    between atoms: C_7  and  C_8
REMARK    4  A    between atoms: C_8  and  O_10
REMARK                            x       y       z     vdW  Elec       q    Type
REMARK                         _______ _______ _______ _____ _____    ______ ____
ROOT
ATOM      1  C   UNK     1       5.908   4.652  17.354  0.00  0.00    +0.000 C 
ATOM      2  C   UNK     1       4.883   3.972  16.460  0.00  0.00    +0.000 C 
ATOM      3  O   UNK     1       4.103   3.120  17.311  0.00  0.00    +0.000 OA
ATOM      4  C   UNK     1       4.394   3.482  18.640  0.00  0.00    +0.000 C 
ATOM      5  N   UNK     1       5.817   3.937  18.677  0.00  0.00    +0.000 NA
ATOM      6  H   UNK     1       6.325   3.050  18.551  0.00  0.00    +0.000 HD
ENDROOT
BRANCH   1   8
ATOM      7  O   UNK     1       7.643   4.877  15.650  0.00  0.00    +0.000 OA
ATOM      8  C   UNK     1       7.319   4.547  16.778  0.00  0.00    +0.000 C 
BRANCH   8   9
ATOM      9  O   UNK     1       8.210   4.066  17.685  0.00  0.00    +0.000 OA
ATOM     10  H   UNK     1       9.120   4.099  17.325  0.00  0.00    +0.000 HD
ENDBRANCH   8   9
ENDBRANCH   1   8
BRANCH   4  11
ATOM     11  C   UNK     1       3.467   4.567  19.275  0.00  0.00    +0.000 C 
ATOM     12  O   UNK     1       3.839   5.572  19.859  0.00  0.00    +0.000 OA
BRANCH  11  13
ATOM     13  O   UNK     1       2.150   4.272  19.088  0.00  0.00    +0.000 OA
ATOM     14  H   UNK     1       1.761   4.054  19.965  0.00  0.00    +0.000 HD
ENDBRANCH  11  13
ENDBRANCH   4  11
TORSDOF 4
ENDMDL
MODEL 7
REMARK VINA RESULT:      -5.1      2.687      3.983
REMARK  Name = 
REMARK  4 active torsions:
REMARK  status: ('A' for Active; 'I' for Inactive)
REMARK    1  A    between atoms: C_2  and  O_3
REMARK    2  A    between atoms: C_2  and  C_4
REMARK    3  A    between atoms: C_7  and  C_8
REMARK    4  A    between atoms: C_8  and  O_10
REMARK                            x       y       z     vdW  Elec       q    Type
REMARK                         _______ _______ _______ _____ _____    ______ ____
ROOT
ATOM      1  C   UNK     1       4.674   3.658  17.675  0.00  0.00    +0.000 C 
ATOM      2  C   UNK     1       4.154   5.049  17.344  0.00  0.00    +0.000 C 
ATOM      3  O   UNK     1       5.058   5.977  17.959  0.00  0.00    +0.000 OA
ATOM      4  C   UNK     1       6.199   5.251  18.348  0.00  0.00    +0.000 C 
ATOM      5  N   UNK     1       5.749   3.872  18.710  0.00  0.00    +0.000 NA
ATOM      6  H   UNK     1       5.253   4.038  19.597  0.00  0.00    +0.000 HD
ENDROOT
BRANCH   1   8
ATOM      7  O   UNK     1       2.519   3.145  18.702  0.00  0.00    +0.000 OA
ATOM      8  C   UNK     1       3.569   2.755  18.221  0.00  0.00    +0.000 C 
BRANCH   8   9
ATOM      9  O   UNK     1       3.869   1.437  18.085  0.00  0.00    +0.000 OA
ATOM     10  H   UNK     1       3.235   0.886  18.588  0.00  0.00    +0.000 HD
ENDBRANCH   8   9
ENDBRANCH   1   8
BRANCH   4  11
ATOM     11  C   UNK     1       7.358   5.179  17.303  0.00  0.00    +0.000 C 
ATOM     12  O   UNK     1       8.104   4.231  17.127  0.00  0.00    +0.000 OA
BRANCH  11  13
ATOM     13  O   UNK     1       7.441   6.325  16.571  0.00  0.00    +0.000 OA
ATOM     14  H   UNK     1       7.874   7.011  17.128  0.00  0.00    +0.000 HD
ENDBRANCH  11  13
ENDBRANCH   4  11
TORSDOF 4
ENDMDL
MODEL 8
REMARK VINA RESULT:      -5.1      2.710      3.598
REMARK  Name = 
REMARK  4 active torsions:
REMARK  status: ('A' for Active; 'I' for Inactive)
REMARK    1  A    between atoms: C_2  and  O_3
REMARK    2  A    between atoms: C_2  and  C_4
REMARK    3  A    between atoms: C_7  and  C_8
REMARK    4  A    between atoms: C_8  and  O_10
REMARK                            x       y       z     vdW  Elec       q    Type
REMARK                         _______ _______ _______ _____ _____    ______ ____
ROOT
ATOM      1  C   UNK     1       4.849   3.680  18.382  0.00  0.00    +0.000 C 
ATOM      2  C   UNK     1       4.070   4.969  18.168  0.00  0.00    +0.000 C 
ATOM      3  O   UNK     1       5.021   6.038  18.256  0.00  0.00    +0.000 OA
ATOM      4  C   UNK     1       6.303   5.460  18.200  0.00  0.00    +0.000 C 
ATOM      5  N   UNK     1       6.215   4.116  18.846  0.00  0.00    +0.000 NA
ATOM      6  H   UNK     1       6.105   4.365  19.839  0.00  0.00    +0.000 HD
ENDROOT
BRANCH   1   8
ATOM      7  O   UNK     1       3.000   2.805  19.715  0.00  0.00    +0.000 OA
ATOM      8  C   UNK     1       4.184   2.782  19.423  0.00  0.00    +0.000 C 
BRANCH   8   9
ATOM      9  O   UNK     1       5.061   1.909  19.984  0.00  0.00    +0.000 OA
ATOM     10  H   UNK     1       5.979   2.239  19.896  0.00  0.00    +0.000 HD
ENDBRANCH   8   9
ENDBRANCH   1   8
BRANCH   4  11
ATOM     11  C   UNK     1       6.937   5.331  16.778  0.00  0.00    +0.000 C 
ATOM     12  O   UNK     1       6.611   5.967  15.790  0.00  0.00    +0.000 OA
BRANCH  11  13
ATOM     13  O   UNK     1       7.940   4.410  16.760  0.00  0.00    +0.000 OA
ATOM     14  H   UNK     1       7.683   3.669  17.354  0.00  0.00    +0.000 HD
ENDBRANCH  11  13
ENDBRANCH   4  11
TORSDOF 4
ENDMDL
MODEL 9
REMARK VINA RESULT:      -5.0      2.355      3.934
REMARK  Name = 
REMARK  4 active torsions:
REMARK  status: ('A' for Active; 'I' for Inactive)
REMARK    1  A    between atoms: C_2  and  O_3
REMARK    2  A    between atoms: C_2  and  C_4
REMARK    3  A    between atoms: C_7  and  C_8
REMARK    4  A    between atoms: C_8  and  O_10
REMARK                            x       y       z     vdW  Elec       q    Type
REMARK                         _______ _______ _______ _____ _____    ______ ____
ROOT
ATOM      1  C   UNK     1       4.590   4.171  17.326  0.00  0.00    +0.000 C 
ATOM      2  C   UNK     1       5.064   4.634  18.695  0.00  0.00    +0.000 C 
ATOM      3  O   UNK     1       6.497   4.611  18.658  0.00  0.00    +0.000 OA
ATOM      4  C   UNK     1       6.876   4.469  17.310  0.00  0.00    +0.000 C 
ATOM      5  N   UNK     1       5.824   3.650  16.635  0.00  0.00    +0.000 NA
ATOM      6  H   UNK     1       5.994   2.717  17.034  0.00  0.00    +0.000 HD
ENDROOT
BRANCH   1   8
ATOM      7  O   UNK     1       2.375   3.181  17.050  0.00  0.00    +0.000 OA
ATOM      8  C   UNK     1       3.528   3.078  17.434  0.00  0.00    +0.000 C 
BRANCH   8   9
ATOM      9  O   UNK     1       4.018   1.938  17.986  0.00  0.00    +0.000 OA
ATOM     10  H   UNK     1       4.144   1.249  17.301  0.00  0.00    +0.000 HD
ENDBRANCH   8   9
ENDBRANCH   1   8
BRANCH   4  11
ATOM     11  C   UNK     1       7.113   5.795  16.519  0.00  0.00    +0.000 C 
ATOM     12  O   UNK     1       7.011   6.924  16.969  0.00  0.00    +0.000 OA
BRANCH  11  13
ATOM     13  O   UNK     1       7.475   5.549  15.229  0.00  0.00    +0.000 OA
ATOM     14  H   UNK     1       6.698   5.737  14.655  0.00  0.00    +0.000 HD
ENDBRANCH  11  13
ENDBRANCH   4  11
TORSDOF 4
ENDMDL
