MODEL 1
REMARK VINA RESULT:      -6.3      0.000      0.000
REMARK  Name = 
REMARK  6 active torsions:
REMARK  status: ('A' for Active; 'I' for Inactive)
REMARK    1  A    between atoms: C_1  and  N_2
REMARK    2  A    between atoms: N_2  and  C_3
REMARK    3  A    between atoms: N_2  and  C_4
REMARK    4  A    between atoms: C_7  and  C_8
REMARK    5  A    between atoms: N_9  and  N_10
REMARK    6  A    between atoms: N_13  and  O_14
REMARK                            x       y       z     vdW  Elec       q    Type
REMARK                         _______ _______ _______ _____ _____    ______ ____
ROOT
ATOM      1  C   UNL     1      -3.806  10.835  15.581  0.00  0.00    +0.000 C 
ATOM      2  N   UNL     1      -3.522  10.058  14.584  0.00  0.00    +0.000 NA
ENDROOT
BRANCH   2   3
ATOM      3  N   UNL     1      -4.423  10.044  13.562  0.00  0.00    +0.000 N 
ATOM      4  C   UNL     1      -4.076   9.687  12.288  0.00  0.00    +0.000 C 
ATOM      5  N   UNL     1      -2.844   9.563  11.897  0.00  0.00    +0.000 NA
ATOM      6  N   UNL     1      -5.129   9.443  11.442  0.00  0.00    +0.000 N 
ATOM      7  H   UNL     1      -5.317  10.518  13.655  0.00  0.00    +0.000 HD
ATOM      8  H   UNL     1      -2.307   9.798  12.748  0.00  0.00    +0.000 HD
ATOM      9  H   UNL     1      -5.859   8.877  11.868  0.00  0.00    +0.000 HD
BRANCH   6  10
ATOM     10  O   UNL     1      -4.693   8.876  10.227  0.00  0.00    +0.000 OA
ATOM     11  H   UNL     1      -3.857   9.375  10.051  0.00  0.00    +0.000 HD
ENDBRANCH   6  10
ENDBRANCH   2   3
BRANCH   1  15
ATOM     12  C   UNL     1      -1.382  10.824  19.156  0.00  0.00    +0.000 A 
ATOM     13  C   UNL     1      -1.070  10.014  18.048  0.00  0.00    +0.000 A 
ATOM     14  C   UNL     1      -1.846  10.020  16.882  0.00  0.00    +0.000 A 
ATOM     15  C   UNL     1      -2.954  10.856  16.787  0.00  0.00    +0.000 A 
ATOM     16  C   UNL     1      -3.280  11.691  17.852  0.00  0.00    +0.000 A 
ATOM     17  C   UNL     1      -2.498  11.670  19.015  0.00  0.00    +0.000 A 
BRANCH  12  19
ATOM     18  C   UNL     1      -0.985  11.658  21.453  0.00  0.00    +0.000 C 
ATOM     19  N   UNL     1      -0.611  10.811  20.323  0.00  0.00    +0.000 N 
ATOM     20  C   UNL     1       0.793  10.418  20.239  0.00  0.00    +0.000 C 
ENDBRANCH  12  19
ENDBRANCH   1  15
TORSDOF 4
ENDMDL
MODEL 2
REMARK VINA RESULT:      -6.2      0.364      1.253
REMARK  Name = 
REMARK  6 active torsions:
REMARK  status: ('A' for Active; 'I' for Inactive)
REMARK    1  A    between atoms: C_1  and  N_2
REMARK    2  A    between atoms: N_2  and  C_3
REMARK    3  A    between atoms: N_2  and  C_4
REMARK    4  A    between atoms: C_7  and  C_8
REMARK    5  A    between atoms: N_9  and  N_10
REMARK    6  A    between atoms: N_13  and  O_14
REMARK                            x       y       z     vdW  Elec       q    Type
REMARK                         _______ _______ _______ _____ _____    ______ ____
ROOT
ATOM      1  C   UNL     1      -4.063  10.593  15.554  0.00  0.00    +0.000 C 
ATOM      2  N   UNL     1      -3.612  10.247  14.390  0.00  0.00    +0.000 NA
ENDROOT
BRANCH   2   3
ATOM      3  N   UNL     1      -4.542  10.113  13.404  0.00  0.00    +0.000 N 
ATOM      4  C   UNL     1      -4.214   9.704  12.142  0.00  0.00    +0.000 C 
ATOM      5  N   UNL     1      -2.990   9.636  11.714  0.00  0.00    +0.000 NA
ATOM      6  N   UNL     1      -5.275   9.342  11.350  0.00  0.00    +0.000 N 
ATOM      7  H   UNL     1      -5.462  10.534  13.502  0.00  0.00    +0.000 HD
ATOM      8  H   UNL     1      -2.442   9.956  12.530  0.00  0.00    +0.000 HD
ATOM      9  H   UNL     1      -5.952   8.757  11.834  0.00  0.00    +0.000 HD
BRANCH   6  10
ATOM     10  O   UNL     1      -4.842   8.732  10.154  0.00  0.00    +0.000 OA
ATOM     11  H   UNL     1      -5.239   7.829  10.224  0.00  0.00    +0.000 HD
ENDBRANCH   6  10
ENDBRANCH   2   3
BRANCH   1  15
ATOM     12  C   UNL     1      -1.359  10.893  18.910  0.00  0.00    +0.000 A 
ATOM     13  C   UNL     1      -2.529  11.672  18.830  0.00  0.00    +0.000 A 
ATOM     14  C   UNL     1      -3.415  11.572  17.750  0.00  0.00    +0.000 A 
ATOM     15  C   UNL     1      -3.160  10.671  16.720  0.00  0.00    +0.000 A 
ATOM     16  C   UNL     1      -2.026   9.866  16.776  0.00  0.00    +0.000 A 
ATOM     17  C   UNL     1      -1.145   9.981  17.859  0.00  0.00    +0.000 A 
BRANCH  12  19
ATOM     18  C   UNL     1      -0.971  11.358  21.309  0.00  0.00    +0.000 C 
ATOM     19  N   UNL     1      -0.472  11.000  19.984  0.00  0.00    +0.000 N 
ATOM     20  C   UNL     1       0.933  11.294  19.715  0.00  0.00    +0.000 C 
ENDBRANCH  12  19
ENDBRANCH   1  15
TORSDOF 4
ENDMDL
MODEL 3
REMARK VINA RESULT:      -6.2     11.586     12.416
REMARK  Name = 
REMARK  6 active torsions:
REMARK  status: ('A' for Active; 'I' for Inactive)
REMARK    1  A    between atoms: C_1  and  N_2
REMARK    2  A    between atoms: N_2  and  C_3
REMARK    3  A    between atoms: N_2  and  C_4
REMARK    4  A    between atoms: C_7  and  C_8
REMARK    5  A    between atoms: N_9  and  N_10
REMARK    6  A    between atoms: N_13  and  O_14
REMARK                            x       y       z     vdW  Elec       q    Type
REMARK                         _______ _______ _______ _____ _____    ______ ____
ROOT
ATOM      1  C   UNL     1       8.098   8.648  17.816  0.00  0.00    +0.000 C 
ATOM      2  N   UNL     1       8.341   7.567  18.486  0.00  0.00    +0.000 NA
ENDROOT
BRANCH   2   3
ATOM      3  N   UNL     1       7.776   6.425  18.004  0.00  0.00    +0.000 N 
ATOM      4  C   UNL     1       7.276   5.454  18.826  0.00  0.00    +0.000 C 
ATOM      5  N   UNL     1       7.503   5.423  20.105  0.00  0.00    +0.000 NA
ATOM      6  N   UNL     1       6.490   4.513  18.210  0.00  0.00    +0.000 N 
ATOM      7  H   UNL     1       7.916   6.149  17.036  0.00  0.00    +0.000 HD
ATOM      8  H   UNL     1       8.102   6.252  20.254  0.00  0.00    +0.000 HD
ATOM      9  H   UNL     1       5.821   4.917  17.560  0.00  0.00    +0.000 HD
BRANCH   6  10
ATOM     10  O   UNL     1       5.844   3.685  19.151  0.00  0.00    +0.000 OA
ATOM     11  H   UNL     1       6.510   3.639  19.881  0.00  0.00    +0.000 HD
ENDBRANCH   6  10
ENDBRANCH   2   3
BRANCH   1  15
ATOM     12  C   UNL     1       9.594  12.464  19.182  0.00  0.00    +0.000 A 
ATOM     13  C   UNL     1       8.834  12.346  18.003  0.00  0.00    +0.000 A 
ATOM     14  C   UNL     1       8.337  11.114  17.560  0.00  0.00    +0.000 A 
ATOM     15  C   UNL     1       8.576   9.960  18.300  0.00  0.00    +0.000 A 
ATOM     16  C   UNL     1       9.303  10.039  19.484  0.00  0.00    +0.000 A 
ATOM     17  C   UNL     1       9.799  11.278  19.912  0.00  0.00    +0.000 A 
BRANCH  12  19
ATOM     18  C   UNL     1      10.815  14.559  18.688  0.00  0.00    +0.000 C 
ATOM     19  N   UNL     1      10.096  13.693  19.619  0.00  0.00    +0.000 N 
ATOM     20  C   UNL     1      10.393  13.872  21.038  0.00  0.00    +0.000 C 
ENDBRANCH  12  19
ENDBRANCH   1  15
TORSDOF 4
ENDMDL
MODEL 4
REMARK VINA RESULT:      -6.2     11.598     12.517
REMARK  Name = 
REMARK  6 active torsions:
REMARK  status: ('A' for Active; 'I' for Inactive)
REMARK    1  A    between atoms: C_1  and  N_2
REMARK    2  A    between atoms: N_2  and  C_3
REMARK    3  A    between atoms: N_2  and  C_4
REMARK    4  A    between atoms: C_7  and  C_8
REMARK    5  A    between atoms: N_9  and  N_10
REMARK    6  A    between atoms: N_13  and  O_14
REMARK                            x       y       z     vdW  Elec       q    Type
REMARK                         _______ _______ _______ _____ _____    ______ ____
ROOT
ATOM      1  C   UNL     1       8.164   8.826  17.920  0.00  0.00    +0.000 C 
ATOM      2  N   UNL     1       8.412   7.711  18.530  0.00  0.00    +0.000 NA
ENDROOT
BRANCH   2   3
ATOM      3  N   UNL     1       7.749   6.615  18.065  0.00  0.00    +0.000 N 
ATOM      4  C   UNL     1       7.320   5.615  18.893  0.00  0.00    +0.000 C 
ATOM      5  N   UNL     1       7.704   5.505  20.129  0.00  0.00    +0.000 NA
ATOM      6  N   UNL     1       6.429   4.734  18.334  0.00  0.00    +0.000 N 
ATOM      7  H   UNL     1       7.756   6.389  17.074  0.00  0.00    +0.000 HD
ATOM      8  H   UNL     1       8.346   6.306  20.244  0.00  0.00    +0.000 HD
ATOM      9  H   UNL     1       5.699   5.194  17.795  0.00  0.00    +0.000 HD
BRANCH   6  10
ATOM     10  O   UNL     1       5.876   3.874  19.305  0.00  0.00    +0.000 OA
ATOM     11  H   UNL     1       5.254   4.474  19.787  0.00  0.00    +0.000 HD
ENDBRANCH   6  10
ENDBRANCH   2   3
BRANCH   1  15
ATOM     12  C   UNL     1       9.776  12.565  19.366  0.00  0.00    +0.000 A 
ATOM     13  C   UNL     1       9.889  11.374  20.107  0.00  0.00    +0.000 A 
ATOM     14  C   UNL     1       9.378  10.156  19.640  0.00  0.00    +0.000 A 
ATOM     15  C   UNL     1       8.749  10.095  18.401  0.00  0.00    +0.000 A 
ATOM     16  C   UNL     1       8.639  11.246  17.626  0.00  0.00    +0.000 A 
ATOM     17  C   UNL     1       9.150  12.459  18.109  0.00  0.00    +0.000 A 
BRANCH  12  19
ATOM     18  C   UNL     1      11.282  14.504  19.060  0.00  0.00    +0.000 C 
ATOM     19  N   UNL     1      10.279  13.780  19.837  0.00  0.00    +0.000 N 
ATOM     20  C   UNL     1      10.244  14.053  21.271  0.00  0.00    +0.000 C 
ENDBRANCH  12  19
ENDBRANCH   1  15
TORSDOF 4
ENDMDL
MODEL 5
REMARK VINA RESULT:      -6.1      0.693      1.607
REMARK  Name = 
REMARK  6 active torsions:
REMARK  status: ('A' for Active; 'I' for Inactive)
REMARK    1  A    between atoms: C_1  and  N_2
REMARK    2  A    between atoms: N_2  and  C_3
REMARK    3  A    between atoms: N_2  and  C_4
REMARK    4  A    between atoms: C_7  and  C_8
REMARK    5  A    between atoms: N_9  and  N_10
REMARK    6  A    between atoms: N_13  and  O_14
REMARK                            x       y       z     vdW  Elec       q    Type
REMARK                         _______ _______ _______ _____ _____    ______ ____
ROOT
ATOM      1  C   UNL     1      -3.263  10.940  15.962  0.00  0.00    +0.000 C 
ATOM      2  N   UNL     1      -3.293   9.943  15.137  0.00  0.00    +0.000 NA
ENDROOT
BRANCH   2   3
ATOM      3  N   UNL     1      -4.139  10.070  14.076  0.00  0.00    +0.000 N 
ATOM      4  C   UNL     1      -3.756   9.774  12.798  0.00  0.00    +0.000 C 
ATOM      5  N   UNL     1      -2.518   9.578  12.456  0.00  0.00    +0.000 NA
ATOM      6  N   UNL     1      -4.779   9.672  11.889  0.00  0.00    +0.000 N 
ATOM      7  H   UNL     1      -4.997  10.608  14.162  0.00  0.00    +0.000 HD
ATOM      8  H   UNL     1      -2.009   9.711  13.345  0.00  0.00    +0.000 HD
ATOM      9  H   UNL     1      -5.572   9.140  12.239  0.00  0.00    +0.000 HD
BRANCH   6  10
ATOM     10  O   UNL     1      -4.327   9.156  10.658  0.00  0.00    +0.000 OA
ATOM     11  H   UNL     1      -4.007   8.255  10.913  0.00  0.00    +0.000 HD
ENDBRANCH   6  10
ENDBRANCH   2   3
BRANCH   1  15
ATOM     12  C   UNL     1      -0.839  10.811  19.536  0.00  0.00    +0.000 A 
ATOM     13  C   UNL     1      -1.955  11.663  19.428  0.00  0.00    +0.000 A 
ATOM     14  C   UNL     1      -2.751  11.702  18.277  0.00  0.00    +0.000 A 
ATOM     15  C   UNL     1      -2.459  10.872  17.199  0.00  0.00    +0.000 A 
ATOM     16  C   UNL     1      -1.378   9.998  17.277  0.00  0.00    +0.000 A 
ATOM     17  C   UNL     1      -0.587   9.973  18.434  0.00  0.00    +0.000 A 
BRANCH  12  19
ATOM     18  C   UNL     1       0.662   9.551  21.047  0.00  0.00    +0.000 C 
ATOM     19  N   UNL     1      -0.041  10.779  20.683  0.00  0.00    +0.000 N 
ATOM     20  C   UNL     1      -0.322  11.716  21.767  0.00  0.00    +0.000 C 
ENDBRANCH  12  19
ENDBRANCH   1  15
TORSDOF 4
ENDMDL
MODEL 6
REMARK VINA RESULT:      -6.0      9.624     10.353
REMARK  Name = 
REMARK  6 active torsions:
REMARK  status: ('A' for Active; 'I' for Inactive)
REMARK    1  A    between atoms: C_1  and  N_2
REMARK    2  A    between atoms: N_2  and  C_3
REMARK    3  A    between atoms: N_2  and  C_4
REMARK    4  A    between atoms: C_7  and  C_8
REMARK    5  A    between atoms: N_9  and  N_10
REMARK    6  A    between atoms: N_13  and  O_14
REMARK                            x       y       z     vdW  Elec       q    Type
REMARK                         _______ _______ _______ _____ _____    ______ ____
ROOT
ATOM      1  C   UNL     1       5.479   5.443  16.354  0.00  0.00    +0.000 C 
ATOM      2  N   UNL     1       6.650   4.901  16.251  0.00  0.00    +0.000 NA
ENDROOT
BRANCH   2   3
ATOM      3  N   UNL     1       7.409   5.312  15.198  0.00  0.00    +0.000 N 
ATOM      4  C   UNL     1       7.265   4.786  13.944  0.00  0.00    +0.000 C 
ATOM      5  N   UNL     1       6.578   3.711  13.701  0.00  0.00    +0.000 NA
ATOM      6  N   UNL     1       7.883   5.489  12.940  0.00  0.00    +0.000 N 
ATOM      7  H   UNL     1       8.259   5.847  15.352  0.00  0.00    +0.000 HD
ATOM      8  H   UNL     1       6.240   3.436  14.638  0.00  0.00    +0.000 HD
ATOM      9  H   UNL     1       7.737   6.493  13.009  0.00  0.00    +0.000 HD
BRANCH   6  10
ATOM     10  O   UNL     1       7.508   5.008  11.669  0.00  0.00    +0.000 OA
ATOM     11  H   UNL     1       6.556   5.271  11.617  0.00  0.00    +0.000 HD
ENDBRANCH   6  10
ENDBRANCH   2   3
BRANCH   1  15
ATOM     12  C   UNL     1       2.784   4.078  19.442  0.00  0.00    +0.000 A 
ATOM     13  C   UNL     1       3.616   5.198  19.628  0.00  0.00    +0.000 A 
ATOM     14  C   UNL     1       4.485   5.652  18.627  0.00  0.00    +0.000 A 
ATOM     15  C   UNL     1       4.532   5.002  17.398  0.00  0.00    +0.000 A 
ATOM     16  C   UNL     1       3.705   3.906  17.167  0.00  0.00    +0.000 A 
ATOM     17  C   UNL     1       2.846   3.459  18.180  0.00  0.00    +0.000 A 
BRANCH  12  19
ATOM     18  C   UNL     1       2.471   2.998  21.647  0.00  0.00    +0.000 C 
ATOM     19  N   UNL     1       1.923   3.622  20.445  0.00  0.00    +0.000 N 
ATOM     20  C   UNL     1       0.552   3.265  20.092  0.00  0.00    +0.000 C 
ENDBRANCH  12  19
ENDBRANCH   1  15
TORSDOF 4
ENDMDL
MODEL 7
REMARK VINA RESULT:      -6.0      6.728      8.715
REMARK  Name = 
REMARK  6 active torsions:
REMARK  status: ('A' for Active; 'I' for Inactive)
REMARK    1  A    between atoms: C_1  and  N_2
REMARK    2  A    between atoms: N_2  and  C_3
REMARK    3  A    between atoms: N_2  and  C_4
REMARK    4  A    between atoms: C_7  and  C_8
REMARK    5  A    between atoms: N_9  and  N_10
REMARK    6  A    between atoms: N_13  and  O_14
REMARK                            x       y       z     vdW  Elec       q    Type
REMARK                         _______ _______ _______ _____ _____    ______ ____
ROOT
ATOM      1  C   UNL     1       3.521   6.441  17.904  0.00  0.00    +0.000 C 
ATOM      2  N   UNL     1       4.558   6.753  17.194  0.00  0.00    +0.000 NA
ENDROOT
BRANCH   2   3
ATOM      3  N   UNL     1       5.336   5.713  16.782  0.00  0.00    +0.000 N 
ATOM      4  C   UNL     1       6.588   5.495  17.283  0.00  0.00    +0.000 C 
ATOM      5  N   UNL     1       7.227   6.369  18.001  0.00  0.00    +0.000 NA
ATOM      6  N   UNL     1       7.128   4.267  16.995  0.00  0.00    +0.000 N 
ATOM      7  H   UNL     1       5.112   5.208  15.929  0.00  0.00    +0.000 HD
ATOM      8  H   UNL     1       6.564   7.160  18.046  0.00  0.00    +0.000 HD
ATOM      9  H   UNL     1       6.470   3.502  17.123  0.00  0.00    +0.000 HD
BRANCH   6  10
ATOM     10  O   UNL     1       8.315   4.041  17.722  0.00  0.00    +0.000 OA
ATOM     11  H   UNL     1       8.019   4.181  18.655  0.00  0.00    +0.000 HD
ENDBRANCH   6  10
ENDBRANCH   2   3
BRANCH   1  15
ATOM     12  C   UNL     1       0.920   9.462  19.569  0.00  0.00    +0.000 A 
ATOM     13  C   UNL     1       1.359   8.362  20.330  0.00  0.00    +0.000 A 
ATOM     14  C   UNL     1       2.211   7.385  19.799  0.00  0.00    +0.000 A 
ATOM     15  C   UNL     1       2.662   7.492  18.487  0.00  0.00    +0.000 A 
ATOM     16  C   UNL     1       2.270   8.578  17.711  0.00  0.00    +0.000 A 
ATOM     17  C   UNL     1       1.413   9.546  18.253  0.00  0.00    +0.000 A 
BRANCH  12  19
ATOM     18  C   UNL     1      -0.671  11.321  19.201  0.00  0.00    +0.000 C 
ATOM     19  N   UNL     1       0.064  10.433  20.097  0.00  0.00    +0.000 N 
ATOM     20  C   UNL     1       0.301  10.924  21.452  0.00  0.00    +0.000 C 
ENDBRANCH  12  19
ENDBRANCH   1  15
TORSDOF 4
ENDMDL
MODEL 8
REMARK VINA RESULT:      -6.0      6.498      8.406
REMARK  Name = 
REMARK  6 active torsions:
REMARK  status: ('A' for Active; 'I' for Inactive)
REMARK    1  A    between atoms: C_1  and  N_2
REMARK    2  A    between atoms: N_2  and  C_3
REMARK    3  A    between atoms: N_2  and  C_4
REMARK    4  A    between atoms: C_7  and  C_8
REMARK    5  A    between atoms: N_9  and  N_10
REMARK    6  A    between atoms: N_13  and  O_14
REMARK                            x       y       z     vdW  Elec       q    Type
REMARK                         _______ _______ _______ _____ _____    ______ ____
ROOT
ATOM      1  C   UNL     1       3.074   6.426  18.327  0.00  0.00    +0.000 C 
ATOM      2  N   UNL     1       4.082   6.510  17.518  0.00  0.00    +0.000 NA
ENDROOT
BRANCH   2   3
ATOM      3  N   UNL     1       4.756   5.350  17.281  0.00  0.00    +0.000 N 
ATOM      4  C   UNL     1       6.099   5.325  17.027  0.00  0.00    +0.000 C 
ATOM      5  N   UNL     1       6.791   6.392  16.762  0.00  0.00    +0.000 NA
ATOM      6  N   UNL     1       6.685   4.086  17.095  0.00  0.00    +0.000 N 
ATOM      7  H   UNL     1       4.252   4.498  17.052  0.00  0.00    +0.000 HD
ATOM      8  H   UNL     1       6.081   7.142  16.798  0.00  0.00    +0.000 HD
ATOM      9  H   UNL     1       6.385   3.547  17.904  0.00  0.00    +0.000 HD
BRANCH   6  10
ATOM     10  O   UNL     1       8.090   4.175  17.038  0.00  0.00    +0.000 OA
ATOM     11  H   UNL     1       8.303   4.666  17.869  0.00  0.00    +0.000 HD
ENDBRANCH   6  10
ENDBRANCH   2   3
BRANCH   1  15
ATOM     12  C   UNL     1       0.806   9.915  19.485  0.00  0.00    +0.000 A 
ATOM     13  C   UNL     1       1.135   8.906  20.409  0.00  0.00    +0.000 A 
ATOM     14  C   UNL     1       1.879   7.777  20.043  0.00  0.00    +0.000 A 
ATOM     15  C   UNL     1       2.330   7.635  18.735  0.00  0.00    +0.000 A 
ATOM     16  C   UNL     1       2.046   8.624  17.797  0.00  0.00    +0.000 A 
ATOM     17  C   UNL     1       1.296   9.745  18.177  0.00  0.00    +0.000 A 
BRANCH  12  19
ATOM     18  C   UNL     1       0.339  11.724  21.108  0.00  0.00    +0.000 C 
ATOM     19  N   UNL     1       0.057  11.038  19.850  0.00  0.00    +0.000 N 
ATOM     20  C   UNL     1      -1.290  11.196  19.308  0.00  0.00    +0.000 C 
ENDBRANCH  12  19
ENDBRANCH   1  15
TORSDOF 4
ENDMDL
MODEL 9
REMARK VINA RESULT:      -6.0      9.850     10.730
REMARK  Name = 
REMARK  6 active torsions:
REMARK  status: ('A' for Active; 'I' for Inactive)
REMARK    1  A    between atoms: C_1  and  N_2
REMARK    2  A    between atoms: N_2  and  C_3
REMARK    3  A    between atoms: N_2  and  C_4
REMARK    4  A    between atoms: C_7  and  C_8
REMARK    5  A    between atoms: N_9  and  N_10
REMARK    6  A    between atoms: N_13  and  O_14
REMARK                            x       y       z     vdW  Elec       q    Type
REMARK                         _______ _______ _______ _____ _____    ______ ____
ROOT
ATOM      1  C   UNL     1       6.175   4.778  17.222  0.00  0.00    +0.000 C 
ATOM      2  N   UNL     1       6.462   4.222  16.089  0.00  0.00    +0.000 NA
ENDROOT
BRANCH   2   3
ATOM      3  N   UNL     1       7.500   4.772  15.398  0.00  0.00    +0.000 N 
ATOM      4  C   UNL     1       7.474   4.926  14.040  0.00  0.00    +0.000 C 
ATOM      5  N   UNL     1       6.585   4.362  13.280  0.00  0.00    +0.000 NA
ATOM      6  N   UNL     1       8.447   5.745  13.525  0.00  0.00    +0.000 N 
ATOM      7  H   UNL     1       8.414   4.869  15.832  0.00  0.00    +0.000 HD
ATOM      8  H   UNL     1       6.004   3.836  13.954  0.00  0.00    +0.000 HD
ATOM      9  H   UNL     1       8.567   6.604  14.057  0.00  0.00    +0.000 HD
BRANCH   6  10
ATOM     10  O   UNL     1       8.219   6.022  12.162  0.00  0.00    +0.000 OA
ATOM     11  H   UNL     1       8.526   6.959  12.084  0.00  0.00    +0.000 HD
ENDBRANCH   6  10
ENDBRANCH   2   3
BRANCH   1  15
ATOM     12  C   UNL     1       2.700   3.540  19.470  0.00  0.00    +0.000 A 
ATOM     13  C   UNL     1       3.111   2.859  18.308  0.00  0.00    +0.000 A 
ATOM     14  C   UNL     1       4.243   3.249  17.581  0.00  0.00    +0.000 A 
ATOM     15  C   UNL     1       5.008   4.329  18.009  0.00  0.00    +0.000 A 
ATOM     16  C   UNL     1       4.647   5.013  19.167  0.00  0.00    +0.000 A 
ATOM     17  C   UNL     1       3.509   4.615  19.881  0.00  0.00    +0.000 A 
BRANCH  12  19
ATOM     18  C   UNL     1       1.668   2.889  21.623  0.00  0.00    +0.000 C 
ATOM     19  N   UNL     1       1.566   3.155  20.190  0.00  0.00    +0.000 N 
ATOM     20  C   UNL     1       0.465   2.505  19.484  0.00  0.00    +0.000 C 
ENDBRANCH  12  19
ENDBRANCH   1  15
TORSDOF 4
ENDMDL
