MODEL 1
REMARK VINA RESULT:      -7.4      0.000      0.000
REMARK  Name = 
REMARK  9 active torsions:
REMARK  status: ('A' for Active; 'I' for Inactive)
REMARK    1  A    between atoms: N_6  and  C_7
REMARK    2  A    between atoms: C_7  and  O_8
REMARK    3  A    between atoms: O_8  and  C_9
REMARK    4  A    between atoms: C_9  and  C_10
REMARK    5  A    between atoms: C_10  and  O_11
REMARK    6  A    between atoms: O_11  and  C_12
REMARK    7  A    between atoms: C_12  and  C_13
REMARK    8  A    between atoms: C_20  and  N_21
REMARK    9  A    between atoms: N_21  and  C_22
REMARK                            x       y       z     vdW  Elec       q    Type
REMARK                         _______ _______ _______ _____ _____    ______ ____
ROOT
ATOM      1  O   UNL     1       7.893   7.758  16.737  0.00  0.00    +0.000 OA
ATOM      2  C   UNL     1       7.373   6.812  17.330  0.00  0.00    +0.000 A 
ATOM      3  N   UNL     1       7.706   6.491  18.615  0.00  0.00    +0.000 N 
ATOM      4  C   UNL     1       7.124   5.514  19.388  0.00  0.00    +0.000 A 
ATOM      5  O   UNL     1       7.484   5.334  20.544  0.00  0.00    +0.000 OA
ATOM      6  N   UNL     1       6.129   4.782  18.762  0.00  0.00    +0.000 N 
ATOM      7  C   UNL     1       5.789   4.998  17.444  0.00  0.00    +0.000 A 
ATOM      8  C   UNL     1       6.351   5.936  16.670  0.00  0.00    +0.000 A 
ATOM      9  H   UNL     1       8.419   7.040  19.069  0.00  0.00    +0.000 HD
ENDROOT
BRANCH   8  10
ATOM     10  N   UNL     1       6.015   6.147  15.343  0.00  0.00    +0.000 N 
ATOM     11  H   UNL     1       5.980   7.121  15.053  0.00  0.00    +0.000 HD
BRANCH  10  12
ATOM     12  C   UNL     1       6.270   5.217  14.309  0.00  0.00    +0.000 A 
ATOM     13  C   UNL     1       7.464   5.313  13.580  0.00  0.00    +0.000 A 
ATOM     14  C   UNL     1       7.671   4.521  12.446  0.00  0.00    +0.000 A 
ATOM     15  C   UNL     1       6.706   3.599  12.043  0.00  0.00    +0.000 A 
ATOM     16  C   UNL     1       5.542   3.449  12.789  0.00  0.00    +0.000 A 
ATOM     17  C   UNL     1       5.329   4.255  13.914  0.00  0.00    +0.000 A 
ENDBRANCH  10  12
ENDBRANCH   8  10
BRANCH   6  18
ATOM     18  C   UNL     1       5.514   3.730  19.552  0.00  0.00    +0.000 C 
BRANCH  18  19
ATOM     19  O   UNL     1       4.657   2.921  18.755  0.00  0.00    +0.000 OA
BRANCH  19  20
ATOM     20  C   UNL     1       3.832   2.095  19.568  0.00  0.00    +0.000 C 
BRANCH  20  21
ATOM     21  C   UNL     1       2.879   1.316  18.672  0.00  0.00    +0.000 C 
BRANCH  21  22
ATOM     22  O   UNL     1       1.989   2.234  18.051  0.00  0.00    +0.000 OA
BRANCH  22  23
ATOM     23  C   UNL     1       1.145   2.875  19.005  0.00  0.00    +0.000 C 
BRANCH  23  24
ATOM     24  C   UNL     1       1.564   4.313  19.182  0.00  0.00    +0.000 A 
ATOM     25  C   UNL     1       2.085   5.064  18.119  0.00  0.00    +0.000 A 
ATOM     26  C   UNL     1       2.483   6.389  18.311  0.00  0.00    +0.000 A 
ATOM     27  C   UNL     1       2.347   6.981  19.566  0.00  0.00    +0.000 A 
ATOM     28  C   UNL     1       1.797   6.257  20.621  0.00  0.00    +0.000 A 
ATOM     29  C   UNL     1       1.401   4.933  20.430  0.00  0.00    +0.000 A 
ENDBRANCH  23  24
ENDBRANCH  22  23
ENDBRANCH  21  22
ENDBRANCH  20  21
ENDBRANCH  19  20
ENDBRANCH  18  19
ENDBRANCH   6  18
TORSDOF 9
ENDMDL
MODEL 2
REMARK VINA RESULT:      -7.3      1.806      2.808
REMARK  Name = 
REMARK  9 active torsions:
REMARK  status: ('A' for Active; 'I' for Inactive)
REMARK    1  A    between atoms: N_6  and  C_7
REMARK    2  A    between atoms: C_7  and  O_8
REMARK    3  A    between atoms: O_8  and  C_9
REMARK    4  A    between atoms: C_9  and  C_10
REMARK    5  A    between atoms: C_10  and  O_11
REMARK    6  A    between atoms: O_11  and  C_12
REMARK    7  A    between atoms: C_12  and  C_13
REMARK    8  A    between atoms: C_20  and  N_21
REMARK    9  A    between atoms: N_21  and  C_22
REMARK                            x       y       z     vdW  Elec       q    Type
REMARK                         _______ _______ _______ _____ _____    ______ ____
ROOT
ATOM      1  O   UNL     1       6.838   5.444  17.812  0.00  0.00    +0.000 OA
ATOM      2  C   UNL     1       5.957   4.586  17.885  0.00  0.00    +0.000 A 
ATOM      3  N   UNL     1       5.822   3.777  18.977  0.00  0.00    +0.000 N 
ATOM      4  C   UNL     1       4.825   2.854  19.190  0.00  0.00    +0.000 A 
ATOM      5  O   UNL     1       4.786   2.203  20.225  0.00  0.00    +0.000 OA
ATOM      6  N   UNL     1       3.903   2.736  18.163  0.00  0.00    +0.000 N 
ATOM      7  C   UNL     1       4.015   3.465  17.000  0.00  0.00    +0.000 A 
ATOM      8  C   UNL     1       4.984   4.360  16.767  0.00  0.00    +0.000 A 
ATOM      9  H   UNL     1       6.487   3.881  19.727  0.00  0.00    +0.000 HD
ENDROOT
BRANCH   8  10
ATOM     10  N   UNL     1       5.100   5.086  15.594  0.00  0.00    +0.000 N 
ATOM     11  H   UNL     1       5.032   6.096  15.698  0.00  0.00    +0.000 HD
BRANCH  10  12
ATOM     12  C   UNL     1       5.825   4.645  14.463  0.00  0.00    +0.000 A 
ATOM     13  C   UNL     1       7.084   5.201  14.195  0.00  0.00    +0.000 A 
ATOM     14  C   UNL     1       7.750   4.911  12.999  0.00  0.00    +0.000 A 
ATOM     15  C   UNL     1       7.185   4.039  12.070  0.00  0.00    +0.000 A 
ATOM     16  C   UNL     1       5.965   3.431  12.347  0.00  0.00    +0.000 A 
ATOM     17  C   UNL     1       5.292   3.736  13.537  0.00  0.00    +0.000 A 
ENDBRANCH  10  12
ENDBRANCH   8  10
BRANCH   6  18
ATOM     18  C   UNL     1       2.852   1.753  18.356  0.00  0.00    +0.000 C 
BRANCH  18  19
ATOM     19  O   UNL     1       1.973   2.135  19.407  0.00  0.00    +0.000 OA
BRANCH  19  20
ATOM     20  C   UNL     1       1.681   3.527  19.348  0.00  0.00    +0.000 C 
BRANCH  20  21
ATOM     21  C   UNL     1       1.491   4.051  20.764  0.00  0.00    +0.000 C 
BRANCH  21  22
ATOM     22  O   UNL     1       1.240   5.449  20.700  0.00  0.00    +0.000 OA
BRANCH  22  23
ATOM     23  C   UNL     1       2.424   6.180  20.385  0.00  0.00    +0.000 C 
BRANCH  23  24
ATOM     24  C   UNL     1       2.068   7.444  19.644  0.00  0.00    +0.000 A 
ATOM     25  C   UNL     1       2.367   7.608  18.283  0.00  0.00    +0.000 A 
ATOM     26  C   UNL     1       2.043   8.795  17.622  0.00  0.00    +0.000 A 
ATOM     27  C   UNL     1       1.402   9.823  18.311  0.00  0.00    +0.000 A 
ATOM     28  C   UNL     1       1.067   9.658  19.653  0.00  0.00    +0.000 A 
ATOM     29  C   UNL     1       1.391   8.473  20.314  0.00  0.00    +0.000 A 
ENDBRANCH  23  24
ENDBRANCH  22  23
ENDBRANCH  21  22
ENDBRANCH  20  21
ENDBRANCH  19  20
ENDBRANCH  18  19
ENDBRANCH   6  18
TORSDOF 9
ENDMDL
MODEL 3
REMARK VINA RESULT:      -7.2      3.734      5.973
REMARK  Name = 
REMARK  9 active torsions:
REMARK  status: ('A' for Active; 'I' for Inactive)
REMARK    1  A    between atoms: N_6  and  C_7
REMARK    2  A    between atoms: C_7  and  O_8
REMARK    3  A    between atoms: O_8  and  C_9
REMARK    4  A    between atoms: C_9  and  C_10
REMARK    5  A    between atoms: C_10  and  O_11
REMARK    6  A    between atoms: O_11  and  C_12
REMARK    7  A    between atoms: C_12  and  C_13
REMARK    8  A    between atoms: C_20  and  N_21
REMARK    9  A    between atoms: N_21  and  C_22
REMARK                            x       y       z     vdW  Elec       q    Type
REMARK                         _______ _______ _______ _____ _____    ______ ____
ROOT
ATOM      1  O   UNL     1       5.197   1.430  20.462  0.00  0.00    +0.000 OA
ATOM      2  C   UNL     1       4.395   2.365  20.416  0.00  0.00    +0.000 A 
ATOM      3  N   UNL     1       3.183   2.312  21.043  0.00  0.00    +0.000 N 
ATOM      4  C   UNL     1       2.261   3.329  21.121  0.00  0.00    +0.000 A 
ATOM      5  O   UNL     1       1.215   3.178  21.739  0.00  0.00    +0.000 OA
ATOM      6  N   UNL     1       2.613   4.495  20.463  0.00  0.00    +0.000 N 
ATOM      7  C   UNL     1       3.785   4.599  19.747  0.00  0.00    +0.000 A 
ATOM      8  C   UNL     1       4.691   3.618  19.647  0.00  0.00    +0.000 A 
ATOM      9  H   UNL     1       2.942   1.465  21.534  0.00  0.00    +0.000 HD
ENDROOT
BRANCH   8  10
ATOM     10  N   UNL     1       5.865   3.720  18.921  0.00  0.00    +0.000 N 
ATOM     11  H   UNL     1       6.098   2.909  18.353  0.00  0.00    +0.000 HD
BRANCH  10  12
ATOM     12  C   UNL     1       6.410   4.946  18.473  0.00  0.00    +0.000 A 
ATOM     13  C   UNL     1       6.027   5.450  17.222  0.00  0.00    +0.000 A 
ATOM     14  C   UNL     1       6.671   6.567  16.678  0.00  0.00    +0.000 A 
ATOM     15  C   UNL     1       7.682   7.214  17.387  0.00  0.00    +0.000 A 
ATOM     16  C   UNL     1       8.032   6.764  18.655  0.00  0.00    +0.000 A 
ATOM     17  C   UNL     1       7.399   5.635  19.191  0.00  0.00    +0.000 A 
ENDBRANCH  10  12
ENDBRANCH   8  10
BRANCH   6  18
ATOM     18  C   UNL     1       1.645   5.577  20.514  0.00  0.00    +0.000 C 
BRANCH  18  19
ATOM     19  O   UNL     1       1.644   6.325  19.305  0.00  0.00    +0.000 OA
BRANCH  19  20
ATOM     20  C   UNL     1       2.063   7.666  19.532  0.00  0.00    +0.000 C 
BRANCH  20  21
ATOM     21  C   UNL     1       2.364   8.323  18.192  0.00  0.00    +0.000 C 
BRANCH  21  22
ATOM     22  O   UNL     1       1.231   9.085  17.797  0.00  0.00    +0.000 OA
BRANCH  22  23
ATOM     23  C   UNL     1       0.774   9.931  18.850  0.00  0.00    +0.000 C 
BRANCH  23  24
ATOM     24  C   UNL     1      -0.617  10.428  18.548  0.00  0.00    +0.000 A 
ATOM     25  C   UNL     1      -1.385   9.879  17.511  0.00  0.00    +0.000 A 
ATOM     26  C   UNL     1      -2.665  10.368  17.238  0.00  0.00    +0.000 A 
ATOM     27  C   UNL     1      -3.195  11.399  18.012  0.00  0.00    +0.000 A 
ATOM     28  C   UNL     1      -2.457  11.927  19.068  0.00  0.00    +0.000 A 
ATOM     29  C   UNL     1      -1.178  11.440  19.340  0.00  0.00    +0.000 A 
ENDBRANCH  23  24
ENDBRANCH  22  23
ENDBRANCH  21  22
ENDBRANCH  20  21
ENDBRANCH  19  20
ENDBRANCH  18  19
ENDBRANCH   6  18
TORSDOF 9
ENDMDL
MODEL 4
REMARK VINA RESULT:      -7.2      3.721      8.063
REMARK  Name = 
REMARK  9 active torsions:
REMARK  status: ('A' for Active; 'I' for Inactive)
REMARK    1  A    between atoms: N_6  and  C_7
REMARK    2  A    between atoms: C_7  and  O_8
REMARK    3  A    between atoms: O_8  and  C_9
REMARK    4  A    between atoms: C_9  and  C_10
REMARK    5  A    between atoms: C_10  and  O_11
REMARK    6  A    between atoms: O_11  and  C_12
REMARK    7  A    between atoms: C_12  and  C_13
REMARK    8  A    between atoms: C_20  and  N_21
REMARK    9  A    between atoms: N_21  and  C_22
REMARK                            x       y       z     vdW  Elec       q    Type
REMARK                         _______ _______ _______ _____ _____    ______ ____
ROOT
ATOM      1  O   UNL     1       1.647   4.596  17.905  0.00  0.00    +0.000 OA
ATOM      2  C   UNL     1       2.874   4.693  17.959  0.00  0.00    +0.000 A 
ATOM      3  N   UNL     1       3.695   3.988  17.126  0.00  0.00    +0.000 N 
ATOM      4  C   UNL     1       5.064   4.091  17.051  0.00  0.00    +0.000 A 
ATOM      5  O   UNL     1       5.697   3.429  16.241  0.00  0.00    +0.000 OA
ATOM      6  N   UNL     1       5.637   4.982  17.943  0.00  0.00    +0.000 N 
ATOM      7  C   UNL     1       4.882   5.674  18.864  0.00  0.00    +0.000 A 
ATOM      8  C   UNL     1       3.549   5.580  18.963  0.00  0.00    +0.000 A 
ATOM      9  H   UNL     1       3.268   3.354  16.468  0.00  0.00    +0.000 HD
ENDROOT
BRANCH   8  10
ATOM     10  N   UNL     1       2.792   6.270  19.894  0.00  0.00    +0.000 N 
ATOM     11  H   UNL     1       3.060   6.127  20.865  0.00  0.00    +0.000 HD
BRANCH  10  12
ATOM     12  C   UNL     1       2.131   7.490  19.624  0.00  0.00    +0.000 A 
ATOM     13  C   UNL     1       2.237   8.059  18.348  0.00  0.00    +0.000 A 
ATOM     14  C   UNL     1       1.739   9.343  18.097  0.00  0.00    +0.000 A 
ATOM     15  C   UNL     1       1.101  10.062  19.107  0.00  0.00    +0.000 A 
ATOM     16  C   UNL     1       0.934   9.488  20.362  0.00  0.00    +0.000 A 
ATOM     17  C   UNL     1       1.448   8.210  20.616  0.00  0.00    +0.000 A 
ENDBRANCH  10  12
ENDBRANCH   8  10
BRANCH   6  18
ATOM     18  C   UNL     1       7.084   5.092  17.898  0.00  0.00    +0.000 C 
BRANCH  18  19
ATOM     19  O   UNL     1       7.519   6.365  18.360  0.00  0.00    +0.000 OA
BRANCH  19  20
ATOM     20  C   UNL     1       7.753   7.253  17.273  0.00  0.00    +0.000 C 
BRANCH  20  21
ATOM     21  C   UNL     1       7.369   8.664  17.696  0.00  0.00    +0.000 C 
BRANCH  21  22
ATOM     22  O   UNL     1       8.543   9.465  17.719  0.00  0.00    +0.000 OA
BRANCH  22  23
ATOM     23  C   UNL     1       8.985   9.709  19.052  0.00  0.00    +0.000 C 
BRANCH  23  24
ATOM     24  C   UNL     1       9.829  10.957  19.096  0.00  0.00    +0.000 A 
ATOM     25  C   UNL     1      10.088  11.712  17.943  0.00  0.00    +0.000 A 
ATOM     26  C   UNL     1      10.888  12.856  18.005  0.00  0.00    +0.000 A 
ATOM     27  C   UNL     1      11.423  13.265  19.225  0.00  0.00    +0.000 A 
ATOM     28  C   UNL     1      11.144  12.545  20.384  0.00  0.00    +0.000 A 
ATOM     29  C   UNL     1      10.346  11.402  20.322  0.00  0.00    +0.000 A 
ENDBRANCH  23  24
ENDBRANCH  22  23
ENDBRANCH  21  22
ENDBRANCH  20  21
ENDBRANCH  19  20
ENDBRANCH  18  19
ENDBRANCH   6  18
TORSDOF 9
ENDMDL
MODEL 5
REMARK VINA RESULT:      -7.0      4.167      6.426
REMARK  Name = 
REMARK  9 active torsions:
REMARK  status: ('A' for Active; 'I' for Inactive)
REMARK    1  A    between atoms: N_6  and  C_7
REMARK    2  A    between atoms: C_7  and  O_8
REMARK    3  A    between atoms: O_8  and  C_9
REMARK    4  A    between atoms: C_9  and  C_10
REMARK    5  A    between atoms: C_10  and  O_11
REMARK    6  A    between atoms: O_11  and  C_12
REMARK    7  A    between atoms: C_12  and  C_13
REMARK    8  A    between atoms: C_20  and  N_21
REMARK    9  A    between atoms: N_21  and  C_22
REMARK                            x       y       z     vdW  Elec       q    Type
REMARK                         _______ _______ _______ _____ _____    ______ ____
ROOT
ATOM      1  O   UNL     1       4.267   1.525  19.074  0.00  0.00    +0.000 OA
ATOM      2  C   UNL     1       3.658   2.554  19.371  0.00  0.00    +0.000 A 
ATOM      3  N   UNL     1       2.324   2.548  19.664  0.00  0.00    +0.000 N 
ATOM      4  C   UNL     1       1.578   3.623  20.086  0.00  0.00    +0.000 A 
ATOM      5  O   UNL     1       0.390   3.494  20.352  0.00  0.00    +0.000 OA
ATOM      6  N   UNL     1       2.269   4.819  20.184  0.00  0.00    +0.000 N 
ATOM      7  C   UNL     1       3.598   4.919  19.834  0.00  0.00    +0.000 A 
ATOM      8  C   UNL     1       4.341   3.889  19.409  0.00  0.00    +0.000 A 
ATOM      9  H   UNL     1       1.832   1.670  19.607  0.00  0.00    +0.000 HD
ENDROOT
BRANCH   8  10
ATOM     10  N   UNL     1       5.674   3.992  19.050  0.00  0.00    +0.000 N 
ATOM     11  H   UNL     1       6.096   3.138  18.693  0.00  0.00    +0.000 HD
BRANCH  10  12
ATOM     12  C   UNL     1       6.282   5.192  18.615  0.00  0.00    +0.000 A 
ATOM     13  C   UNL     1       5.795   5.830  17.465  0.00  0.00    +0.000 A 
ATOM     14  C   UNL     1       6.476   6.921  16.914  0.00  0.00    +0.000 A 
ATOM     15  C   UNL     1       7.633   7.410  17.520  0.00  0.00    +0.000 A 
ATOM     16  C   UNL     1       8.095   6.827  18.695  0.00  0.00    +0.000 A 
ATOM     17  C   UNL     1       7.422   5.724  19.235  0.00  0.00    +0.000 A 
ENDBRANCH  10  12
ENDBRANCH   8  10
BRANCH   6  18
ATOM     18  C   UNL     1       1.497   5.973  20.608  0.00  0.00    +0.000 C 
BRANCH  18  19
ATOM     19  O   UNL     1       2.002   7.171  20.032  0.00  0.00    +0.000 OA
BRANCH  19  20
ATOM     20  C   UNL     1       1.520   8.316  20.727  0.00  0.00    +0.000 C 
BRANCH  20  21
ATOM     21  C   UNL     1       1.326   9.452  19.733  0.00  0.00    +0.000 C 
BRANCH  21  22
ATOM     22  O   UNL     1      -0.054   9.535  19.403  0.00  0.00    +0.000 OA
BRANCH  22  23
ATOM     23  C   UNL     1      -0.249   9.731  18.004  0.00  0.00    +0.000 C 
BRANCH  23  24
ATOM     24  C   UNL     1      -1.614  10.317  17.750  0.00  0.00    +0.000 A 
ATOM     25  C   UNL     1      -2.190  11.251  18.624  0.00  0.00    +0.000 A 
ATOM     26  C   UNL     1      -3.464  11.767  18.376  0.00  0.00    +0.000 A 
ATOM     27  C   UNL     1      -4.168  11.367  17.242  0.00  0.00    +0.000 A 
ATOM     28  C   UNL     1      -3.593  10.469  16.346  0.00  0.00    +0.000 A 
ATOM     29  C   UNL     1      -2.320   9.952  16.594  0.00  0.00    +0.000 A 
ENDBRANCH  23  24
ENDBRANCH  22  23
ENDBRANCH  21  22
ENDBRANCH  20  21
ENDBRANCH  19  20
ENDBRANCH  18  19
ENDBRANCH   6  18
TORSDOF 9
ENDMDL
MODEL 6
REMARK VINA RESULT:      -7.0      4.044      6.223
REMARK  Name = 
REMARK  9 active torsions:
REMARK  status: ('A' for Active; 'I' for Inactive)
REMARK    1  A    between atoms: N_6  and  C_7
REMARK    2  A    between atoms: C_7  and  O_8
REMARK    3  A    between atoms: O_8  and  C_9
REMARK    4  A    between atoms: C_9  and  C_10
REMARK    5  A    between atoms: C_10  and  O_11
REMARK    6  A    between atoms: O_11  and  C_12
REMARK    7  A    between atoms: C_12  and  C_13
REMARK    8  A    between atoms: C_20  and  N_21
REMARK    9  A    between atoms: N_21  and  C_22
REMARK                            x       y       z     vdW  Elec       q    Type
REMARK                         _______ _______ _______ _____ _____    ______ ____
ROOT
ATOM      1  O   UNL     1       3.964   1.398  18.235  0.00  0.00    +0.000 OA
ATOM      2  C   UNL     1       3.477   2.445  18.665  0.00  0.00    +0.000 A 
ATOM      3  N   UNL     1       2.312   2.465  19.377  0.00  0.00    +0.000 N 
ATOM      4  C   UNL     1       1.737   3.564  19.969  0.00  0.00    +0.000 A 
ATOM      5  O   UNL     1       0.701   3.458  20.612  0.00  0.00    +0.000 OA
ATOM      6  N   UNL     1       2.413   4.757  19.779  0.00  0.00    +0.000 N 
ATOM      7  C   UNL     1       3.555   4.830  19.011  0.00  0.00    +0.000 A 
ATOM      8  C   UNL     1       4.126   3.774  18.415  0.00  0.00    +0.000 A 
ATOM      9  H   UNL     1       1.835   1.590  19.525  0.00  0.00    +0.000 HD
ENDROOT
BRANCH   8  10
ATOM     10  N   UNL     1       5.268   3.849  17.637  0.00  0.00    +0.000 N 
ATOM     11  H   UNL     1       5.218   3.367  16.742  0.00  0.00    +0.000 HD
BRANCH  10  12
ATOM     12  C   UNL     1       6.192   4.918  17.694  0.00  0.00    +0.000 A 
ATOM     13  C   UNL     1       7.093   4.988  18.766  0.00  0.00    +0.000 A 
ATOM     14  C   UNL     1       7.902   6.116  18.942  0.00  0.00    +0.000 A 
ATOM     15  C   UNL     1       7.847   7.174  18.036  0.00  0.00    +0.000 A 
ATOM     16  C   UNL     1       7.002   7.094  16.934  0.00  0.00    +0.000 A 
ATOM     17  C   UNL     1       6.180   5.972  16.769  0.00  0.00    +0.000 A 
ENDBRANCH  10  12
ENDBRANCH   8  10
BRANCH   6  18
ATOM     18  C   UNL     1       1.814   5.937  20.377  0.00  0.00    +0.000 C 
BRANCH  18  19
ATOM     19  O   UNL     1       2.526   7.115  20.021  0.00  0.00    +0.000 OA
BRANCH  19  20
ATOM     20  C   UNL     1       1.714   7.989  19.245  0.00  0.00    +0.000 C 
BRANCH  20  21
ATOM     21  C   UNL     1       1.169   9.087  20.147  0.00  0.00    +0.000 C 
BRANCH  21  22
ATOM     22  O   UNL     1       0.562  10.083  19.334  0.00  0.00    +0.000 OA
BRANCH  22  23
ATOM     23  C   UNL     1      -0.761  10.384  19.774  0.00  0.00    +0.000 C 
BRANCH  23  24
ATOM     24  C   UNL     1      -1.676  10.545  18.586  0.00  0.00    +0.000 A 
ATOM     25  C   UNL     1      -2.734  11.466  18.591  0.00  0.00    +0.000 A 
ATOM     26  C   UNL     1      -3.579  11.585  17.485  0.00  0.00    +0.000 A 
ATOM     27  C   UNL     1      -3.364  10.796  16.357  0.00  0.00    +0.000 A 
ATOM     28  C   UNL     1      -2.295   9.903  16.325  0.00  0.00    +0.000 A 
ATOM     29  C   UNL     1      -1.451   9.783  17.430  0.00  0.00    +0.000 A 
ENDBRANCH  23  24
ENDBRANCH  22  23
ENDBRANCH  21  22
ENDBRANCH  20  21
ENDBRANCH  19  20
ENDBRANCH  18  19
ENDBRANCH   6  18
TORSDOF 9
ENDMDL
MODEL 7
REMARK VINA RESULT:      -6.9      4.125      6.407
REMARK  Name = 
REMARK  9 active torsions:
REMARK  status: ('A' for Active; 'I' for Inactive)
REMARK    1  A    between atoms: N_6  and  C_7
REMARK    2  A    between atoms: C_7  and  O_8
REMARK    3  A    between atoms: O_8  and  C_9
REMARK    4  A    between atoms: C_9  and  C_10
REMARK    5  A    between atoms: C_10  and  O_11
REMARK    6  A    between atoms: O_11  and  C_12
REMARK    7  A    between atoms: C_12  and  C_13
REMARK    8  A    between atoms: C_20  and  N_21
REMARK    9  A    between atoms: N_21  and  C_22
REMARK                            x       y       z     vdW  Elec       q    Type
REMARK                         _______ _______ _______ _____ _____    ______ ____
ROOT
ATOM      1  O   UNL     1       7.913   4.188  18.392  0.00  0.00    +0.000 OA
ATOM      2  C   UNL     1       6.998   4.965  18.119  0.00  0.00    +0.000 A 
ATOM      3  N   UNL     1       7.233   6.227  17.651  0.00  0.00    +0.000 N 
ATOM      4  C   UNL     1       6.285   7.134  17.239  0.00  0.00    +0.000 A 
ATOM      5  O   UNL     1       6.615   8.230  16.807  0.00  0.00    +0.000 OA
ATOM      6  N   UNL     1       4.973   6.706  17.351  0.00  0.00    +0.000 N 
ATOM      7  C   UNL     1       4.653   5.475  17.883  0.00  0.00    +0.000 A 
ATOM      8  C   UNL     1       5.559   4.582  18.301  0.00  0.00    +0.000 A 
ATOM      9  H   UNL     1       8.192   6.524  17.557  0.00  0.00    +0.000 HD
ENDROOT
BRANCH   8  10
ATOM     10  N   UNL     1       5.237   3.349  18.843  0.00  0.00    +0.000 N 
ATOM     11  H   UNL     1       5.953   2.934  19.435  0.00  0.00    +0.000 HD
BRANCH  10  12
ATOM     12  C   UNL     1       3.915   2.927  19.109  0.00  0.00    +0.000 A 
ATOM     13  C   UNL     1       3.156   2.357  18.077  0.00  0.00    +0.000 A 
ATOM     14  C   UNL     1       1.796   2.085  18.259  0.00  0.00    +0.000 A 
ATOM     15  C   UNL     1       1.182   2.347  19.483  0.00  0.00    +0.000 A 
ATOM     16  C   UNL     1       1.934   2.857  20.536  0.00  0.00    +0.000 A 
ATOM     17  C   UNL     1       3.291   3.145  20.346  0.00  0.00    +0.000 A 
ENDBRANCH  10  12
ENDBRANCH   8  10
BRANCH   6  18
ATOM     18  C   UNL     1       3.952   7.654  16.941  0.00  0.00    +0.000 C 
BRANCH  18  19
ATOM     19  O   UNL     1       3.321   8.251  18.067  0.00  0.00    +0.000 OA
BRANCH  19  20
ATOM     20  C   UNL     1       1.923   8.402  17.850  0.00  0.00    +0.000 C 
BRANCH  20  21
ATOM     21  C   UNL     1       1.364   9.367  18.885  0.00  0.00    +0.000 C 
BRANCH  21  22
ATOM     22  O   UNL     1       0.418  10.216  18.249  0.00  0.00    +0.000 OA
BRANCH  22  23
ATOM     23  C   UNL     1      -0.799  10.292  18.987  0.00  0.00    +0.000 C 
BRANCH  23  24
ATOM     24  C   UNL     1      -1.960  10.513  18.050  0.00  0.00    +0.000 A 
ATOM     25  C   UNL     1      -2.996  11.407  18.359  0.00  0.00    +0.000 A 
ATOM     26  C   UNL     1      -4.069  11.582  17.482  0.00  0.00    +0.000 A 
ATOM     27  C   UNL     1      -4.109  10.877  16.281  0.00  0.00    +0.000 A 
ATOM     28  C   UNL     1      -3.068  10.014  15.946  0.00  0.00    +0.000 A 
ATOM     29  C   UNL     1      -1.996   9.838  16.821  0.00  0.00    +0.000 A 
ENDBRANCH  23  24
ENDBRANCH  22  23
ENDBRANCH  21  22
ENDBRANCH  20  21
ENDBRANCH  19  20
ENDBRANCH  18  19
ENDBRANCH   6  18
TORSDOF 9
ENDMDL
MODEL 8
REMARK VINA RESULT:      -6.9      3.593      4.761
REMARK  Name = 
REMARK  9 active torsions:
REMARK  status: ('A' for Active; 'I' for Inactive)
REMARK    1  A    between atoms: N_6  and  C_7
REMARK    2  A    between atoms: C_7  and  O_8
REMARK    3  A    between atoms: O_8  and  C_9
REMARK    4  A    between atoms: C_9  and  C_10
REMARK    5  A    between atoms: C_10  and  O_11
REMARK    6  A    between atoms: O_11  and  C_12
REMARK    7  A    between atoms: C_12  and  C_13
REMARK    8  A    between atoms: C_20  and  N_21
REMARK    9  A    between atoms: N_21  and  C_22
REMARK                            x       y       z     vdW  Elec       q    Type
REMARK                         _______ _______ _______ _____ _____    ______ ____
ROOT
ATOM      1  O   UNL     1       8.224   4.153  17.625  0.00  0.00    +0.000 OA
ATOM      2  C   UNL     1       7.044   4.503  17.672  0.00  0.00    +0.000 A 
ATOM      3  N   UNL     1       6.226   4.157  18.709  0.00  0.00    +0.000 N 
ATOM      4  C   UNL     1       4.926   4.567  18.895  0.00  0.00    +0.000 A 
ATOM      5  O   UNL     1       4.296   4.218  19.883  0.00  0.00    +0.000 OA
ATOM      6  N   UNL     1       4.419   5.383  17.898  0.00  0.00    +0.000 N 
ATOM      7  C   UNL     1       5.158   5.715  16.784  0.00  0.00    +0.000 A 
ATOM      8  C   UNL     1       6.421   5.317  16.578  0.00  0.00    +0.000 A 
ATOM      9  H   UNL     1       6.609   3.577  19.439  0.00  0.00    +0.000 HD
ENDROOT
BRANCH   8  10
ATOM     10  N   UNL     1       7.161   5.644  15.454  0.00  0.00    +0.000 N 
ATOM     11  H   UNL     1       8.052   6.098  15.637  0.00  0.00    +0.000 HD
BRANCH  10  12
ATOM     12  C   UNL     1       7.080   4.945  14.228  0.00  0.00    +0.000 A 
ATOM     13  C   UNL     1       7.846   5.383  13.138  0.00  0.00    +0.000 A 
ATOM     14  C   UNL     1       7.664   4.821  11.869  0.00  0.00    +0.000 A 
ATOM     15  C   UNL     1       6.741   3.794  11.677  0.00  0.00    +0.000 A 
ATOM     16  C   UNL     1       6.017   3.306  12.760  0.00  0.00    +0.000 A 
ATOM     17  C   UNL     1       6.188   3.882  14.025  0.00  0.00    +0.000 A 
ENDBRANCH  10  12
ENDBRANCH   8  10
BRANCH   6  18
ATOM     18  C   UNL     1       3.041   5.812  18.061  0.00  0.00    +0.000 C 
BRANCH  18  19
ATOM     19  O   UNL     1       2.970   7.131  18.588  0.00  0.00    +0.000 OA
BRANCH  19  20
ATOM     20  C   UNL     1       2.686   8.078  17.564  0.00  0.00    +0.000 C 
BRANCH  20  21
ATOM     21  C   UNL     1       2.152   9.351  18.203  0.00  0.00    +0.000 C 
BRANCH  21  22
ATOM     22  O   UNL     1       1.046   9.014  19.031  0.00  0.00    +0.000 OA
BRANCH  22  23
ATOM     23  C   UNL     1       0.899   9.935  20.110  0.00  0.00    +0.000 C 
BRANCH  23  24
ATOM     24  C   UNL     1       0.464  11.280  19.585  0.00  0.00    +0.000 A 
ATOM     25  C   UNL     1      -0.641  11.415  18.731  0.00  0.00    +0.000 A 
ATOM     26  C   UNL     1      -1.014  12.669  18.243  0.00  0.00    +0.000 A 
ATOM     27  C   UNL     1      -0.296  13.804  18.619  0.00  0.00    +0.000 A 
ATOM     28  C   UNL     1       0.780  13.688  19.496  0.00  0.00    +0.000 A 
ATOM     29  C   UNL     1       1.154  12.435  19.982  0.00  0.00    +0.000 A 
ENDBRANCH  23  24
ENDBRANCH  22  23
ENDBRANCH  21  22
ENDBRANCH  20  21
ENDBRANCH  19  20
ENDBRANCH  18  19
ENDBRANCH   6  18
TORSDOF 9
ENDMDL
MODEL 9
REMARK VINA RESULT:      -6.9      4.489      6.195
REMARK  Name = 
REMARK  9 active torsions:
REMARK  status: ('A' for Active; 'I' for Inactive)
REMARK    1  A    between atoms: N_6  and  C_7
REMARK    2  A    between atoms: C_7  and  O_8
REMARK    3  A    between atoms: O_8  and  C_9
REMARK    4  A    between atoms: C_9  and  C_10
REMARK    5  A    between atoms: C_10  and  O_11
REMARK    6  A    between atoms: O_11  and  C_12
REMARK    7  A    between atoms: C_12  and  C_13
REMARK    8  A    between atoms: C_20  and  N_21
REMARK    9  A    between atoms: N_21  and  C_22
REMARK                            x       y       z     vdW  Elec       q    Type
REMARK                         _______ _______ _______ _____ _____    ______ ____
ROOT
ATOM      1  O   UNL     1       3.663   1.620  18.729  0.00  0.00    +0.000 OA
ATOM      2  C   UNL     1       3.330   2.761  19.054  0.00  0.00    +0.000 A 
ATOM      3  N   UNL     1       2.084   3.042  19.538  0.00  0.00    +0.000 N 
ATOM      4  C   UNL     1       1.647   4.259  20.006  0.00  0.00    +0.000 A 
ATOM      5  O   UNL     1       0.513   4.389  20.448  0.00  0.00    +0.000 OA
ATOM      6  N   UNL     1       2.575   5.285  19.937  0.00  0.00    +0.000 N 
ATOM      7  C   UNL     1       3.827   5.096  19.393  0.00  0.00    +0.000 A 
ATOM      8  C   UNL     1       4.269   3.923  18.921  0.00  0.00    +0.000 A 
ATOM      9  H   UNL     1       1.420   2.287  19.601  0.00  0.00    +0.000 HD
ENDROOT
BRANCH   8  10
ATOM     10  N   UNL     1       5.523   3.735  18.367  0.00  0.00    +0.000 N 
ATOM     11  H   UNL     1       6.020   2.906  18.684  0.00  0.00    +0.000 HD
BRANCH  10  12
ATOM     12  C   UNL     1       5.900   4.212  17.090  0.00  0.00    +0.000 A 
ATOM     13  C   UNL     1       5.021   4.048  16.010  0.00  0.00    +0.000 A 
ATOM     14  C   UNL     1       5.429   4.353  14.707  0.00  0.00    +0.000 A 
ATOM     15  C   UNL     1       6.707   4.857  14.467  0.00  0.00    +0.000 A 
ATOM     16  C   UNL     1       7.570   5.083  15.534  0.00  0.00    +0.000 A 
ATOM     17  C   UNL     1       7.166   4.760  16.835  0.00  0.00    +0.000 A 
ENDBRANCH  10  12
ENDBRANCH   8  10
BRANCH   6  18
ATOM     18  C   UNL     1       2.130   6.585  20.407  0.00  0.00    +0.000 C 
BRANCH  18  19
ATOM     19  O   UNL     1       2.079   7.528  19.343  0.00  0.00    +0.000 OA
BRANCH  19  20
ATOM     20  C   UNL     1       1.512   8.759  19.776  0.00  0.00    +0.000 C 
BRANCH  20  21
ATOM     21  C   UNL     1       1.223   9.625  18.559  0.00  0.00    +0.000 C 
BRANCH  21  22
ATOM     22  O   UNL     1      -0.186   9.741  18.410  0.00  0.00    +0.000 OA
BRANCH  22  23
ATOM     23  C   UNL     1      -0.585  11.099  18.240  0.00  0.00    +0.000 C 
BRANCH  23  24
ATOM     24  C   UNL     1      -2.007  11.162  17.742  0.00  0.00    +0.000 A 
ATOM     25  C   UNL     1      -2.345  10.794  16.431  0.00  0.00    +0.000 A 
ATOM     26  C   UNL     1      -3.666  10.877  15.987  0.00  0.00    +0.000 A 
ATOM     27  C   UNL     1      -4.666  11.312  16.855  0.00  0.00    +0.000 A 
ATOM     28  C   UNL     1      -4.350  11.644  18.170  0.00  0.00    +0.000 A 
ATOM     29  C   UNL     1      -3.029  11.563  18.614  0.00  0.00    +0.000 A 
ENDBRANCH  23  24
ENDBRANCH  22  23
ENDBRANCH  21  22
ENDBRANCH  20  21
ENDBRANCH  19  20
ENDBRANCH  18  19
ENDBRANCH   6  18
TORSDOF 9
ENDMDL
