MODEL 1
REMARK VINA RESULT:      -7.9      0.000      0.000
REMARK  Name = 
REMARK  6 active torsions:
REMARK  status: ('A' for Active; 'I' for Inactive)
REMARK    1  A    between atoms: C_1  and  O_2
REMARK    2  A    between atoms: O_2  and  C_3
REMARK    3  A    between atoms: C_5  and  C_6
REMARK    4  A    between atoms: C_10  and  O_11
REMARK    5  A    between atoms: O_11  and  C_12
REMARK    6  A    between atoms: C_12  and  C_13
REMARK                            x       y       z     vdW  Elec       q    Type
REMARK                         _______ _______ _______ _____ _____    ______ ____
ROOT
ATOM      1  C   UNL     1       2.697   4.305  18.821  0.00  0.00    +0.000 C 
ENDROOT
BRANCH   1   2
ATOM      2  C   UNL     1       2.374   5.299  19.945  0.00  0.00    +0.000 C 
ATOM      3  O   UNL     1       2.233   4.929  21.118  0.00  0.00    +0.000 OA
ATOM      4  N   UNL     1       2.293   6.643  19.577  0.00  0.00    +0.000 N 
ATOM      5  C   UNL     1       2.437   7.107  18.190  0.00  0.00    +0.000 C 
ATOM      6  C   UNL     1       2.567   8.625  18.034  0.00  0.00    +0.000 C 
ATOM      7  C   UNL     1       1.454   9.305  18.782  0.00  0.00    +0.000 A 
ATOM      8  C   UNL     1       0.813  10.447  18.295  0.00  0.00    +0.000 A 
ATOM      9  C   UNL     1      -0.213  11.038  19.034  0.00  0.00    +0.000 A 
ATOM     10  C   UNL     1      -0.590  10.503  20.266  0.00  0.00    +0.000 A 
ATOM     11  C   UNL     1       0.064   9.377  20.767  0.00  0.00    +0.000 A 
ATOM     12  C   UNL     1       1.085   8.769  20.029  0.00  0.00    +0.000 A 
ATOM     13  C   UNL     1       1.858   7.602  20.592  0.00  0.00    +0.000 C 
ENDBRANCH   1   2
BRANCH   1  14
ATOM     14  O   UNL     1       4.015   3.783  18.891  0.00  0.00    +0.000 OA
BRANCH  14  20
ATOM     15  C   UNL     1       6.216   4.650  18.071  0.00  0.00    +0.000 A 
ATOM     16  C   UNL     1       6.974   4.974  16.931  0.00  0.00    +0.000 A 
ATOM     17  C   UNL     1       6.451   4.808  15.653  0.00  0.00    +0.000 A 
ATOM     18  C   UNL     1       5.168   4.293  15.494  0.00  0.00    +0.000 A 
ATOM     19  C   UNL     1       4.408   3.967  16.621  0.00  0.00    +0.000 A 
ATOM     20  C   UNL     1       4.912   4.148  17.919  0.00  0.00    +0.000 A 
BRANCH  15  22
ATOM     21  C   UNL     1       7.804   5.714  19.457  0.00  0.00    +0.000 C 
ATOM     22  O   UNL     1       6.765   4.749  19.324  0.00  0.00    +0.000 OA
ENDBRANCH  15  22
BRANCH  17  23
ATOM     23  C   UNL     1       7.247   5.155  14.506  0.00  0.00    +0.000 C 
ATOM     24  N   UNL     1       7.885   5.451  13.590  0.00  0.00    +0.000 NA
ENDBRANCH  17  23
ENDBRANCH  14  20
ENDBRANCH   1  14
TORSDOF 5
ENDMDL
MODEL 2
REMARK VINA RESULT:      -7.2      3.370      5.079
REMARK  Name = 
REMARK  6 active torsions:
REMARK  status: ('A' for Active; 'I' for Inactive)
REMARK    1  A    between atoms: C_1  and  O_2
REMARK    2  A    between atoms: O_2  and  C_3
REMARK    3  A    between atoms: C_5  and  C_6
REMARK    4  A    between atoms: C_10  and  O_11
REMARK    5  A    between atoms: O_11  and  C_12
REMARK    6  A    between atoms: C_12  and  C_13
REMARK                            x       y       z     vdW  Elec       q    Type
REMARK                         _______ _______ _______ _____ _____    ______ ____
ROOT
ATOM      1  C   UNL     1       6.877   6.232  17.189  0.00  0.00    +0.000 C 
ENDROOT
BRANCH   1   2
ATOM      2  C   UNL     1       6.355   5.613  18.492  0.00  0.00    +0.000 C 
ATOM      3  O   UNL     1       7.118   5.313  19.420  0.00  0.00    +0.000 OA
ATOM      4  N   UNL     1       4.972   5.448  18.588  0.00  0.00    +0.000 N 
ATOM      5  C   UNL     1       4.046   5.778  17.495  0.00  0.00    +0.000 C 
ATOM      6  C   UNL     1       2.565   5.764  17.886  0.00  0.00    +0.000 C 
ATOM      7  C   UNL     1       2.239   4.470  18.579  0.00  0.00    +0.000 A 
ATOM      8  C   UNL     1       1.029   3.801  18.385  0.00  0.00    +0.000 A 
ATOM      9  C   UNL     1       0.779   2.604  19.058  0.00  0.00    +0.000 A 
ATOM     10  C   UNL     1       1.728   2.081  19.937  0.00  0.00    +0.000 A 
ATOM     11  C   UNL     1       2.928   2.758  20.152  0.00  0.00    +0.000 A 
ATOM     12  C   UNL     1       3.194   3.953  19.474  0.00  0.00    +0.000 A 
ATOM     13  C   UNL     1       4.449   4.740  19.756  0.00  0.00    +0.000 C 
ENDBRANCH   1   2
BRANCH   1  14
ATOM     14  O   UNL     1       7.629   5.326  16.396  0.00  0.00    +0.000 OA
BRANCH  14  20
ATOM     15  C   UNL     1       7.483   5.073  13.909  0.00  0.00    +0.000 A 
ATOM     16  C   UNL     1       6.753   4.505  12.850  0.00  0.00    +0.000 A 
ATOM     17  C   UNL     1       5.622   3.733  13.093  0.00  0.00    +0.000 A 
ATOM     18  C   UNL     1       5.215   3.500  14.403  0.00  0.00    +0.000 A 
ATOM     19  C   UNL     1       5.935   4.060  15.462  0.00  0.00    +0.000 A 
ATOM     20  C   UNL     1       7.066   4.859  15.234  0.00  0.00    +0.000 A 
BRANCH  15  22
ATOM     21  C   UNL     1       8.815   6.198  12.315  0.00  0.00    +0.000 C 
ATOM     22  O   UNL     1       8.638   5.772  13.664  0.00  0.00    +0.000 OA
ENDBRANCH  15  22
BRANCH  17  23
ATOM     23  C   UNL     1       4.892   3.170  11.989  0.00  0.00    +0.000 C 
ATOM     24  N   UNL     1       4.318   2.723  11.092  0.00  0.00    +0.000 NA
ENDBRANCH  17  23
ENDBRANCH  14  20
ENDBRANCH   1  14
TORSDOF 5
ENDMDL
MODEL 3
REMARK VINA RESULT:      -7.1      3.621      8.640
REMARK  Name = 
REMARK  6 active torsions:
REMARK  status: ('A' for Active; 'I' for Inactive)
REMARK    1  A    between atoms: C_1  and  O_2
REMARK    2  A    between atoms: O_2  and  C_3
REMARK    3  A    between atoms: C_5  and  C_6
REMARK    4  A    between atoms: C_10  and  O_11
REMARK    5  A    between atoms: O_11  and  C_12
REMARK    6  A    between atoms: C_12  and  C_13
REMARK                            x       y       z     vdW  Elec       q    Type
REMARK                         _______ _______ _______ _____ _____    ______ ____
ROOT
ATOM      1  C   UNL     1       1.212   9.285  19.234  0.00  0.00    +0.000 C 
ENDROOT
BRANCH   1   2
ATOM      2  C   UNL     1       2.055   8.313  18.399  0.00  0.00    +0.000 C 
ATOM      3  O   UNL     1       2.517   8.636  17.297  0.00  0.00    +0.000 OA
ATOM      4  N   UNL     1       2.307   7.064  18.970  0.00  0.00    +0.000 N 
ATOM      5  C   UNL     1       1.755   6.649  20.268  0.00  0.00    +0.000 C 
ATOM      6  C   UNL     1       2.349   5.353  20.829  0.00  0.00    +0.000 C 
ATOM      7  C   UNL     1       2.292   4.277  19.780  0.00  0.00    +0.000 A 
ATOM      8  C   UNL     1       2.003   2.945  20.088  0.00  0.00    +0.000 A 
ATOM      9  C   UNL     1       1.968   1.988  19.073  0.00  0.00    +0.000 A 
ATOM     10  C   UNL     1       2.236   2.353  17.754  0.00  0.00    +0.000 A 
ATOM     11  C   UNL     1       2.549   3.676  17.445  0.00  0.00    +0.000 A 
ATOM     12  C   UNL     1       2.575   4.647  18.453  0.00  0.00    +0.000 A 
ATOM     13  C   UNL     1       2.992   6.065  18.151  0.00  0.00    +0.000 C 
ENDBRANCH   1   2
BRANCH   1  14
ATOM     14  O   UNL     1       0.816  10.446  18.519  0.00  0.00    +0.000 OA
BRANCH  14  20
ATOM     15  C   UNL     1      -1.240  11.748  19.107  0.00  0.00    +0.000 A 
ATOM     16  C   UNL     1      -2.624  11.872  18.895  0.00  0.00    +0.000 A 
ATOM     17  C   UNL     1      -3.297  11.009  18.037  0.00  0.00    +0.000 A 
ATOM     18  C   UNL     1      -2.590  10.019  17.361  0.00  0.00    +0.000 A 
ATOM     19  C   UNL     1      -1.214   9.888  17.565  0.00  0.00    +0.000 A 
ATOM     20  C   UNL     1      -0.522  10.737  18.443  0.00  0.00    +0.000 A 
BRANCH  15  22
ATOM     21  C   UNL     1      -0.433  13.955  19.346  0.00  0.00    +0.000 C 
ATOM     22  O   UNL     1      -0.572  12.649  19.898  0.00  0.00    +0.000 OA
ENDBRANCH  15  22
BRANCH  17  23
ATOM     23  C   UNL     1      -4.715  11.155  17.845  0.00  0.00    +0.000 C 
ATOM     24  N   UNL     1      -5.851  11.289  17.682  0.00  0.00    +0.000 NA
ENDBRANCH  17  23
ENDBRANCH  14  20
ENDBRANCH   1  14
TORSDOF 5
ENDMDL
MODEL 4
REMARK VINA RESULT:      -6.9      3.529      8.860
REMARK  Name = 
REMARK  6 active torsions:
REMARK  status: ('A' for Active; 'I' for Inactive)
REMARK    1  A    between atoms: C_1  and  O_2
REMARK    2  A    between atoms: O_2  and  C_3
REMARK    3  A    between atoms: C_5  and  C_6
REMARK    4  A    between atoms: C_10  and  O_11
REMARK    5  A    between atoms: O_11  and  C_12
REMARK    6  A    between atoms: C_12  and  C_13
REMARK                            x       y       z     vdW  Elec       q    Type
REMARK                         _______ _______ _______ _____ _____    ______ ____
ROOT
ATOM      1  C   UNL     1       1.482   9.278  18.737  0.00  0.00    +0.000 C 
ENDROOT
BRANCH   1   2
ATOM      2  C   UNL     1       2.406   8.199  18.157  0.00  0.00    +0.000 C 
ATOM      3  O   UNL     1       3.107   8.412  17.159  0.00  0.00    +0.000 OA
ATOM      4  N   UNL     1       2.442   6.983  18.842  0.00  0.00    +0.000 N 
ATOM      5  C   UNL     1       1.606   6.697  20.016  0.00  0.00    +0.000 C 
ATOM      6  C   UNL     1       1.976   5.413  20.766  0.00  0.00    +0.000 C 
ATOM      7  C   UNL     1       2.058   4.268  19.795  0.00  0.00    +0.000 A 
ATOM      8  C   UNL     1       1.616   2.982  20.114  0.00  0.00    +0.000 A 
ATOM      9  C   UNL     1       1.720   1.956  19.172  0.00  0.00    +0.000 A 
ATOM     10  C   UNL     1       2.281   2.207  17.920  0.00  0.00    +0.000 A 
ATOM     11  C   UNL     1       2.745   3.484  17.606  0.00  0.00    +0.000 A 
ATOM     12  C   UNL     1       2.635   4.523  18.537  0.00  0.00    +0.000 A 
ATOM     13  C   UNL     1       3.207   5.888  18.246  0.00  0.00    +0.000 C 
ENDBRANCH   1   2
BRANCH   1  14
ATOM     14  O   UNL     1       0.442   9.666  17.851  0.00  0.00    +0.000 OA
BRANCH  14  20
ATOM     15  C   UNL     1      -1.825  10.725  17.758  0.00  0.00    +0.000 A 
ATOM     16  C   UNL     1      -2.741  11.547  18.439  0.00  0.00    +0.000 A 
ATOM     17  C   UNL     1      -2.436  12.076  19.689  0.00  0.00    +0.000 A 
ATOM     18  C   UNL     1      -1.216  11.775  20.287  0.00  0.00    +0.000 A 
ATOM     19  C   UNL     1      -0.300  10.958  19.618  0.00  0.00    +0.000 A 
ATOM     20  C   UNL     1      -0.582  10.432  18.348  0.00  0.00    +0.000 A 
BRANCH  15  22
ATOM     21  C   UNL     1      -3.008  10.935  15.725  0.00  0.00    +0.000 C 
ATOM     22  O   UNL     1      -2.163  10.148  16.560  0.00  0.00    +0.000 OA
ENDBRANCH  15  22
BRANCH  17  23
ATOM     23  C   UNL     1      -3.390  12.920  20.358  0.00  0.00    +0.000 C 
ATOM     24  N   UNL     1      -4.143  13.601  20.908  0.00  0.00    +0.000 NA
ENDBRANCH  17  23
ENDBRANCH  14  20
ENDBRANCH   1  14
TORSDOF 5
ENDMDL
MODEL 5
REMARK VINA RESULT:      -6.9      2.757      8.172
REMARK  Name = 
REMARK  6 active torsions:
REMARK  status: ('A' for Active; 'I' for Inactive)
REMARK    1  A    between atoms: C_1  and  O_2
REMARK    2  A    between atoms: O_2  and  C_3
REMARK    3  A    between atoms: C_5  and  C_6
REMARK    4  A    between atoms: C_10  and  O_11
REMARK    5  A    between atoms: O_11  and  C_12
REMARK    6  A    between atoms: C_12  and  C_13
REMARK                            x       y       z     vdW  Elec       q    Type
REMARK                         _______ _______ _______ _____ _____    ______ ____
ROOT
ATOM      1  C   UNL     1       0.965   7.023  20.786  0.00  0.00    +0.000 C 
ENDROOT
BRANCH   1   2
ATOM      2  C   UNL     1       1.991   5.902  20.581  0.00  0.00    +0.000 C 
ATOM      3  O   UNL     1       2.022   4.907  21.318  0.00  0.00    +0.000 OA
ATOM      4  N   UNL     1       2.856   6.046  19.495  0.00  0.00    +0.000 N 
ATOM      5  C   UNL     1       2.853   7.225  18.617  0.00  0.00    +0.000 C 
ATOM      6  C   UNL     1       3.695   7.077  17.346  0.00  0.00    +0.000 C 
ATOM      7  C   UNL     1       5.075   6.602  17.709  0.00  0.00    +0.000 A 
ATOM      8  C   UNL     1       6.222   7.062  17.057  0.00  0.00    +0.000 A 
ATOM      9  C   UNL     1       7.478   6.583  17.434  0.00  0.00    +0.000 A 
ATOM     10  C   UNL     1       7.591   5.633  18.449  0.00  0.00    +0.000 A 
ATOM     11  C   UNL     1       6.447   5.153  19.087  0.00  0.00    +0.000 A 
ATOM     12  C   UNL     1       5.184   5.635  18.725  0.00  0.00    +0.000 A 
ATOM     13  C   UNL     1       3.932   5.067  19.345  0.00  0.00    +0.000 C 
ENDBRANCH   1   2
BRANCH   1  14
ATOM     14  O   UNL     1       1.468   8.117  21.539  0.00  0.00    +0.000 OA
BRANCH  14  20
ATOM     15  C   UNL     1       0.497  10.296  20.780  0.00  0.00    +0.000 A 
ATOM     16  C   UNL     1      -0.364  11.355  21.120  0.00  0.00    +0.000 A 
ATOM     17  C   UNL     1      -1.042  11.364  22.335  0.00  0.00    +0.000 A 
ATOM     18  C   UNL     1      -0.886  10.301  23.220  0.00  0.00    +0.000 A 
ATOM     19  C   UNL     1      -0.033   9.244  22.889  0.00  0.00    +0.000 A 
ATOM     20  C   UNL     1       0.676   9.229  21.677  0.00  0.00    +0.000 A 
BRANCH  15  22
ATOM     21  C   UNL     1       0.224  10.096  18.443  0.00  0.00    +0.000 C 
ATOM     22  O   UNL     1       1.105  10.261  19.550  0.00  0.00    +0.000 OA
ENDBRANCH  15  22
BRANCH  17  23
ATOM     23  C   UNL     1      -1.911  12.463  22.659  0.00  0.00    +0.000 C 
ATOM     24  N   UNL     1      -2.620  13.335  22.928  0.00  0.00    +0.000 NA
ENDBRANCH  17  23
ENDBRANCH  14  20
ENDBRANCH   1  14
TORSDOF 5
ENDMDL
MODEL 6
REMARK VINA RESULT:      -6.9      2.194      3.561
REMARK  Name = 
REMARK  6 active torsions:
REMARK  status: ('A' for Active; 'I' for Inactive)
REMARK    1  A    between atoms: C_1  and  O_2
REMARK    2  A    between atoms: O_2  and  C_3
REMARK    3  A    between atoms: C_5  and  C_6
REMARK    4  A    between atoms: C_10  and  O_11
REMARK    5  A    between atoms: O_11  and  C_12
REMARK    6  A    between atoms: C_12  and  C_13
REMARK                            x       y       z     vdW  Elec       q    Type
REMARK                         _______ _______ _______ _____ _____    ______ ____
ROOT
ATOM      1  C   UNL     1       2.526   7.428  19.470  0.00  0.00    +0.000 C 
ENDROOT
BRANCH   1   2
ATOM      2  C   UNL     1       1.635   8.593  19.018  0.00  0.00    +0.000 C 
ATOM      3  O   UNL     1       1.696   9.049  17.869  0.00  0.00    +0.000 OA
ATOM      4  N   UNL     1       0.725   9.077  19.960  0.00  0.00    +0.000 N 
ATOM      5  C   UNL     1       0.644   8.566  21.336  0.00  0.00    +0.000 C 
ATOM      6  C   UNL     1      -0.577   9.047  22.126  0.00  0.00    +0.000 C 
ATOM      7  C   UNL     1      -0.677  10.545  22.034  0.00  0.00    +0.000 A 
ATOM      8  C   UNL     1      -1.082  11.335  23.113  0.00  0.00    +0.000 A 
ATOM      9  C   UNL     1      -1.160  12.722  22.969  0.00  0.00    +0.000 A 
ATOM     10  C   UNL     1      -0.852  13.320  21.747  0.00  0.00    +0.000 A 
ATOM     11  C   UNL     1      -0.471  12.532  20.661  0.00  0.00    +0.000 A 
ATOM     12  C   UNL     1      -0.377  11.143  20.797  0.00  0.00    +0.000 A 
ATOM     13  C   UNL     1      -0.047  10.269  19.612  0.00  0.00    +0.000 C 
ENDBRANCH   1   2
BRANCH   1  14
ATOM     14  O   UNL     1       2.338   6.246  18.707  0.00  0.00    +0.000 OA
BRANCH  14  20
ATOM     15  C   UNL     1       3.658   4.554  17.418  0.00  0.00    +0.000 A 
ATOM     16  C   UNL     1       4.751   4.360  16.554  0.00  0.00    +0.000 A 
ATOM     17  C   UNL     1       5.532   5.433  16.136  0.00  0.00    +0.000 A 
ATOM     18  C   UNL     1       5.218   6.721  16.559  0.00  0.00    +0.000 A 
ATOM     19  C   UNL     1       4.133   6.923  17.416  0.00  0.00    +0.000 A 
ATOM     20  C   UNL     1       3.347   5.850  17.865  0.00  0.00    +0.000 A 
BRANCH  15  22
ATOM     21  C   UNL     1       3.497   2.232  17.818  0.00  0.00    +0.000 C 
ATOM     22  O   UNL     1       2.851   3.501  17.766  0.00  0.00    +0.000 OA
ENDBRANCH  15  22
BRANCH  17  23
ATOM     23  C   UNL     1       6.648   5.204  15.258  0.00  0.00    +0.000 C 
ATOM     24  N   UNL     1       7.538   5.004  14.550  0.00  0.00    +0.000 NA
ENDBRANCH  17  23
ENDBRANCH  14  20
ENDBRANCH   1  14
TORSDOF 5
ENDMDL
MODEL 7
REMARK VINA RESULT:      -6.7      2.904      4.944
REMARK  Name = 
REMARK  6 active torsions:
REMARK  status: ('A' for Active; 'I' for Inactive)
REMARK    1  A    between atoms: C_1  and  O_2
REMARK    2  A    between atoms: O_2  and  C_3
REMARK    3  A    between atoms: C_5  and  C_6
REMARK    4  A    between atoms: C_10  and  O_11
REMARK    5  A    between atoms: O_11  and  C_12
REMARK    6  A    between atoms: C_12  and  C_13
REMARK                            x       y       z     vdW  Elec       q    Type
REMARK                         _______ _______ _______ _____ _____    ______ ____
ROOT
ATOM      1  C   UNL     1       1.163   8.782  20.537  0.00  0.00    +0.000 C 
ENDROOT
BRANCH   1   2
ATOM      2  C   UNL     1       0.759   9.690  21.706  0.00  0.00    +0.000 C 
ATOM      3  O   UNL     1       1.220   9.527  22.844  0.00  0.00    +0.000 OA
ATOM      4  N   UNL     1      -0.120  10.731  21.405  0.00  0.00    +0.000 N 
ATOM      5  C   UNL     1      -0.697  10.935  20.068  0.00  0.00    +0.000 C 
ATOM      6  C   UNL     1      -1.430  12.267  19.885  0.00  0.00    +0.000 C 
ATOM      7  C   UNL     1      -2.420  12.455  21.001  0.00  0.00    +0.000 A 
ATOM      8  C   UNL     1      -3.676  13.031  20.798  0.00  0.00    +0.000 A 
ATOM      9  C   UNL     1      -4.554  13.183  21.873  0.00  0.00    +0.000 A 
ATOM     10  C   UNL     1      -4.175  12.777  23.153  0.00  0.00    +0.000 A 
ATOM     11  C   UNL     1      -2.913  12.223  23.364  0.00  0.00    +0.000 A 
ATOM     12  C   UNL     1      -2.029  12.054  22.292  0.00  0.00    +0.000 A 
ATOM     13  C   UNL     1      -0.631  11.534  22.515  0.00  0.00    +0.000 C 
ENDBRANCH   1   2
BRANCH   1  14
ATOM     14  O   UNL     1       1.430   7.443  20.929  0.00  0.00    +0.000 OA
BRANCH  14  20
ATOM     15  C   UNL     1       2.468   5.283  20.204  0.00  0.00    +0.000 A 
ATOM     16  C   UNL     1       3.197   4.639  19.188  0.00  0.00    +0.000 A 
ATOM     17  C   UNL     1       3.583   5.323  18.040  0.00  0.00    +0.000 A 
ATOM     18  C   UNL     1       3.227   6.659  17.882  0.00  0.00    +0.000 A 
ATOM     19  C   UNL     1       2.503   7.308  18.886  0.00  0.00    +0.000 A 
ATOM     20  C   UNL     1       2.123   6.638  20.060  0.00  0.00    +0.000 A 
BRANCH  15  22
ATOM     21  C   UNL     1       2.319   3.187  21.282  0.00  0.00    +0.000 C 
ATOM     22  O   UNL     1       2.029   4.582  21.299  0.00  0.00    +0.000 OA
ENDBRANCH  15  22
BRANCH  17  23
ATOM     23  C   UNL     1       4.333   4.640  17.021  0.00  0.00    +0.000 C 
ATOM     24  N   UNL     1       4.932   4.076  16.210  0.00  0.00    +0.000 NA
ENDBRANCH  17  23
ENDBRANCH  14  20
ENDBRANCH   1  14
TORSDOF 5
ENDMDL
MODEL 8
REMARK VINA RESULT:      -6.7      1.624      2.226
REMARK  Name = 
REMARK  6 active torsions:
REMARK  status: ('A' for Active; 'I' for Inactive)
REMARK    1  A    between atoms: C_1  and  O_2
REMARK    2  A    between atoms: O_2  and  C_3
REMARK    3  A    between atoms: C_5  and  C_6
REMARK    4  A    between atoms: C_10  and  O_11
REMARK    5  A    between atoms: O_11  and  C_12
REMARK    6  A    between atoms: C_12  and  C_13
REMARK                            x       y       z     vdW  Elec       q    Type
REMARK                         _______ _______ _______ _____ _____    ______ ____
ROOT
ATOM      1  C   UNL     1       2.432   6.070  18.762  0.00  0.00    +0.000 C 
ENDROOT
BRANCH   1   2
ATOM      2  C   UNL     1       1.951   6.971  19.907  0.00  0.00    +0.000 C 
ATOM      3  O   UNL     1       1.776   6.531  21.051  0.00  0.00    +0.000 OA
ATOM      4  N   UNL     1       1.764   8.319  19.596  0.00  0.00    +0.000 N 
ATOM      5  C   UNL     1       1.946   8.864  18.243  0.00  0.00    +0.000 C 
ATOM      6  C   UNL     1       1.940  10.394  18.164  0.00  0.00    +0.000 C 
ATOM      7  C   UNL     1       0.724  10.930  18.869  0.00  0.00    +0.000 A 
ATOM      8  C   UNL     1       0.008  12.031  18.394  0.00  0.00    +0.000 A 
ATOM      9  C   UNL     1      -1.112  12.487  19.092  0.00  0.00    +0.000 A 
ATOM     10  C   UNL     1      -1.508  11.858  20.272  0.00  0.00    +0.000 A 
ATOM     11  C   UNL     1      -0.782  10.773  20.763  0.00  0.00    +0.000 A 
ATOM     12  C   UNL     1       0.335  10.299  20.065  0.00  0.00    +0.000 A 
ATOM     13  C   UNL     1       1.180   9.181  20.623  0.00  0.00    +0.000 C 
ENDBRANCH   1   2
BRANCH   1  14
ATOM     14  O   UNL     1       3.846   5.951  18.694  0.00  0.00    +0.000 OA
BRANCH  14  20
ATOM     15  C   UNL     1       4.628   4.014  17.315  0.00  0.00    +0.000 A 
ATOM     16  C   UNL     1       5.216   3.630  16.097  0.00  0.00    +0.000 A 
ATOM     17  C   UNL     1       5.575   4.579  15.145  0.00  0.00    +0.000 A 
ATOM     18  C   UNL     1       5.330   5.927  15.389  0.00  0.00    +0.000 A 
ATOM     19  C   UNL     1       4.745   6.318  16.596  0.00  0.00    +0.000 A 
ATOM     20  C   UNL     1       4.396   5.376  17.577  0.00  0.00    +0.000 A 
BRANCH  15  22
ATOM     21  C   UNL     1       3.082   2.299  17.811  0.00  0.00    +0.000 C 
ATOM     22  O   UNL     1       4.211   3.067  18.217  0.00  0.00    +0.000 OA
ENDBRANCH  15  22
BRANCH  17  23
ATOM     23  C   UNL     1       6.182   4.158  13.911  0.00  0.00    +0.000 C 
ATOM     24  N   UNL     1       6.653   3.813  12.915  0.00  0.00    +0.000 NA
ENDBRANCH  17  23
ENDBRANCH  14  20
ENDBRANCH   1  14
TORSDOF 5
ENDMDL
MODEL 9
REMARK VINA RESULT:      -6.6      1.972      3.066
REMARK  Name = 
REMARK  6 active torsions:
REMARK  status: ('A' for Active; 'I' for Inactive)
REMARK    1  A    between atoms: C_1  and  O_2
REMARK    2  A    between atoms: O_2  and  C_3
REMARK    3  A    between atoms: C_5  and  C_6
REMARK    4  A    between atoms: C_10  and  O_11
REMARK    5  A    between atoms: O_11  and  C_12
REMARK    6  A    between atoms: C_12  and  C_13
REMARK                            x       y       z     vdW  Elec       q    Type
REMARK                         _______ _______ _______ _____ _____    ______ ____
ROOT
ATOM      1  C   UNL     1       2.916   6.608  19.283  0.00  0.00    +0.000 C 
ENDROOT
BRANCH   1   2
ATOM      2  C   UNL     1       2.241   7.897  18.795  0.00  0.00    +0.000 C 
ATOM      3  O   UNL     1       2.523   8.403  17.701  0.00  0.00    +0.000 OA
ATOM      4  N   UNL     1       1.264   8.438  19.633  0.00  0.00    +0.000 N 
ATOM      5  C   UNL     1       0.925   7.868  20.944  0.00  0.00    +0.000 C 
ATOM      6  C   UNL     1      -0.336   8.453  21.588  0.00  0.00    +0.000 C 
ATOM      7  C   UNL     1      -0.249   9.955  21.591  0.00  0.00    +0.000 A 
ATOM      8  C   UNL     1      -0.714  10.730  22.656  0.00  0.00    +0.000 A 
ATOM      9  C   UNL     1      -0.611  12.121  22.602  0.00  0.00    +0.000 A 
ATOM     10  C   UNL     1      -0.060  12.741  21.480  0.00  0.00    +0.000 A 
ATOM     11  C   UNL     1       0.384  11.972  20.404  0.00  0.00    +0.000 A 
ATOM     12  C   UNL     1       0.297  10.577  20.453  0.00  0.00    +0.000 A 
ATOM     13  C   UNL     1       0.695   9.734  19.266  0.00  0.00    +0.000 C 
ENDBRANCH   1   2
BRANCH   1  14
ATOM     14  O   UNL     1       4.291   6.526  18.937  0.00  0.00    +0.000 OA
BRANCH  14  20
ATOM     15  C   UNL     1       4.628   4.406  17.650  0.00  0.00    +0.000 A 
ATOM     16  C   UNL     1       5.035   3.856  16.421  0.00  0.00    +0.000 A 
ATOM     17  C   UNL     1       5.451   4.673  15.374  0.00  0.00    +0.000 A 
ATOM     18  C   UNL     1       5.446   6.056  15.535  0.00  0.00    +0.000 A 
ATOM     19  C   UNL     1       5.042   6.610  16.752  0.00  0.00    +0.000 A 
ATOM     20  C   UNL     1       4.639   5.800  17.826  0.00  0.00    +0.000 A 
BRANCH  15  22
ATOM     21  C   UNL     1       3.317   2.526  18.219  0.00  0.00    +0.000 C 
ATOM     22  O   UNL     1       4.151   3.597  18.650  0.00  0.00    +0.000 OA
ENDBRANCH  15  22
BRANCH  17  23
ATOM     23  C   UNL     1       5.869   4.083  14.131  0.00  0.00    +0.000 C 
ATOM     24  N   UNL     1       6.220   3.605  13.140  0.00  0.00    +0.000 NA
ENDBRANCH  17  23
ENDBRANCH  14  20
ENDBRANCH   1  14
TORSDOF 5
ENDMDL
