MODEL 1
REMARK VINA RESULT:      -7.9      0.000      0.000
REMARK  Name = 
REMARK  6 active torsions:
REMARK  status: ('A' for Active; 'I' for Inactive)
REMARK    1  A    between atoms: C_1  and  N_2
REMARK    2  A    between atoms: N_2  and  C_3
REMARK    3  A    between atoms: N_2  and  C_4
REMARK    4  A    between atoms: C_12  and  N_13
REMARK    5  A    between atoms: N_13  and  S_14
REMARK    6  A    between atoms: S_14  and  C_17
REMARK                            x       y       z     vdW  Elec       q    Type
REMARK                         _______ _______ _______ _____ _____    ______ ____
ROOT
ATOM      1  C   UNL     1       2.525   4.329  18.557  0.00  0.00    +0.000 C 
ATOM      2  C   UNL     1       2.992   3.218  17.605  0.00  0.00    +0.000 C 
ATOM      3  C   UNL     1       4.156   3.694  16.736  0.00  0.00    +0.000 C 
ATOM      4  C   UNL     1       5.296   4.277  17.537  0.00  0.00    +0.000 A 
ATOM      5  C   UNL     1       5.047   4.829  18.812  0.00  0.00    +0.000 A 
ATOM      6  C   UNL     1       6.097   5.425  19.534  0.00  0.00    +0.000 A 
ATOM      7  C   UNL     1       7.374   5.505  18.992  0.00  0.00    +0.000 A 
ATOM      8  C   UNL     1       7.613   4.996  17.720  0.00  0.00    +0.000 A 
ATOM      9  C   UNL     1       6.588   4.377  16.992  0.00  0.00    +0.000 A 
ATOM     10  C   UNL     1       3.690   4.765  19.475  0.00  0.00    +0.000 C 
ENDROOT
BRANCH   1  12
ATOM     11  C   UNL     1       0.837   2.572  19.034  0.00  0.00    +0.000 C 
ATOM     12  N   UNL     1       1.273   3.951  19.260  0.00  0.00    +0.000 NA
ATOM     13  C   UNL     1       1.327   4.238  20.693  0.00  0.00    +0.000 C 
ENDBRANCH   1  12
BRANCH   9  14
ATOM     14  N   UNL     1       6.886   3.919  15.674  0.00  0.00    +0.000 N 
ATOM     15  H   UNL     1       6.596   2.970  15.443  0.00  0.00    +0.000 HD
BRANCH  14  16
ATOM     16  S   UNL     1       6.780   4.952  14.340  0.00  0.00    +0.000 S 
ATOM     17  O   UNL     1       5.697   5.894  14.551  0.00  0.00    +0.000 OA
ATOM     18  O   UNL     1       8.130   5.418  14.096  0.00  0.00    +0.000 OA
BRANCH  16  19
ATOM     19  C   UNL     1       6.328   3.901  12.984  0.00  0.00    +0.000 A 
ATOM     20  C   UNL     1       4.974   3.740  12.673  0.00  0.00    +0.000 A 
ATOM     21  C   UNL     1       4.598   2.824  11.693  0.00  0.00    +0.000 A 
ATOM     22  C   UNL     1       5.573   2.092  11.013  0.00  0.00    +0.000 A 
ATOM     23  C   UNL     1       6.928   2.302  11.282  0.00  0.00    +0.000 A 
ATOM     24  C   UNL     1       7.314   3.221  12.261  0.00  0.00    +0.000 A 
ENDBRANCH  16  19
ENDBRANCH  14  16
ENDBRANCH   9  14
TORSDOF 4
ENDMDL
MODEL 2
REMARK VINA RESULT:      -7.6      3.360      5.032
REMARK  Name = 
REMARK  6 active torsions:
REMARK  status: ('A' for Active; 'I' for Inactive)
REMARK    1  A    between atoms: C_1  and  N_2
REMARK    2  A    between atoms: N_2  and  C_3
REMARK    3  A    between atoms: N_2  and  C_4
REMARK    4  A    between atoms: C_12  and  N_13
REMARK    5  A    between atoms: N_13  and  S_14
REMARK    6  A    between atoms: S_14  and  C_17
REMARK                            x       y       z     vdW  Elec       q    Type
REMARK                         _______ _______ _______ _____ _____    ______ ____
ROOT
ATOM      1  C   UNL     1       2.147   7.701  19.686  0.00  0.00    +0.000 C 
ATOM      2  C   UNL     1       2.081   7.852  18.159  0.00  0.00    +0.000 C 
ATOM      3  C   UNL     1       3.230   7.105  17.484  0.00  0.00    +0.000 C 
ATOM      4  C   UNL     1       3.332   5.660  17.912  0.00  0.00    +0.000 A 
ATOM      5  C   UNL     1       2.824   5.262  19.167  0.00  0.00    +0.000 A 
ATOM      6  C   UNL     1       2.970   3.929  19.591  0.00  0.00    +0.000 A 
ATOM      7  C   UNL     1       3.639   3.003  18.800  0.00  0.00    +0.000 A 
ATOM      8  C   UNL     1       4.175   3.401  17.580  0.00  0.00    +0.000 A 
ATOM      9  C   UNL     1       4.020   4.718  17.127  0.00  0.00    +0.000 A 
ATOM     10  C   UNL     1       2.070   6.207  20.076  0.00  0.00    +0.000 C 
ENDROOT
BRANCH   1  12
ATOM     11  C   UNL     1       1.390   8.766  21.797  0.00  0.00    +0.000 C 
ATOM     12  N   UNL     1       1.162   8.582  20.362  0.00  0.00    +0.000 NA
ATOM     13  C   UNL     1       1.024   9.879  19.701  0.00  0.00    +0.000 C 
ENDBRANCH   1  12
BRANCH   9  14
ATOM     14  N   UNL     1       4.634   5.075  15.889  0.00  0.00    +0.000 N 
ATOM     15  H   UNL     1       4.255   5.890  15.409  0.00  0.00    +0.000 HD
BRANCH  14  16
ATOM     16  S   UNL     1       6.303   4.931  15.663  0.00  0.00    +0.000 S 
ATOM     17  O   UNL     1       6.680   3.535  15.767  0.00  0.00    +0.000 OA
ATOM     18  O   UNL     1       6.605   5.693  14.468  0.00  0.00    +0.000 OA
BRANCH  16  19
ATOM     19  C   UNL     1       7.026   5.791  17.037  0.00  0.00    +0.000 A 
ATOM     20  C   UNL     1       7.218   7.173  16.947  0.00  0.00    +0.000 A 
ATOM     21  C   UNL     1       7.894   7.841  17.966  0.00  0.00    +0.000 A 
ATOM     22  C   UNL     1       8.355   7.131  19.077  0.00  0.00    +0.000 A 
ATOM     23  C   UNL     1       8.105   5.762  19.193  0.00  0.00    +0.000 A 
ATOM     24  C   UNL     1       7.424   5.085  18.178  0.00  0.00    +0.000 A 
ENDBRANCH  16  19
ENDBRANCH  14  16
ENDBRANCH   9  14
TORSDOF 4
ENDMDL
MODEL 3
REMARK VINA RESULT:      -7.5      2.657      3.642
REMARK  Name = 
REMARK  6 active torsions:
REMARK  status: ('A' for Active; 'I' for Inactive)
REMARK    1  A    between atoms: C_1  and  N_2
REMARK    2  A    between atoms: N_2  and  C_3
REMARK    3  A    between atoms: N_2  and  C_4
REMARK    4  A    between atoms: C_12  and  N_13
REMARK    5  A    between atoms: N_13  and  S_14
REMARK    6  A    between atoms: S_14  and  C_17
REMARK                            x       y       z     vdW  Elec       q    Type
REMARK                         _______ _______ _______ _____ _____    ______ ____
ROOT
ATOM      1  C   UNL     1       2.074   7.592  19.929  0.00  0.00    +0.000 C 
ATOM      2  C   UNL     1       2.002   7.637  18.395  0.00  0.00    +0.000 C 
ATOM      3  C   UNL     1       3.126   6.814  17.769  0.00  0.00    +0.000 C 
ATOM      4  C   UNL     1       3.193   5.400  18.297  0.00  0.00    +0.000 A 
ATOM      5  C   UNL     1       2.683   5.105  19.580  0.00  0.00    +0.000 A 
ATOM      6  C   UNL     1       2.796   3.802  20.097  0.00  0.00    +0.000 A 
ATOM      7  C   UNL     1       3.435   2.805  19.369  0.00  0.00    +0.000 A 
ATOM      8  C   UNL     1       3.973   3.102  18.121  0.00  0.00    +0.000 A 
ATOM      9  C   UNL     1       3.850   4.387  17.577  0.00  0.00    +0.000 A 
ATOM     10  C   UNL     1       1.960   6.132  20.423  0.00  0.00    +0.000 C 
ENDROOT
BRANCH   1  12
ATOM     11  C   UNL     1       1.484   8.993  21.892  0.00  0.00    +0.000 C 
ATOM     12  N   UNL     1       1.118   8.545  20.547  0.00  0.00    +0.000 NA
ATOM     13  C   UNL     1       0.840   9.696  19.687  0.00  0.00    +0.000 C 
ENDBRANCH   1  12
BRANCH   9  14
ATOM     14  N   UNL     1       4.465   4.640  16.314  0.00  0.00    +0.000 N 
ATOM     15  H   UNL     1       3.887   5.089  15.606  0.00  0.00    +0.000 HD
BRANCH  14  16
ATOM     16  S   UNL     1       6.082   5.122  16.205  0.00  0.00    +0.000 S 
ATOM     17  O   UNL     1       6.162   6.562  16.354  0.00  0.00    +0.000 OA
ATOM     18  O   UNL     1       6.814   4.243  17.094  0.00  0.00    +0.000 OA
BRANCH  16  19
ATOM     19  C   UNL     1       6.566   4.721  14.545  0.00  0.00    +0.000 A 
ATOM     20  C   UNL     1       7.640   5.406  13.969  0.00  0.00    +0.000 A 
ATOM     21  C   UNL     1       7.953   5.190  12.628  0.00  0.00    +0.000 A 
ATOM     22  C   UNL     1       7.208   4.278  11.878  0.00  0.00    +0.000 A 
ATOM     23  C   UNL     1       6.176   3.549  12.475  0.00  0.00    +0.000 A 
ATOM     24  C   UNL     1       5.859   3.756  13.819  0.00  0.00    +0.000 A 
ENDBRANCH  16  19
ENDBRANCH  14  16
ENDBRANCH   9  14
TORSDOF 4
ENDMDL
MODEL 4
REMARK VINA RESULT:      -7.5      0.437      1.101
REMARK  Name = 
REMARK  6 active torsions:
REMARK  status: ('A' for Active; 'I' for Inactive)
REMARK    1  A    between atoms: C_1  and  N_2
REMARK    2  A    between atoms: N_2  and  C_3
REMARK    3  A    between atoms: N_2  and  C_4
REMARK    4  A    between atoms: C_12  and  N_13
REMARK    5  A    between atoms: N_13  and  S_14
REMARK    6  A    between atoms: S_14  and  C_17
REMARK                            x       y       z     vdW  Elec       q    Type
REMARK                         _______ _______ _______ _____ _____    ______ ____
ROOT
ATOM      1  C   UNL     1       2.704   3.900  18.789  0.00  0.00    +0.000 C 
ATOM      2  C   UNL     1       3.283   2.838  17.843  0.00  0.00    +0.000 C 
ATOM      3  C   UNL     1       4.351   3.440  16.932  0.00  0.00    +0.000 C 
ATOM      4  C   UNL     1       5.429   4.180  17.687  0.00  0.00    +0.000 A 
ATOM      5  C   UNL     1       5.147   4.723  18.959  0.00  0.00    +0.000 A 
ATOM      6  C   UNL     1       6.132   5.463  19.639  0.00  0.00    +0.000 A 
ATOM      7  C   UNL     1       7.372   5.694  19.057  0.00  0.00    +0.000 A 
ATOM      8  C   UNL     1       7.639   5.192  17.787  0.00  0.00    +0.000 A 
ATOM      9  C   UNL     1       6.682   4.433  17.102  0.00  0.00    +0.000 A 
ATOM     10  C   UNL     1       3.828   4.501  19.665  0.00  0.00    +0.000 C 
ENDROOT
BRANCH   1  12
ATOM     11  C   UNL     1       0.708   2.424  18.795  0.00  0.00    +0.000 C 
ATOM     12  N   UNL     1       1.530   3.381  19.536  0.00  0.00    +0.000 NA
ATOM     13  C   UNL     1       1.895   2.832  20.842  0.00  0.00    +0.000 C 
ENDBRANCH   1  12
BRANCH   9  14
ATOM     14  N   UNL     1       6.999   3.988  15.783  0.00  0.00    +0.000 N 
ATOM     15  H   UNL     1       6.802   3.012  15.570  0.00  0.00    +0.000 HD
BRANCH  14  16
ATOM     16  S   UNL     1       6.763   4.986  14.440  0.00  0.00    +0.000 S 
ATOM     17  O   UNL     1       5.691   5.921  14.722  0.00  0.00    +0.000 OA
ATOM     18  O   UNL     1       8.080   5.461  14.066  0.00  0.00    +0.000 OA
BRANCH  16  19
ATOM     19  C   UNL     1       6.207   3.896  13.154  0.00  0.00    +0.000 A 
ATOM     20  C   UNL     1       7.149   3.137  12.455  0.00  0.00    +0.000 A 
ATOM     21  C   UNL     1       6.742   2.371  11.364  0.00  0.00    +0.000 A 
ATOM     22  C   UNL     1       5.397   2.351  10.991  0.00  0.00    +0.000 A 
ATOM     23  C   UNL     1       4.449   3.061  11.732  0.00  0.00    +0.000 A 
ATOM     24  C   UNL     1       4.848   3.828  12.829  0.00  0.00    +0.000 A 
ENDBRANCH  16  19
ENDBRANCH  14  16
ENDBRANCH   9  14
TORSDOF 4
ENDMDL
MODEL 5
REMARK VINA RESULT:      -7.5      4.724      6.520
REMARK  Name = 
REMARK  6 active torsions:
REMARK  status: ('A' for Active; 'I' for Inactive)
REMARK    1  A    between atoms: C_1  and  N_2
REMARK    2  A    between atoms: N_2  and  C_3
REMARK    3  A    between atoms: N_2  and  C_4
REMARK    4  A    between atoms: C_12  and  N_13
REMARK    5  A    between atoms: N_13  and  S_14
REMARK    6  A    between atoms: S_14  and  C_17
REMARK                            x       y       z     vdW  Elec       q    Type
REMARK                         _______ _______ _______ _____ _____    ______ ____
ROOT
ATOM      1  C   UNL     1      -0.244   9.801  21.005  0.00  0.00    +0.000 C 
ATOM      2  C   UNL     1       0.687   9.023  21.947  0.00  0.00    +0.000 C 
ATOM      3  C   UNL     1       1.181   7.736  21.288  0.00  0.00    +0.000 C 
ATOM      4  C   UNL     1       1.802   7.963  19.930  0.00  0.00    +0.000 A 
ATOM      5  C   UNL     1       1.429   9.091  19.168  0.00  0.00    +0.000 A 
ATOM      6  C   UNL     1       1.962   9.274  17.879  0.00  0.00    +0.000 A 
ATOM      7  C   UNL     1       2.831   8.337  17.333  0.00  0.00    +0.000 A 
ATOM      8  C   UNL     1       3.172   7.206  18.067  0.00  0.00    +0.000 A 
ATOM      9  C   UNL     1       2.671   7.016  19.361  0.00  0.00    +0.000 A 
ATOM     10  C   UNL     1       0.502  10.162  19.700  0.00  0.00    +0.000 C 
ENDROOT
BRANCH   1  12
ATOM     11  C   UNL     1      -1.108  10.742  23.133  0.00  0.00    +0.000 C 
ATOM     12  N   UNL     1      -0.890  10.943  21.700  0.00  0.00    +0.000 NA
ATOM     13  C   UNL     1      -0.193  12.208  21.466  0.00  0.00    +0.000 C 
ENDBRANCH   1  12
BRANCH   9  14
ATOM     14  N   UNL     1       3.019   5.811  20.043  0.00  0.00    +0.000 N 
ATOM     15  H   UNL     1       2.750   5.746  21.023  0.00  0.00    +0.000 HD
BRANCH  14  16
ATOM     16  S   UNL     1       2.943   4.310  19.268  0.00  0.00    +0.000 S 
ATOM     17  O   UNL     1       3.085   3.256  20.255  0.00  0.00    +0.000 OA
ATOM     18  O   UNL     1       1.778   4.370  18.410  0.00  0.00    +0.000 OA
BRANCH  16  19
ATOM     19  C   UNL     1       4.374   4.266  18.219  0.00  0.00    +0.000 A 
ATOM     20  C   UNL     1       5.620   4.601  18.758  0.00  0.00    +0.000 A 
ATOM     21  C   UNL     1       6.730   4.689  17.919  0.00  0.00    +0.000 A 
ATOM     22  C   UNL     1       6.594   4.423  16.555  0.00  0.00    +0.000 A 
ATOM     23  C   UNL     1       5.361   4.027  16.032  0.00  0.00    +0.000 A 
ATOM     24  C   UNL     1       4.245   3.931  16.867  0.00  0.00    +0.000 A 
ENDBRANCH  16  19
ENDBRANCH  14  16
ENDBRANCH   9  14
TORSDOF 4
ENDMDL
MODEL 6
REMARK VINA RESULT:      -7.5      3.002      3.840
REMARK  Name = 
REMARK  6 active torsions:
REMARK  status: ('A' for Active; 'I' for Inactive)
REMARK    1  A    between atoms: C_1  and  N_2
REMARK    2  A    between atoms: N_2  and  C_3
REMARK    3  A    between atoms: N_2  and  C_4
REMARK    4  A    between atoms: C_12  and  N_13
REMARK    5  A    between atoms: N_13  and  S_14
REMARK    6  A    between atoms: S_14  and  C_17
REMARK                            x       y       z     vdW  Elec       q    Type
REMARK                         _______ _______ _______ _____ _____    ______ ____
ROOT
ATOM      1  C   UNL     1       1.962   8.542  19.512  0.00  0.00    +0.000 C 
ATOM      2  C   UNL     1       1.908   8.328  17.992  0.00  0.00    +0.000 C 
ATOM      3  C   UNL     1       3.052   7.429  17.525  0.00  0.00    +0.000 C 
ATOM      4  C   UNL     1       3.131   6.125  18.283  0.00  0.00    +0.000 A 
ATOM      5  C   UNL     1       2.608   6.041  19.592  0.00  0.00    +0.000 A 
ATOM      6  C   UNL     1       2.733   4.845  20.321  0.00  0.00    +0.000 A 
ATOM      7  C   UNL     1       3.395   3.750  19.778  0.00  0.00    +0.000 A 
ATOM      8  C   UNL     1       3.944   3.842  18.504  0.00  0.00    +0.000 A 
ATOM      9  C   UNL     1       3.811   5.016  17.751  0.00  0.00    +0.000 A 
ATOM     10  C   UNL     1       1.861   7.183  20.244  0.00  0.00    +0.000 C 
ENDROOT
BRANCH   1  12
ATOM     11  C   UNL     1       0.162  10.130  18.877  0.00  0.00    +0.000 C 
ATOM     12  N   UNL     1       0.984   9.570  19.951  0.00  0.00    +0.000 NA
ATOM     13  C   UNL     1       0.137   9.105  21.049  0.00  0.00    +0.000 C 
ENDBRANCH   1  12
BRANCH   9  14
ATOM     14  N   UNL     1       4.439   5.063  16.469  0.00  0.00    +0.000 N 
ATOM     15  H   UNL     1       3.898   5.475  15.711  0.00  0.00    +0.000 HD
BRANCH  14  16
ATOM     16  S   UNL     1       6.091   5.383  16.312  0.00  0.00    +0.000 S 
ATOM     17  O   UNL     1       6.307   6.817  16.364  0.00  0.00    +0.000 OA
ATOM     18  O   UNL     1       6.754   4.500  17.251  0.00  0.00    +0.000 OA
BRANCH  16  19
ATOM     19  C   UNL     1       6.509   4.831  14.678  0.00  0.00    +0.000 A 
ATOM     20  C   UNL     1       7.591   5.423  14.019  0.00  0.00    +0.000 A 
ATOM     21  C   UNL     1       7.855   5.088  12.693  0.00  0.00    +0.000 A 
ATOM     22  C   UNL     1       7.053   4.150  12.039  0.00  0.00    +0.000 A 
ATOM     23  C   UNL     1       6.012   3.514  12.721  0.00  0.00    +0.000 A 
ATOM     24  C   UNL     1       5.744   3.842  14.052  0.00  0.00    +0.000 A 
ENDBRANCH  16  19
ENDBRANCH  14  16
ENDBRANCH   9  14
TORSDOF 4
ENDMDL
MODEL 7
REMARK VINA RESULT:      -7.4      4.786      6.669
REMARK  Name = 
REMARK  6 active torsions:
REMARK  status: ('A' for Active; 'I' for Inactive)
REMARK    1  A    between atoms: C_1  and  N_2
REMARK    2  A    between atoms: N_2  and  C_3
REMARK    3  A    between atoms: N_2  and  C_4
REMARK    4  A    between atoms: C_12  and  N_13
REMARK    5  A    between atoms: N_13  and  S_14
REMARK    6  A    between atoms: S_14  and  C_17
REMARK                            x       y       z     vdW  Elec       q    Type
REMARK                         _______ _______ _______ _____ _____    ______ ____
ROOT
ATOM      1  C   UNL     1      -0.330   9.938  21.070  0.00  0.00    +0.000 C 
ATOM      2  C   UNL     1       0.625   9.184  22.008  0.00  0.00    +0.000 C 
ATOM      3  C   UNL     1       1.109   7.884  21.367  0.00  0.00    +0.000 C 
ATOM      4  C   UNL     1       1.699   8.083  19.991  0.00  0.00    +0.000 A 
ATOM      5  C   UNL     1       1.305   9.193  19.213  0.00  0.00    +0.000 A 
ATOM      6  C   UNL     1       1.809   9.349  17.909  0.00  0.00    +0.000 A 
ATOM      7  C   UNL     1       2.669   8.403  17.364  0.00  0.00    +0.000 A 
ATOM      8  C   UNL     1       3.029   7.289  18.115  0.00  0.00    +0.000 A 
ATOM      9  C   UNL     1       2.558   7.126  19.424  0.00  0.00    +0.000 A 
ATOM     10  C   UNL     1       0.386  10.272  19.741  0.00  0.00    +0.000 C 
ENDROOT
BRANCH   1  12
ATOM     11  C   UNL     1      -1.257  10.878  23.172  0.00  0.00    +0.000 C 
ATOM     12  N   UNL     1      -0.963  11.093  21.754  0.00  0.00    +0.000 NA
ATOM     13  C   UNL     1      -0.209  12.334  21.575  0.00  0.00    +0.000 C 
ENDBRANCH   1  12
BRANCH   9  14
ATOM     14  N   UNL     1       2.926   5.937  20.124  0.00  0.00    +0.000 N 
ATOM     15  H   UNL     1       2.536   5.818  21.058  0.00  0.00    +0.000 HD
BRANCH  14  16
ATOM     16  S   UNL     1       3.096   4.461  19.319  0.00  0.00    +0.000 S 
ATOM     17  O   UNL     1       3.258   3.400  20.295  0.00  0.00    +0.000 OA
ATOM     18  O   UNL     1       2.022   4.417  18.348  0.00  0.00    +0.000 OA
BRANCH  16  19
ATOM     19  C   UNL     1       4.619   4.606  18.419  0.00  0.00    +0.000 A 
ATOM     20  C   UNL     1       4.659   4.196  17.083  0.00  0.00    +0.000 A 
ATOM     21  C   UNL     1       5.874   4.189  16.402  0.00  0.00    +0.000 A 
ATOM     22  C   UNL     1       7.038   4.609  17.050  0.00  0.00    +0.000 A 
ATOM     23  C   UNL     1       6.983   5.077  18.365  0.00  0.00    +0.000 A 
ATOM     24  C   UNL     1       5.768   5.092  19.054  0.00  0.00    +0.000 A 
ENDBRANCH  16  19
ENDBRANCH  14  16
ENDBRANCH   9  14
TORSDOF 4
ENDMDL
MODEL 8
REMARK VINA RESULT:      -7.3      5.188      7.122
REMARK  Name = 
REMARK  6 active torsions:
REMARK  status: ('A' for Active; 'I' for Inactive)
REMARK    1  A    between atoms: C_1  and  N_2
REMARK    2  A    between atoms: N_2  and  C_3
REMARK    3  A    between atoms: N_2  and  C_4
REMARK    4  A    between atoms: C_12  and  N_13
REMARK    5  A    between atoms: N_13  and  S_14
REMARK    6  A    between atoms: S_14  and  C_17
REMARK                            x       y       z     vdW  Elec       q    Type
REMARK                         _______ _______ _______ _____ _____    ______ ____
ROOT
ATOM      1  C   UNL     1       0.086   9.865  19.912  0.00  0.00    +0.000 C 
ATOM      2  C   UNL     1       0.693   9.358  21.228  0.00  0.00    +0.000 C 
ATOM      3  C   UNL     1       1.061   7.878  21.127  0.00  0.00    +0.000 C 
ATOM      4  C   UNL     1       1.935   7.563  19.936  0.00  0.00    +0.000 A 
ATOM      5  C   UNL     1       1.899   8.398  18.799  0.00  0.00    +0.000 A 
ATOM      6  C   UNL     1       2.668   8.074  17.667  0.00  0.00    +0.000 A 
ATOM      7  C   UNL     1       3.442   6.920  17.643  0.00  0.00    +0.000 A 
ATOM      8  C   UNL     1       3.450   6.075  18.748  0.00  0.00    +0.000 A 
ATOM      9  C   UNL     1       2.710   6.391  19.895  0.00  0.00    +0.000 A 
ATOM     10  C   UNL     1       1.095   9.679  18.755  0.00  0.00    +0.000 C 
ENDROOT
BRANCH   1  12
ATOM     11  C   UNL     1       0.338  12.126  20.905  0.00  0.00    +0.000 C 
ATOM     12  N   UNL     1      -0.460  11.238  20.058  0.00  0.00    +0.000 NA
ATOM     13  C   UNL     1      -0.732  11.874  18.769  0.00  0.00    +0.000 C 
ENDBRANCH   1  12
BRANCH   9  14
ATOM     14  N   UNL     1       2.722   5.459  20.976  0.00  0.00    +0.000 N 
ATOM     15  H   UNL     1       2.789   5.849  21.915  0.00  0.00    +0.000 HD
BRANCH  14  16
ATOM     16  S   UNL     1       1.772   4.061  20.942  0.00  0.00    +0.000 S 
ATOM     17  O   UNL     1       1.925   3.349  22.196  0.00  0.00    +0.000 OA
ATOM     18  O   UNL     1       0.465   4.485  20.485  0.00  0.00    +0.000 OA
BRANCH  16  19
ATOM     19  C   UNL     1       2.483   3.059  19.661  0.00  0.00    +0.000 A 
ATOM     20  C   UNL     1       3.675   2.375  19.918  0.00  0.00    +0.000 A 
ATOM     21  C   UNL     1       4.308   1.685  18.886  0.00  0.00    +0.000 A 
ATOM     22  C   UNL     1       3.738   1.663  17.611  0.00  0.00    +0.000 A 
ATOM     23  C   UNL     1       2.515   2.294  17.374  0.00  0.00    +0.000 A 
ATOM     24  C   UNL     1       1.871   2.985  18.404  0.00  0.00    +0.000 A 
ENDBRANCH  16  19
ENDBRANCH  14  16
ENDBRANCH   9  14
TORSDOF 4
ENDMDL
MODEL 9
REMARK VINA RESULT:      -7.3      3.575      6.208
REMARK  Name = 
REMARK  6 active torsions:
REMARK  status: ('A' for Active; 'I' for Inactive)
REMARK    1  A    between atoms: C_1  and  N_2
REMARK    2  A    between atoms: N_2  and  C_3
REMARK    3  A    between atoms: N_2  and  C_4
REMARK    4  A    between atoms: C_12  and  N_13
REMARK    5  A    between atoms: N_13  and  S_14
REMARK    6  A    between atoms: S_14  and  C_17
REMARK                            x       y       z     vdW  Elec       q    Type
REMARK                         _______ _______ _______ _____ _____    ______ ____
ROOT
ATOM      1  C   UNL     1       2.261   7.805  18.479  0.00  0.00    +0.000 C 
ATOM      2  C   UNL     1       2.803   6.852  19.555  0.00  0.00    +0.000 C 
ATOM      3  C   UNL     1       3.167   5.496  18.952  0.00  0.00    +0.000 C 
ATOM      4  C   UNL     1       4.093   5.602  17.764  0.00  0.00    +0.000 A 
ATOM      5  C   UNL     1       4.115   6.785  16.995  0.00  0.00    +0.000 A 
ATOM      6  C   UNL     1       4.935   6.864  15.855  0.00  0.00    +0.000 A 
ATOM      7  C   UNL     1       5.701   5.776  15.457  0.00  0.00    +0.000 A 
ATOM      8  C   UNL     1       5.653   4.595  16.191  0.00  0.00    +0.000 A 
ATOM      9  C   UNL     1       4.862   4.502  17.343  0.00  0.00    +0.000 A 
ATOM     10  C   UNL     1       3.322   8.016  17.374  0.00  0.00    +0.000 C 
ENDROOT
BRANCH   1  12
ATOM     11  C   UNL     1       0.749   9.759  18.241  0.00  0.00    +0.000 C 
ATOM     12  N   UNL     1       1.717   9.049  19.079  0.00  0.00    +0.000 NA
ATOM     13  C   UNL     1       1.168   8.832  20.417  0.00  0.00    +0.000 C 
ENDBRANCH   1  12
BRANCH   9  14
ATOM     14  N   UNL     1       4.817   3.249  18.025  0.00  0.00    +0.000 N 
ATOM     15  H   UNL     1       5.214   3.224  18.963  0.00  0.00    +0.000 HD
BRANCH  14  16
ATOM     16  S   UNL     1       3.489   2.214  17.875  0.00  0.00    +0.000 S 
ATOM     17  O   UNL     1       2.645   2.675  16.788  0.00  0.00    +0.000 OA
ATOM     18  O   UNL     1       4.034   0.872  17.872  0.00  0.00    +0.000 OA
BRANCH  16  19
ATOM     19  C   UNL     1       2.582   2.415  19.387  0.00  0.00    +0.000 A 
ATOM     20  C   UNL     1       1.206   2.659  19.325  0.00  0.00    +0.000 A 
ATOM     21  C   UNL     1       0.504   2.940  20.495  0.00  0.00    +0.000 A 
ATOM     22  C   UNL     1       1.173   2.955  21.721  0.00  0.00    +0.000 A 
ATOM     23  C   UNL     1       2.535   2.649  21.786  0.00  0.00    +0.000 A 
ATOM     24  C   UNL     1       3.245   2.362  20.618  0.00  0.00    +0.000 A 
ENDBRANCH  16  19
ENDBRANCH  14  16
ENDBRANCH   9  14
TORSDOF 4
ENDMDL
