MODEL 1
REMARK VINA RESULT:      -8.6      0.000      0.000
REMARK  Name = 
REMARK  10 active torsions:
REMARK  status: ('A' for Active; 'I' for Inactive)
REMARK    1  A    between atoms: C_1  and  N_2
REMARK    2  A    between atoms: C_4  and  C_5
REMARK    3  A    between atoms: C_8  and  N_9
REMARK    4  A    between atoms: C_10  and  C_11
REMARK    5  A    between atoms: C_14  and  C_15
REMARK    6  A    between atoms: N_17  and  CA_18
REMARK    7  A    between atoms: CA_18  and  C_19
REMARK    8  A    between atoms: CA_18  and  C_21
REMARK    9  A    between atoms: C_19  and  O_20
REMARK   10  A    between atoms: C_32  and  C_33
REMARK                            x       y       z     vdW  Elec       q    Type
REMARK                         _______ _______ _______ _____ _____    ______ ____
ROOT
ATOM      1  C   UNL     1       1.115   9.511  19.063  0.00  0.00    +0.000 A 
ATOM      2  C   UNL     1       1.280   8.662  20.177  0.00  0.00    +0.000 A 
ATOM      3  C   UNL     1       2.006   7.447  20.075  0.00  0.00    +0.000 A 
ATOM      4  C   UNL     1       2.622   7.085  18.867  0.00  0.00    +0.000 A 
ATOM      5  C   UNL     1       2.607   8.024  17.841  0.00  0.00    +0.000 A 
ATOM      6  F   UNL     1       3.303   7.835  16.708  0.00  0.00    +0.000 F 
ATOM      7  C   UNL     1       1.861   9.186  17.924  0.00  0.00    +0.000 A 
ENDROOT
BRANCH   1  12
ATOM      8  C   UNL     1      -1.991  11.685  18.648  0.00  0.00    +0.000 A 
ATOM      9  C   UNL     1      -1.465  12.875  19.137  0.00  0.00    +0.000 A 
ATOM     10  N   UNL     1      -0.183  13.046  19.517  0.00  0.00    +0.000 NA
ATOM     11  C   UNL     1       0.633  11.981  19.427  0.00  0.00    +0.000 A 
ATOM     12  C   UNL     1       0.213  10.690  19.017  0.00  0.00    +0.000 A 
ATOM     13  C   UNL     1      -1.128  10.580  18.601  0.00  0.00    +0.000 A 
BRANCH   8  17
ATOM     14  C   UNL     1      -6.926  12.158  18.520  0.00  0.00    +0.000 C 
ATOM     15  N   UNL     1      -5.562  11.841  18.170  0.00  0.00    +0.000 N 
ATOM     16  C   UNL     1      -4.459  11.994  18.959  0.00  0.00    +0.000 A 
ATOM     17  C   UNL     1      -3.371  11.617  18.193  0.00  0.00    +0.000 A 
ATOM     18  C   UNL     1      -3.941  11.241  16.947  0.00  0.00    +0.000 A 
ATOM     19  N   UNL     1      -5.283  11.373  16.942  0.00  0.00    +0.000 NA
BRANCH  18  20
ATOM     20  C   UNL     1      -3.282  10.795  15.762  0.00  0.00    +0.000 C 
ATOM     21  N   UNL     1      -2.707  10.488  14.791  0.00  0.00    +0.000 NA
ENDBRANCH  18  20
ENDBRANCH   8  17
BRANCH  11  22
ATOM     22  N   UNL     1       1.945  12.257  19.816  0.00  0.00    +0.000 N 
ATOM     23  H   UNL     1       2.066  11.895  20.757  0.00  0.00    +0.000 HD
ATOM     24  H   UNL     1       2.151  13.248  19.755  0.00  0.00    +0.000 HD
ENDBRANCH  11  22
ENDBRANCH   1  12
BRANCH   4  25
ATOM     25  C   UNL     1       3.187   5.705  18.606  0.00  0.00    +0.000 C 
ATOM     26  O   UNL     1       2.440   4.753  18.412  0.00  0.00    +0.000 OA
ATOM     27  N   UNL     1       4.565   5.632  18.543  0.00  0.00    +0.000 N 
ATOM     28  H   UNL     1       5.107   6.470  18.727  0.00  0.00    +0.000 HD
BRANCH  27  29
ATOM     29  CA  UNL     1       5.377   4.481  18.160  0.00  0.00    +0.000 C 
BRANCH  29  30
ATOM     30  C   UNL     1       5.841   4.566  16.705  0.00  0.00    +0.000 A 
ATOM     31  C   UNL     1       7.117   5.076  16.407  0.00  0.00    +0.000 A 
ATOM     32  C   UNL     1       7.573   5.158  15.085  0.00  0.00    +0.000 A 
ATOM     33  C   UNL     1       6.751   4.752  14.036  0.00  0.00    +0.000 A 
ATOM     34  C   UNL     1       5.474   4.288  14.317  0.00  0.00    +0.000 A 
ATOM     35  F   UNL     1       4.669   3.925  13.310  0.00  0.00    +0.000 F 
ATOM     36  C   UNL     1       5.013   4.196  15.629  0.00  0.00    +0.000 A 
ENDBRANCH  29  30
BRANCH  29  37
ATOM     37  C   UNL     1       6.603   4.365  19.111  0.00  0.00    +0.000 C 
BRANCH  37  38
ATOM     38  O   UNL     1       6.765   5.516  19.950  0.00  0.00    +0.000 OA
ATOM     39  H   UNL     1       7.328   6.151  19.472  0.00  0.00    +0.000 HD
ENDBRANCH  37  38
ENDBRANCH  29  37
ENDBRANCH  27  29
ENDBRANCH   4  25
TORSDOF 9
ENDMDL
MODEL 2
REMARK VINA RESULT:      -8.6      3.329     10.433
REMARK  Name = 
REMARK  10 active torsions:
REMARK  status: ('A' for Active; 'I' for Inactive)
REMARK    1  A    between atoms: C_1  and  N_2
REMARK    2  A    between atoms: C_4  and  C_5
REMARK    3  A    between atoms: C_8  and  N_9
REMARK    4  A    between atoms: C_10  and  C_11
REMARK    5  A    between atoms: C_14  and  C_15
REMARK    6  A    between atoms: N_17  and  CA_18
REMARK    7  A    between atoms: CA_18  and  C_19
REMARK    8  A    between atoms: CA_18  and  C_21
REMARK    9  A    between atoms: C_19  and  O_20
REMARK   10  A    between atoms: C_32  and  C_33
REMARK                            x       y       z     vdW  Elec       q    Type
REMARK                         _______ _______ _______ _____ _____    ______ ____
ROOT
ATOM      1  C   UNL     1       2.162   7.104  19.693  0.00  0.00    +0.000 A 
ATOM      2  C   UNL     1       1.558   7.271  20.956  0.00  0.00    +0.000 A 
ATOM      3  C   UNL     1       0.923   8.488  21.312  0.00  0.00    +0.000 A 
ATOM      4  C   UNL     1       0.838   9.544  20.390  0.00  0.00    +0.000 A 
ATOM      5  C   UNL     1       1.270   9.289  19.093  0.00  0.00    +0.000 A 
ATOM      6  F   UNL     1       1.083  10.178  18.105  0.00  0.00    +0.000 F 
ATOM      7  C   UNL     1       1.930   8.120  18.759  0.00  0.00    +0.000 A 
ENDROOT
BRANCH   1  12
ATOM      8  C   UNL     1       4.756   4.958  17.900  0.00  0.00    +0.000 A 
ATOM      9  C   UNL     1       4.719   3.856  18.746  0.00  0.00    +0.000 A 
ATOM     10  N   UNL     1       3.880   3.723  19.793  0.00  0.00    +0.000 NA
ATOM     11  C   UNL     1       3.035   4.740  20.038  0.00  0.00    +0.000 A 
ATOM     12  C   UNL     1       3.017   5.953  19.303  0.00  0.00    +0.000 A 
ATOM     13  C   UNL     1       3.891   6.021  18.202  0.00  0.00    +0.000 A 
BRANCH   8  17
ATOM     14  C   UNL     1       6.685   4.004  13.432  0.00  0.00    +0.000 C 
ATOM     15  N   UNL     1       6.475   4.531  14.759  0.00  0.00    +0.000 N 
ATOM     16  C   UNL     1       5.488   4.180  15.633  0.00  0.00    +0.000 A 
ATOM     17  C   UNL     1       5.646   4.979  16.750  0.00  0.00    +0.000 A 
ATOM     18  C   UNL     1       6.780   5.778  16.443  0.00  0.00    +0.000 A 
ATOM     19  N   UNL     1       7.287   5.494  15.226  0.00  0.00    +0.000 NA
BRANCH  18  20
ATOM     20  C   UNL     1       7.384   6.809  17.224  0.00  0.00    +0.000 C 
ATOM     21  N   UNL     1       7.859   7.698  17.816  0.00  0.00    +0.000 NA
ENDBRANCH  18  20
ENDBRANCH   8  17
BRANCH  11  22
ATOM     22  N   UNL     1       2.189   4.505  21.123  0.00  0.00    +0.000 N 
ATOM     23  H   UNL     1       2.715   3.976  21.811  0.00  0.00    +0.000 HD
ATOM     24  H   UNL     1       1.341   4.028  20.837  0.00  0.00    +0.000 HD
ENDBRANCH  11  22
ENDBRANCH   1  12
BRANCH   4  25
ATOM     25  C   UNL     1       0.413  10.945  20.772  0.00  0.00    +0.000 C 
ATOM     26  O   UNL     1       1.251  11.805  21.019  0.00  0.00    +0.000 OA
ATOM     27  N   UNL     1      -0.949  11.176  20.753  0.00  0.00    +0.000 N 
ATOM     28  H   UNL     1      -1.573  10.403  20.546  0.00  0.00    +0.000 HD
BRANCH  27  29
ATOM     29  CA  UNL     1      -1.636  12.453  20.924  0.00  0.00    +0.000 C 
BRANCH  29  30
ATOM     30  C   UNL     1      -2.976  12.485  20.187  0.00  0.00    +0.000 A 
ATOM     31  C   UNL     1      -4.073  13.154  20.759  0.00  0.00    +0.000 A 
ATOM     32  C   UNL     1      -5.310  13.208  20.104  0.00  0.00    +0.000 A 
ATOM     33  C   UNL     1      -5.477  12.576  18.875  0.00  0.00    +0.000 A 
ATOM     34  C   UNL     1      -4.413  11.878  18.322  0.00  0.00    +0.000 A 
ATOM     35  F   UNL     1      -4.579  11.242  17.154  0.00  0.00    +0.000 F 
ATOM     36  C   UNL     1      -3.176  11.822  18.962  0.00  0.00    +0.000 A 
ENDBRANCH  29  30
BRANCH  29  37
ATOM     37  C   UNL     1      -1.847  12.736  22.438  0.00  0.00    +0.000 C 
BRANCH  37  38
ATOM     38  O   UNL     1      -0.629  12.661  23.191  0.00  0.00    +0.000 OA
ATOM     39  H   UNL     1      -0.565  13.473  23.727  0.00  0.00    +0.000 HD
ENDBRANCH  37  38
ENDBRANCH  29  37
ENDBRANCH  27  29
ENDBRANCH   4  25
TORSDOF 9
ENDMDL
MODEL 3
REMARK VINA RESULT:      -8.5      3.567     10.617
REMARK  Name = 
REMARK  10 active torsions:
REMARK  status: ('A' for Active; 'I' for Inactive)
REMARK    1  A    between atoms: C_1  and  N_2
REMARK    2  A    between atoms: C_4  and  C_5
REMARK    3  A    between atoms: C_8  and  N_9
REMARK    4  A    between atoms: C_10  and  C_11
REMARK    5  A    between atoms: C_14  and  C_15
REMARK    6  A    between atoms: N_17  and  CA_18
REMARK    7  A    between atoms: CA_18  and  C_19
REMARK    8  A    between atoms: CA_18  and  C_21
REMARK    9  A    between atoms: C_19  and  O_20
REMARK   10  A    between atoms: C_32  and  C_33
REMARK                            x       y       z     vdW  Elec       q    Type
REMARK                         _______ _______ _______ _____ _____    ______ ____
ROOT
ATOM      1  C   UNL     1       2.163   7.150  19.710  0.00  0.00    +0.000 A 
ATOM      2  C   UNL     1       1.557   7.321  20.972  0.00  0.00    +0.000 A 
ATOM      3  C   UNL     1       0.940   8.547  21.331  0.00  0.00    +0.000 A 
ATOM      4  C   UNL     1       0.875   9.607  20.413  0.00  0.00    +0.000 A 
ATOM      5  C   UNL     1       1.308   9.352  19.117  0.00  0.00    +0.000 A 
ATOM      6  F   UNL     1       1.140  10.249  18.132  0.00  0.00    +0.000 F 
ATOM      7  C   UNL     1       1.951   8.174  18.780  0.00  0.00    +0.000 A 
ENDROOT
BRANCH   1  12
ATOM      8  C   UNL     1       4.732   4.972  17.918  0.00  0.00    +0.000 A 
ATOM      9  C   UNL     1       4.672   3.866  18.758  0.00  0.00    +0.000 A 
ATOM     10  N   UNL     1       3.827   3.742  19.801  0.00  0.00    +0.000 NA
ATOM     11  C   UNL     1       2.997   4.771  20.047  0.00  0.00    +0.000 A 
ATOM     12  C   UNL     1       3.001   5.988  19.319  0.00  0.00    +0.000 A 
ATOM     13  C   UNL     1       3.882   6.047  18.222  0.00  0.00    +0.000 A 
BRANCH   8  17
ATOM     14  C   UNL     1       6.638   4.055  13.433  0.00  0.00    +0.000 C 
ATOM     15  N   UNL     1       6.445   4.555  14.773  0.00  0.00    +0.000 N 
ATOM     16  C   UNL     1       5.439   4.224  15.633  0.00  0.00    +0.000 A 
ATOM     17  C   UNL     1       5.627   4.985  16.772  0.00  0.00    +0.000 A 
ATOM     18  C   UNL     1       6.796   5.741  16.492  0.00  0.00    +0.000 A 
ATOM     19  N   UNL     1       7.297   5.467  15.270  0.00  0.00    +0.000 NA
BRANCH  18  20
ATOM     20  C   UNL     1       7.442   6.723  17.303  0.00  0.00    +0.000 C 
ATOM     21  N   UNL     1       7.910   7.559  17.972  0.00  0.00    +0.000 NA
ENDBRANCH  18  20
ENDBRANCH   8  17
BRANCH  11  22
ATOM     22  N   UNL     1       2.142   4.544  21.127  0.00  0.00    +0.000 N 
ATOM     23  H   UNL     1       1.938   5.445  21.549  0.00  0.00    +0.000 HD
ATOM     24  H   UNL     1       2.544   3.890  21.790  0.00  0.00    +0.000 HD
ENDBRANCH  11  22
ENDBRANCH   1  12
BRANCH   4  25
ATOM     25  C   UNL     1       0.470  11.014  20.800  0.00  0.00    +0.000 C 
ATOM     26  O   UNL     1       1.321  11.873  21.005  0.00  0.00    +0.000 OA
ATOM     27  N   UNL     1      -0.890  11.249  20.836  0.00  0.00    +0.000 N 
ATOM     28  H   UNL     1      -1.525  10.476  20.662  0.00  0.00    +0.000 HD
BRANCH  27  29
ATOM     29  CA  UNL     1      -1.566  12.530  21.024  0.00  0.00    +0.000 C 
BRANCH  29  30
ATOM     30  C   UNL     1      -2.938  12.557  20.349  0.00  0.00    +0.000 A 
ATOM     31  C   UNL     1      -3.125  11.902  19.118  0.00  0.00    +0.000 A 
ATOM     32  C   UNL     1      -4.373  11.902  18.481  0.00  0.00    +0.000 A 
ATOM     33  C   UNL     1      -5.449  12.576  19.053  0.00  0.00    +0.000 A 
ATOM     34  C   UNL     1      -5.264  13.261  20.245  0.00  0.00    +0.000 A 
ATOM     35  F   UNL     1      -6.288  13.936  20.783  0.00  0.00    +0.000 F 
ATOM     36  C   UNL     1      -4.029  13.262  20.892  0.00  0.00    +0.000 A 
ENDBRANCH  29  30
BRANCH  29  37
ATOM     37  C   UNL     1      -1.706  12.830  22.543  0.00  0.00    +0.000 C 
BRANCH  37  38
ATOM     38  O   UNL     1      -0.443  13.062  23.182  0.00  0.00    +0.000 OA
ATOM     39  H   UNL     1       0.249  12.988  22.499  0.00  0.00    +0.000 HD
ENDBRANCH  37  38
ENDBRANCH  29  37
ENDBRANCH  27  29
ENDBRANCH   4  25
TORSDOF 9
ENDMDL
MODEL 4
REMARK VINA RESULT:      -8.5      3.598     10.476
REMARK  Name = 
REMARK  10 active torsions:
REMARK  status: ('A' for Active; 'I' for Inactive)
REMARK    1  A    between atoms: C_1  and  N_2
REMARK    2  A    between atoms: C_4  and  C_5
REMARK    3  A    between atoms: C_8  and  N_9
REMARK    4  A    between atoms: C_10  and  C_11
REMARK    5  A    between atoms: C_14  and  C_15
REMARK    6  A    between atoms: N_17  and  CA_18
REMARK    7  A    between atoms: CA_18  and  C_19
REMARK    8  A    between atoms: CA_18  and  C_21
REMARK    9  A    between atoms: C_19  and  O_20
REMARK   10  A    between atoms: C_32  and  C_33
REMARK                            x       y       z     vdW  Elec       q    Type
REMARK                         _______ _______ _______ _____ _____    ______ ____
ROOT
ATOM      1  C   UNL     1       2.119   7.464  19.433  0.00  0.00    +0.000 A 
ATOM      2  C   UNL     1       1.917   8.568  18.578  0.00  0.00    +0.000 A 
ATOM      3  C   UNL     1       1.252   9.736  19.031  0.00  0.00    +0.000 A 
ATOM      4  C   UNL     1       0.821   9.839  20.363  0.00  0.00    +0.000 A 
ATOM      5  C   UNL     1       1.198   8.822  21.232  0.00  0.00    +0.000 A 
ATOM      6  F   UNL     1       0.970   8.908  22.553  0.00  0.00    +0.000 F 
ATOM      7  C   UNL     1       1.805   7.663  20.782  0.00  0.00    +0.000 A 
ENDROOT
BRANCH   1  12
ATOM      8  C   UNL     1       4.214   4.742  17.774  0.00  0.00    +0.000 A 
ATOM      9  C   UNL     1       3.629   3.641  18.388  0.00  0.00    +0.000 A 
ATOM     10  N   UNL     1       2.577   3.704  19.229  0.00  0.00    +0.000 NA
ATOM     11  C   UNL     1       2.075   4.922  19.498  0.00  0.00    +0.000 A 
ATOM     12  C   UNL     1       2.619   6.134  19.002  0.00  0.00    +0.000 A 
ATOM     13  C   UNL     1       3.696   6.004  18.103  0.00  0.00    +0.000 A 
BRANCH   8  17
ATOM     14  C   UNL     1       6.675   4.063  13.523  0.00  0.00    +0.000 C 
ATOM     15  N   UNL     1       6.362   4.265  14.917  0.00  0.00    +0.000 N 
ATOM     16  C   UNL     1       5.119   4.295  15.480  0.00  0.00    +0.000 A 
ATOM     17  C   UNL     1       5.301   4.569  16.823  0.00  0.00    +0.000 A 
ATOM     18  C   UNL     1       6.710   4.676  16.965  0.00  0.00    +0.000 A 
ATOM     19  N   UNL     1       7.354   4.481  15.796  0.00  0.00    +0.000 NA
BRANCH  18  20
ATOM     20  C   UNL     1       7.470   4.980  18.135  0.00  0.00    +0.000 C 
ATOM     21  N   UNL     1       8.034   5.247  19.123  0.00  0.00    +0.000 NA
ENDBRANCH  18  20
ENDBRANCH   8  17
BRANCH  11  22
ATOM     22  N   UNL     1       0.974   4.888  20.355  0.00  0.00    +0.000 N 
ATOM     23  H   UNL     1       0.149   4.727  19.786  0.00  0.00    +0.000 HD
ATOM     24  H   UNL     1       0.903   5.738  20.905  0.00  0.00    +0.000 HD
ENDBRANCH  11  22
ENDBRANCH   1  12
BRANCH   4  25
ATOM     25  C   UNL     1      -0.111  10.928  20.850  0.00  0.00    +0.000 C 
ATOM     26  O   UNL     1       0.147  11.559  21.869  0.00  0.00    +0.000 OA
ATOM     27  N   UNL     1      -1.200  11.182  20.039  0.00  0.00    +0.000 N 
ATOM     28  H   UNL     1      -1.342  10.604  19.217  0.00  0.00    +0.000 HD
BRANCH  27  29
ATOM     29  CA  UNL     1      -2.173  12.263  20.170  0.00  0.00    +0.000 C 
BRANCH  29  30
ATOM     30  C   UNL     1      -3.357  12.085  19.217  0.00  0.00    +0.000 A 
ATOM     31  C   UNL     1      -4.642  12.498  19.615  0.00  0.00    +0.000 A 
ATOM     32  C   UNL     1      -5.743  12.357  18.761  0.00  0.00    +0.000 A 
ATOM     33  C   UNL     1      -5.583  11.780  17.504  0.00  0.00    +0.000 A 
ATOM     34  C   UNL     1      -4.328  11.330  17.120  0.00  0.00    +0.000 A 
ATOM     35  F   UNL     1      -4.175  10.746  15.923  0.00  0.00    +0.000 F 
ATOM     36  C   UNL     1      -3.224  11.472  17.958  0.00  0.00    +0.000 A 
ENDBRANCH  29  30
BRANCH  29  37
ATOM     37  C   UNL     1      -2.672  12.344  21.641  0.00  0.00    +0.000 C 
BRANCH  37  38
ATOM     38  O   UNL     1      -2.133  13.469  22.347  0.00  0.00    +0.000 OA
ATOM     39  H   UNL     1      -1.206  13.263  22.564  0.00  0.00    +0.000 HD
ENDBRANCH  37  38
ENDBRANCH  29  37
ENDBRANCH  27  29
ENDBRANCH   4  25
TORSDOF 9
ENDMDL
MODEL 5
REMARK VINA RESULT:      -8.4      0.761      1.102
REMARK  Name = 
REMARK  10 active torsions:
REMARK  status: ('A' for Active; 'I' for Inactive)
REMARK    1  A    between atoms: C_1  and  N_2
REMARK    2  A    between atoms: C_4  and  C_5
REMARK    3  A    between atoms: C_8  and  N_9
REMARK    4  A    between atoms: C_10  and  C_11
REMARK    5  A    between atoms: C_14  and  C_15
REMARK    6  A    between atoms: N_17  and  CA_18
REMARK    7  A    between atoms: CA_18  and  C_19
REMARK    8  A    between atoms: CA_18  and  C_21
REMARK    9  A    between atoms: C_19  and  O_20
REMARK   10  A    between atoms: C_32  and  C_33
REMARK                            x       y       z     vdW  Elec       q    Type
REMARK                         _______ _______ _______ _____ _____    ______ ____
ROOT
ATOM      1  C   UNL     1       1.233   9.522  18.892  0.00  0.00    +0.000 A 
ATOM      2  C   UNL     1       1.352   8.656  19.999  0.00  0.00    +0.000 A 
ATOM      3  C   UNL     1       2.136   7.476  19.928  0.00  0.00    +0.000 A 
ATOM      4  C   UNL     1       2.855   7.167  18.763  0.00  0.00    +0.000 A 
ATOM      5  C   UNL     1       2.875   8.127  17.757  0.00  0.00    +0.000 A 
ATOM      6  F   UNL     1       3.660   7.993  16.676  0.00  0.00    +0.000 F 
ATOM      7  C   UNL     1       2.075   9.255  17.806  0.00  0.00    +0.000 A 
ENDROOT
BRANCH   1  12
ATOM      8  C   UNL     1      -1.953  11.559  18.392  0.00  0.00    +0.000 A 
ATOM      9  C   UNL     1      -1.476  12.785  18.839  0.00  0.00    +0.000 A 
ATOM     10  N   UNL     1      -0.202  13.018  19.216  0.00  0.00    +0.000 NA
ATOM     11  C   UNL     1       0.655  11.984  19.166  0.00  0.00    +0.000 A 
ATOM     12  C   UNL     1       0.287  10.663  18.802  0.00  0.00    +0.000 A 
ATOM     13  C   UNL     1      -1.047  10.487  18.387  0.00  0.00    +0.000 A 
BRANCH   8  17
ATOM     14  C   UNL     1      -6.906  11.774  18.264  0.00  0.00    +0.000 C 
ATOM     15  N   UNL     1      -5.527  11.531  17.914  0.00  0.00    +0.000 N 
ATOM     16  C   UNL     1      -4.433  11.737  18.703  0.00  0.00    +0.000 A 
ATOM     17  C   UNL     1      -3.327  11.421  17.936  0.00  0.00    +0.000 A 
ATOM     18  C   UNL     1      -3.877  11.021  16.689  0.00  0.00    +0.000 A 
ATOM     19  N   UNL     1      -5.224  11.083  16.684  0.00  0.00    +0.000 NA
BRANCH  18  20
ATOM     20  C   UNL     1      -3.196  10.615  15.502  0.00  0.00    +0.000 C 
ATOM     21  N   UNL     1      -2.690  10.240  14.517  0.00  0.00    +0.000 NA
ENDBRANCH  18  20
ENDBRANCH   8  17
BRANCH  11  22
ATOM     22  N   UNL     1       1.953  12.324  19.548  0.00  0.00    +0.000 N 
ATOM     23  H   UNL     1       1.882  13.001  20.301  0.00  0.00    +0.000 HD
ATOM     24  H   UNL     1       2.493  12.675  18.764  0.00  0.00    +0.000 HD
ENDBRANCH  11  22
ENDBRANCH   1  12
BRANCH   4  25
ATOM     25  C   UNL     1       3.497   5.818  18.519  0.00  0.00    +0.000 C 
ATOM     26  O   UNL     1       2.805   4.817  18.370  0.00  0.00    +0.000 OA
ATOM     27  N   UNL     1       4.874   5.829  18.417  0.00  0.00    +0.000 N 
ATOM     28  H   UNL     1       5.369   6.702  18.564  0.00  0.00    +0.000 HD
BRANCH  27  29
ATOM     29  CA  UNL     1       5.746   4.720  18.038  0.00  0.00    +0.000 C 
BRANCH  29  30
ATOM     30  C   UNL     1       5.875   4.587  16.519  0.00  0.00    +0.000 A 
ATOM     31  C   UNL     1       4.895   3.886  15.794  0.00  0.00    +0.000 A 
ATOM     32  C   UNL     1       4.980   3.755  14.402  0.00  0.00    +0.000 A 
ATOM     33  C   UNL     1       6.059   4.305  13.714  0.00  0.00    +0.000 A 
ATOM     34  C   UNL     1       7.053   4.962  14.426  0.00  0.00    +0.000 A 
ATOM     35  F   UNL     1       8.108   5.465  13.772  0.00  0.00    +0.000 F 
ATOM     36  C   UNL     1       6.975   5.103  15.810  0.00  0.00    +0.000 A 
ENDBRANCH  29  30
BRANCH  29  37
ATOM     37  C   UNL     1       7.148   4.911  18.683  0.00  0.00    +0.000 C 
BRANCH  37  38
ATOM     38  O   UNL     1       7.077   5.248  20.075  0.00  0.00    +0.000 OA
ATOM     39  H   UNL     1       7.930   5.007  20.479  0.00  0.00    +0.000 HD
ENDBRANCH  37  38
ENDBRANCH  29  37
ENDBRANCH  27  29
ENDBRANCH   4  25
TORSDOF 9
ENDMDL
MODEL 6
REMARK VINA RESULT:      -8.3      1.465      1.699
REMARK  Name = 
REMARK  10 active torsions:
REMARK  status: ('A' for Active; 'I' for Inactive)
REMARK    1  A    between atoms: C_1  and  N_2
REMARK    2  A    between atoms: C_4  and  C_5
REMARK    3  A    between atoms: C_8  and  N_9
REMARK    4  A    between atoms: C_10  and  C_11
REMARK    5  A    between atoms: C_14  and  C_15
REMARK    6  A    between atoms: N_17  and  CA_18
REMARK    7  A    between atoms: CA_18  and  C_19
REMARK    8  A    between atoms: CA_18  and  C_21
REMARK    9  A    between atoms: C_19  and  O_20
REMARK   10  A    between atoms: C_32  and  C_33
REMARK                            x       y       z     vdW  Elec       q    Type
REMARK                         _______ _______ _______ _____ _____    ______ ____
ROOT
ATOM      1  C   UNL     1       0.543   9.670  19.945  0.00  0.00    +0.000 A 
ATOM      2  C   UNL     1       0.597   8.881  21.112  0.00  0.00    +0.000 A 
ATOM      3  C   UNL     1       1.276   7.636  21.127  0.00  0.00    +0.000 A 
ATOM      4  C   UNL     1       1.955   7.181  19.986  0.00  0.00    +0.000 A 
ATOM      5  C   UNL     1       2.048   8.059  18.912  0.00  0.00    +0.000 A 
ATOM      6  F   UNL     1       2.809   7.778  17.842  0.00  0.00    +0.000 F 
ATOM      7  C   UNL     1       1.349   9.252  18.879  0.00  0.00    +0.000 A 
ENDROOT
BRANCH   1  12
ATOM      8  C   UNL     1      -2.422  11.939  19.163  0.00  0.00    +0.000 A 
ATOM      9  C   UNL     1      -1.896  13.127  19.656  0.00  0.00    +0.000 A 
ATOM     10  N   UNL     1      -0.648  13.266  20.147  0.00  0.00    +0.000 NA
ATOM     11  C   UNL     1       0.129  12.169  20.173  0.00  0.00    +0.000 A 
ATOM     12  C   UNL     1      -0.303  10.879  19.772  0.00  0.00    +0.000 A 
ATOM     13  C   UNL     1      -1.603  10.802  19.238  0.00  0.00    +0.000 A 
BRANCH   8  17
ATOM     14  C   UNL     1      -7.316  12.505  18.597  0.00  0.00    +0.000 C 
ATOM     15  N   UNL     1      -5.931  12.168  18.367  0.00  0.00    +0.000 N 
ATOM     16  C   UNL     1      -4.902  12.289  19.255  0.00  0.00    +0.000 A 
ATOM     17  C   UNL     1      -3.756  11.903  18.584  0.00  0.00    +0.000 A 
ATOM     18  C   UNL     1      -4.217  11.556  17.287  0.00  0.00    +0.000 A 
ATOM     19  N   UNL     1      -5.551  11.713  17.163  0.00  0.00    +0.000 NA
BRANCH  18  20
ATOM     20  C   UNL     1      -3.461  11.115  16.158  0.00  0.00    +0.000 C 
ATOM     21  N   UNL     1      -2.869  10.691  15.244  0.00  0.00    +0.000 NA
ENDBRANCH  18  20
ENDBRANCH   8  17
BRANCH  11  22
ATOM     22  N   UNL     1       1.410  12.412  20.672  0.00  0.00    +0.000 N 
ATOM     23  H   UNL     1       1.994  11.625  20.408  0.00  0.00    +0.000 HD
ATOM     24  H   UNL     1       1.396  12.563  21.675  0.00  0.00    +0.000 HD
ENDBRANCH  11  22
ENDBRANCH   1  12
BRANCH   4  25
ATOM     25  C   UNL     1       2.477   5.767  19.841  0.00  0.00    +0.000 C 
ATOM     26  O   UNL     1       1.942   4.841  20.441  0.00  0.00    +0.000 OA
ATOM     27  N   UNL     1       3.526   5.612  18.956  0.00  0.00    +0.000 N 
ATOM     28  H   UNL     1       3.914   6.435  18.509  0.00  0.00    +0.000 HD
BRANCH  27  29
ATOM     29  CA  UNL     1       4.127   4.361  18.502  0.00  0.00    +0.000 C 
BRANCH  29  30
ATOM     30  C   UNL     1       5.134   4.587  17.373  0.00  0.00    +0.000 A 
ATOM     31  C   UNL     1       5.147   3.721  16.264  0.00  0.00    +0.000 A 
ATOM     32  C   UNL     1       6.051   3.908  15.210  0.00  0.00    +0.000 A 
ATOM     33  C   UNL     1       6.972   4.952  15.258  0.00  0.00    +0.000 A 
ATOM     34  C   UNL     1       6.994   5.786  16.366  0.00  0.00    +0.000 A 
ATOM     35  F   UNL     1       7.899   6.773  16.430  0.00  0.00    +0.000 F 
ATOM     36  C   UNL     1       6.096   5.613  17.417  0.00  0.00    +0.000 A 
ENDBRANCH  29  30
BRANCH  29  37
ATOM     37  C   UNL     1       4.812   3.643  19.699  0.00  0.00    +0.000 C 
BRANCH  37  38
ATOM     38  O   UNL     1       4.925   2.227  19.506  0.00  0.00    +0.000 OA
ATOM     39  H   UNL     1       5.510   1.881  20.205  0.00  0.00    +0.000 HD
ENDBRANCH  37  38
ENDBRANCH  29  37
ENDBRANCH  27  29
ENDBRANCH   4  25
TORSDOF 9
ENDMDL
MODEL 7
REMARK VINA RESULT:      -8.3      3.824     10.744
REMARK  Name = 
REMARK  10 active torsions:
REMARK  status: ('A' for Active; 'I' for Inactive)
REMARK    1  A    between atoms: C_1  and  N_2
REMARK    2  A    between atoms: C_4  and  C_5
REMARK    3  A    between atoms: C_8  and  N_9
REMARK    4  A    between atoms: C_10  and  C_11
REMARK    5  A    between atoms: C_14  and  C_15
REMARK    6  A    between atoms: N_17  and  CA_18
REMARK    7  A    between atoms: CA_18  and  C_19
REMARK    8  A    between atoms: CA_18  and  C_21
REMARK    9  A    between atoms: C_19  and  O_20
REMARK   10  A    between atoms: C_32  and  C_33
REMARK                            x       y       z     vdW  Elec       q    Type
REMARK                         _______ _______ _______ _____ _____    ______ ____
ROOT
ATOM      1  C   UNL     1       2.120   7.220  19.663  0.00  0.00    +0.000 A 
ATOM      2  C   UNL     1       1.511   7.408  20.921  0.00  0.00    +0.000 A 
ATOM      3  C   UNL     1       0.889   8.637  21.260  0.00  0.00    +0.000 A 
ATOM      4  C   UNL     1       0.823   9.684  20.327  0.00  0.00    +0.000 A 
ATOM      5  C   UNL     1       1.259   9.410  19.035  0.00  0.00    +0.000 A 
ATOM      6  F   UNL     1       1.090  10.292  18.037  0.00  0.00    +0.000 F 
ATOM      7  C   UNL     1       1.907   8.230  18.717  0.00  0.00    +0.000 A 
ENDROOT
BRANCH   1  12
ATOM      8  C   UNL     1       4.707   5.028  17.917  0.00  0.00    +0.000 A 
ATOM      9  C   UNL     1       4.640   3.929  18.767  0.00  0.00    +0.000 A 
ATOM     10  N   UNL     1       3.784   3.814  19.802  0.00  0.00    +0.000 NA
ATOM     11  C   UNL     1       2.951   4.845  20.031  0.00  0.00    +0.000 A 
ATOM     12  C   UNL     1       2.962   6.055  19.291  0.00  0.00    +0.000 A 
ATOM     13  C   UNL     1       3.854   6.105  18.203  0.00  0.00    +0.000 A 
BRANCH   8  17
ATOM     14  C   UNL     1       6.679   4.038  13.477  0.00  0.00    +0.000 C 
ATOM     15  N   UNL     1       6.462   4.568  14.802  0.00  0.00    +0.000 N 
ATOM     16  C   UNL     1       5.454   4.237  15.660  0.00  0.00    +0.000 A 
ATOM     17  C   UNL     1       5.614   5.030  16.781  0.00  0.00    +0.000 A 
ATOM     18  C   UNL     1       6.771   5.803  16.493  0.00  0.00    +0.000 A 
ATOM     19  N   UNL     1       7.290   5.510  15.284  0.00  0.00    +0.000 NA
BRANCH  18  20
ATOM     20  C   UNL     1       7.387   6.818  17.286  0.00  0.00    +0.000 C 
ATOM     21  N   UNL     1       7.946   7.608  17.942  0.00  0.00    +0.000 NA
ENDBRANCH  18  20
ENDBRANCH   8  17
BRANCH  11  22
ATOM     22  N   UNL     1       2.085   4.627  21.103  0.00  0.00    +0.000 N 
ATOM     23  H   UNL     1       2.540   3.976  21.735  0.00  0.00    +0.000 HD
ATOM     24  H   UNL     1       1.180   4.292  20.790  0.00  0.00    +0.000 HD
ENDBRANCH  11  22
ENDBRANCH   1  12
BRANCH   4  25
ATOM     25  C   UNL     1       0.413  11.095  20.692  0.00  0.00    +0.000 C 
ATOM     26  O   UNL     1       1.180  11.827  21.307  0.00  0.00    +0.000 OA
ATOM     27  N   UNL     1      -0.828  11.488  20.230  0.00  0.00    +0.000 N 
ATOM     28  H   UNL     1      -1.402  10.813  19.736  0.00  0.00    +0.000 HD
BRANCH  27  29
ATOM     29  CA  UNL     1      -1.418  12.823  20.293  0.00  0.00    +0.000 C 
BRANCH  29  30
ATOM     30  C   UNL     1      -1.846  13.192  21.715  0.00  0.00    +0.000 A 
ATOM     31  C   UNL     1      -1.231  14.273  22.371  0.00  0.00    +0.000 A 
ATOM     32  C   UNL     1      -1.609  14.641  23.669  0.00  0.00    +0.000 A 
ATOM     33  C   UNL     1      -2.592  13.919  24.341  0.00  0.00    +0.000 A 
ATOM     34  C   UNL     1      -3.174  12.825  23.718  0.00  0.00    +0.000 A 
ATOM     35  F   UNL     1      -4.099  12.109  24.372  0.00  0.00    +0.000 F 
ATOM     36  C   UNL     1      -2.811  12.454  22.424  0.00  0.00    +0.000 A 
ENDBRANCH  29  30
BRANCH  29  37
ATOM     37  C   UNL     1      -0.406  13.870  19.746  0.00  0.00    +0.000 C 
BRANCH  37  38
ATOM     38  O   UNL     1      -0.665  14.231  18.383  0.00  0.00    +0.000 OA
ATOM     39  H   UNL     1      -0.209  13.583  17.816  0.00  0.00    +0.000 HD
ENDBRANCH  37  38
ENDBRANCH  29  37
ENDBRANCH  27  29
ENDBRANCH   4  25
TORSDOF 9
ENDMDL
MODEL 8
REMARK VINA RESULT:      -8.2      1.428      2.219
REMARK  Name = 
REMARK  10 active torsions:
REMARK  status: ('A' for Active; 'I' for Inactive)
REMARK    1  A    between atoms: C_1  and  N_2
REMARK    2  A    between atoms: C_4  and  C_5
REMARK    3  A    between atoms: C_8  and  N_9
REMARK    4  A    between atoms: C_10  and  C_11
REMARK    5  A    between atoms: C_14  and  C_15
REMARK    6  A    between atoms: N_17  and  CA_18
REMARK    7  A    between atoms: CA_18  and  C_19
REMARK    8  A    between atoms: CA_18  and  C_21
REMARK    9  A    between atoms: C_19  and  O_20
REMARK   10  A    between atoms: C_32  and  C_33
REMARK                            x       y       z     vdW  Elec       q    Type
REMARK                         _______ _______ _______ _____ _____    ______ ____
ROOT
ATOM      1  C   UNL     1       0.924   9.788  19.438  0.00  0.00    +0.000 A 
ATOM      2  C   UNL     1       1.065   9.035  20.622  0.00  0.00    +0.000 A 
ATOM      3  C   UNL     1       1.684   7.759  20.612  0.00  0.00    +0.000 A 
ATOM      4  C   UNL     1       2.217   7.235  19.424  0.00  0.00    +0.000 A 
ATOM      5  C   UNL     1       2.236   8.072  18.314  0.00  0.00    +0.000 A 
ATOM      6  F   UNL     1       2.865   7.720  17.182  0.00  0.00    +0.000 F 
ATOM      7  C   UNL     1       1.592   9.296  18.311  0.00  0.00    +0.000 A 
ENDROOT
BRANCH   1  12
ATOM      8  C   UNL     1      -2.024  12.208  19.359  0.00  0.00    +0.000 A 
ATOM      9  C   UNL     1      -1.303  13.393  19.259  0.00  0.00    +0.000 A 
ATOM     10  N   UNL     1       0.038  13.465  19.143  0.00  0.00    +0.000 NA
ATOM     11  C   UNL     1       0.720  12.306  19.141  0.00  0.00    +0.000 A 
ATOM     12  C   UNL     1       0.121  11.031  19.310  0.00  0.00    +0.000 A 
ATOM     13  C   UNL     1      -1.285  11.016  19.393  0.00  0.00    +0.000 A 
BRANCH   8  17
ATOM     14  C   UNL     1      -6.775  11.497  18.130  0.00  0.00    +0.000 C 
ATOM     15  N   UNL     1      -5.576  11.895  18.829  0.00  0.00    +0.000 N 
ATOM     16  C   UNL     1      -4.291  11.764  18.389  0.00  0.00    +0.000 A 
ATOM     17  C   UNL     1      -3.477  12.227  19.406  0.00  0.00    +0.000 A 
ATOM     18  C   UNL     1      -4.387  12.627  20.421  0.00  0.00    +0.000 A 
ATOM     19  N   UNL     1      -5.671  12.429  20.058  0.00  0.00    +0.000 NA
BRANCH  18  20
ATOM     20  C   UNL     1      -4.105  13.155  21.716  0.00  0.00    +0.000 C 
ATOM     21  N   UNL     1      -3.858  13.647  22.748  0.00  0.00    +0.000 NA
ENDBRANCH  18  20
ENDBRANCH   8  17
BRANCH  11  22
ATOM     22  N   UNL     1       2.097  12.475  18.991  0.00  0.00    +0.000 N 
ATOM     23  H   UNL     1       2.537  11.582  19.186  0.00  0.00    +0.000 HD
ATOM     24  H   UNL     1       2.448  13.217  19.587  0.00  0.00    +0.000 HD
ENDBRANCH  11  22
ENDBRANCH   1  12
BRANCH   4  25
ATOM     25  C   UNL     1       2.655   5.793  19.278  0.00  0.00    +0.000 C 
ATOM     26  O   UNL     1       1.934   4.880  19.666  0.00  0.00    +0.000 OA
ATOM     27  N   UNL     1       3.862   5.604  18.634  0.00  0.00    +0.000 N 
ATOM     28  H   UNL     1       4.400   6.418  18.355  0.00  0.00    +0.000 HD
BRANCH  27  29
ATOM     29  CA  UNL     1       4.459   4.338  18.218  0.00  0.00    +0.000 C 
BRANCH  29  30
ATOM     30  C   UNL     1       5.304   4.492  16.953  0.00  0.00    +0.000 A 
ATOM     31  C   UNL     1       6.603   5.025  17.040  0.00  0.00    +0.000 A 
ATOM     32  C   UNL     1       7.404   5.169  15.901  0.00  0.00    +0.000 A 
ATOM     33  C   UNL     1       6.912   4.803  14.650  0.00  0.00    +0.000 A 
ATOM     34  C   UNL     1       5.617   4.316  14.548  0.00  0.00    +0.000 A 
ATOM     35  F   UNL     1       5.128   3.991  13.343  0.00  0.00    +0.000 F 
ATOM     36  C   UNL     1       4.813   4.162  15.676  0.00  0.00    +0.000 A 
ENDBRANCH  29  30
BRANCH  29  37
ATOM     37  C   UNL     1       5.321   3.759  19.376  0.00  0.00    +0.000 C 
BRANCH  37  38
ATOM     38  O   UNL     1       5.021   2.386  19.660  0.00  0.00    +0.000 OA
ATOM     39  H   UNL     1       4.353   2.373  20.370  0.00  0.00    +0.000 HD
ENDBRANCH  37  38
ENDBRANCH  29  37
ENDBRANCH  27  29
ENDBRANCH   4  25
TORSDOF 9
ENDMDL
MODEL 9
REMARK VINA RESULT:      -8.2      3.906      9.928
REMARK  Name = 
REMARK  10 active torsions:
REMARK  status: ('A' for Active; 'I' for Inactive)
REMARK    1  A    between atoms: C_1  and  N_2
REMARK    2  A    between atoms: C_4  and  C_5
REMARK    3  A    between atoms: C_8  and  N_9
REMARK    4  A    between atoms: C_10  and  C_11
REMARK    5  A    between atoms: C_14  and  C_15
REMARK    6  A    between atoms: N_17  and  CA_18
REMARK    7  A    between atoms: CA_18  and  C_19
REMARK    8  A    between atoms: CA_18  and  C_21
REMARK    9  A    between atoms: C_19  and  O_20
REMARK   10  A    between atoms: C_32  and  C_33
REMARK                            x       y       z     vdW  Elec       q    Type
REMARK                         _______ _______ _______ _____ _____    ______ ____
ROOT
ATOM      1  C   UNL     1       1.899   7.126  19.572  0.00  0.00    +0.000 A 
ATOM      2  C   UNL     1       1.456   7.386  20.885  0.00  0.00    +0.000 A 
ATOM      3  C   UNL     1       0.996   8.673  21.264  0.00  0.00    +0.000 A 
ATOM      4  C   UNL     1       0.924   9.710  20.321  0.00  0.00    +0.000 A 
ATOM      5  C   UNL     1       1.184   9.381  18.995  0.00  0.00    +0.000 A 
ATOM      6  F   UNL     1       0.987  10.263  18.002  0.00  0.00    +0.000 F 
ATOM      7  C   UNL     1       1.676   8.140  18.633  0.00  0.00    +0.000 A 
ENDROOT
BRANCH   1  12
ATOM      8  C   UNL     1       4.376   4.732  17.933  0.00  0.00    +0.000 A 
ATOM      9  C   UNL     1       3.921   3.552  18.510  0.00  0.00    +0.000 A 
ATOM     10  N   UNL     1       2.846   3.461  19.319  0.00  0.00    +0.000 NA
ATOM     11  C   UNL     1       2.183   4.598  19.593  0.00  0.00    +0.000 A 
ATOM     12  C   UNL     1       2.579   5.880  19.134  0.00  0.00    +0.000 A 
ATOM     13  C   UNL     1       3.689   5.909  18.267  0.00  0.00    +0.000 A 
BRANCH   8  17
ATOM     14  C   UNL     1       7.015   4.642  13.736  0.00  0.00    +0.000 C 
ATOM     15  N   UNL     1       6.643   4.678  15.130  0.00  0.00    +0.000 N 
ATOM     16  C   UNL     1       5.382   4.580  15.643  0.00  0.00    +0.000 A 
ATOM     17  C   UNL     1       5.502   4.721  17.013  0.00  0.00    +0.000 A 
ATOM     18  C   UNL     1       6.897   4.890  17.221  0.00  0.00    +0.000 A 
ATOM     19  N   UNL     1       7.591   4.855  16.065  0.00  0.00    +0.000 NA
BRANCH  18  20
ATOM     20  C   UNL     1       7.598   5.111  18.445  0.00  0.00    +0.000 C 
ATOM     21  N   UNL     1       8.230   5.286  19.413  0.00  0.00    +0.000 NA
ENDBRANCH  18  20
ENDBRANCH   8  17
BRANCH  11  22
ATOM     22  N   UNL     1       1.072   4.405  20.415  0.00  0.00    +0.000 N 
ATOM     23  H   UNL     1       0.640   3.527  20.142  0.00  0.00    +0.000 HD
ATOM     24  H   UNL     1       0.427   5.185  20.360  0.00  0.00    +0.000 HD
ENDBRANCH  11  22
ENDBRANCH   1  12
BRANCH   4  25
ATOM     25  C   UNL     1       0.693  11.158  20.698  0.00  0.00    +0.000 C 
ATOM     26  O   UNL     1       0.558  11.482  21.873  0.00  0.00    +0.000 OA
ATOM     27  N   UNL     1       0.715  12.054  19.647  0.00  0.00    +0.000 N 
ATOM     28  H   UNL     1       0.823  11.697  18.703  0.00  0.00    +0.000 HD
BRANCH  27  29
ATOM     29  CA  UNL     1       0.676  13.512  19.720  0.00  0.00    +0.000 C 
BRANCH  29  30
ATOM     30  C   UNL     1       2.044  14.136  19.442  0.00  0.00    +0.000 A 
ATOM     31  C   UNL     1       2.983  14.252  20.483  0.00  0.00    +0.000 A 
ATOM     32  C   UNL     1       4.248  14.811  20.257  0.00  0.00    +0.000 A 
ATOM     33  C   UNL     1       4.587  15.283  18.991  0.00  0.00    +0.000 A 
ATOM     34  C   UNL     1       3.652  15.211  17.969  0.00  0.00    +0.000 A 
ATOM     35  F   UNL     1       3.962  15.692  16.757  0.00  0.00    +0.000 F 
ATOM     36  C   UNL     1       2.393  14.652  18.180  0.00  0.00    +0.000 A 
ENDBRANCH  29  30
BRANCH  29  37
ATOM     37  C   UNL     1      -0.380  14.058  18.718  0.00  0.00    +0.000 C 
BRANCH  37  38
ATOM     38  O   UNL     1      -0.763  13.090  17.731  0.00  0.00    +0.000 OA
ATOM     39  H   UNL     1      -0.870  13.561  16.885  0.00  0.00    +0.000 HD
ENDBRANCH  37  38
ENDBRANCH  29  37
ENDBRANCH  27  29
ENDBRANCH   4  25
TORSDOF 9
ENDMDL
