MODEL 1
REMARK VINA RESULT:      -7.5      0.000      0.000
REMARK  Name = 
REMARK  5 active torsions:
REMARK  status: ('A' for Active; 'I' for Inactive)
REMARK    1  A    between atoms: C_1  and  C_2
REMARK    2  A    between atoms: C_5  and  S_6
REMARK    3  A    between atoms: S_6  and  N_9
REMARK    4  A    between atoms: N_9  and  C_10
REMARK    5  A    between atoms: N_12  and  C_13
REMARK                            x       y       z     vdW  Elec       q    Type
REMARK                         _______ _______ _______ _____ _____    ______ ____
ROOT
ATOM      1  C   UNL     1       2.203   4.564  19.965  0.00  0.00    +0.000 C 
ATOM      2  O   UNL     1       1.273   4.394  19.182  0.00  0.00    +0.000 OA
ATOM      3  N   UNL     1       2.642   5.826  20.345  0.00  0.00    +0.000 N 
ATOM      4  H   UNL     1       3.479   5.834  20.912  0.00  0.00    +0.000 HD
ENDROOT
BRANCH   3   5
ATOM      5  C   UNL     1       2.140   7.071  19.889  0.00  0.00    +0.000 A 
ATOM      6  C   UNL     1       2.381   7.573  18.610  0.00  0.00    +0.000 A 
ATOM      7  C   UNL     1       1.932   8.843  18.230  0.00  0.00    +0.000 A 
ATOM      8  C   UNL     1       1.210   9.627  19.125  0.00  0.00    +0.000 A 
ATOM      9 CL   UNL     1       0.732  11.206  18.610  0.00  0.00    +0.000 Cl
ATOM     10  C   UNL     1       0.908   9.117  20.391  0.00  0.00    +0.000 A 
ATOM     11 CL   UNL     1       0.012  10.034  21.556  0.00  0.00    +0.000 Cl
ATOM     12  C   UNL     1       1.351   7.839  20.764  0.00  0.00    +0.000 A 
ENDBRANCH   3   5
BRANCH   1  13
ATOM     13  N   UNL     1       2.939   3.609  20.536  0.00  0.00    +0.000 NA
BRANCH  13  14
ATOM     14  S   UNL     1       3.934   2.797  19.605  0.00  0.00    +0.000 S 
ATOM     15  O   UNL     1       3.309   1.839  18.681  0.00  0.00    +0.000 OA
ATOM     16  O   UNL     1       5.138   2.188  20.170  0.00  0.00    +0.000 OA
BRANCH  14  21
ATOM     17  C   UNL     1       7.215   6.715  17.299  0.00  0.00    +0.000 C 
ATOM     18  C   UNL     1       6.108   5.737  17.501  0.00  0.00    +0.000 A 
ATOM     19  C   UNL     1       5.196   5.274  16.574  0.00  0.00    +0.000 A 
ATOM     20  C   UNL     1       4.335   4.275  17.118  0.00  0.00    +0.000 A 
ATOM     21  C   UNL     1       4.615   4.009  18.443  0.00  0.00    +0.000 A 
ATOM     22  S   UNL     1       5.878   5.003  19.032  0.00  0.00    +0.000 S 
ENDBRANCH  14  21
ENDBRANCH  13  14
ENDBRANCH   1  13
TORSDOF 4
ENDMDL
MODEL 2
REMARK VINA RESULT:      -7.4      0.835      1.121
REMARK  Name = 
REMARK  5 active torsions:
REMARK  status: ('A' for Active; 'I' for Inactive)
REMARK    1  A    between atoms: C_1  and  C_2
REMARK    2  A    between atoms: C_5  and  S_6
REMARK    3  A    between atoms: S_6  and  N_9
REMARK    4  A    between atoms: N_9  and  C_10
REMARK    5  A    between atoms: N_12  and  C_13
REMARK                            x       y       z     vdW  Elec       q    Type
REMARK                         _______ _______ _______ _____ _____    ______ ____
ROOT
ATOM      1  C   UNL     1       2.120   4.504  20.439  0.00  0.00    +0.000 C 
ATOM      2  O   UNL     1       1.011   4.320  19.944  0.00  0.00    +0.000 OA
ATOM      3  N   UNL     1       2.707   5.761  20.515  0.00  0.00    +0.000 N 
ATOM      4  H   UNL     1       3.662   5.766  20.849  0.00  0.00    +0.000 HD
ENDROOT
BRANCH   3   5
ATOM      5  C   UNL     1       2.170   6.979  20.026  0.00  0.00    +0.000 A 
ATOM      6  C   UNL     1       2.380   7.443  18.728  0.00  0.00    +0.000 A 
ATOM      7  C   UNL     1       1.896   8.689  18.314  0.00  0.00    +0.000 A 
ATOM      8  C   UNL     1       1.170   9.486  19.194  0.00  0.00    +0.000 A 
ATOM      9 CL   UNL     1       0.648  11.037  18.635  0.00  0.00    +0.000 Cl
ATOM     10  C   UNL     1       0.899   9.012  20.480  0.00  0.00    +0.000 A 
ATOM     11 CL   UNL     1       0.001   9.948  21.630  0.00  0.00    +0.000 Cl
ATOM     12  C   UNL     1       1.377   7.758  20.888  0.00  0.00    +0.000 A 
ENDBRANCH   3   5
BRANCH   1  13
ATOM     13  N   UNL     1       2.927   3.567  20.938  0.00  0.00    +0.000 NA
BRANCH  13  14
ATOM     14  S   UNL     1       3.825   2.754  19.914  0.00  0.00    +0.000 S 
ATOM     15  O   UNL     1       3.097   2.019  18.869  0.00  0.00    +0.000 OA
ATOM     16  O   UNL     1       4.920   1.916  20.401  0.00  0.00    +0.000 OA
BRANCH  14  21
ATOM     17  C   UNL     1       5.171   6.277  15.766  0.00  0.00    +0.000 C 
ATOM     18  C   UNL     1       5.215   5.522  17.052  0.00  0.00    +0.000 A 
ATOM     19  C   UNL     1       6.022   5.748  18.149  0.00  0.00    +0.000 A 
ATOM     20  C   UNL     1       5.718   4.869  19.231  0.00  0.00    +0.000 A 
ATOM     21  C   UNL     1       4.691   4.000  18.925  0.00  0.00    +0.000 A 
ATOM     22  S   UNL     1       4.138   4.217  17.320  0.00  0.00    +0.000 S 
ENDBRANCH  14  21
ENDBRANCH  13  14
ENDBRANCH   1  13
TORSDOF 4
ENDMDL
MODEL 3
REMARK VINA RESULT:      -7.3      4.214      5.786
REMARK  Name = 
REMARK  5 active torsions:
REMARK  status: ('A' for Active; 'I' for Inactive)
REMARK    1  A    between atoms: C_1  and  C_2
REMARK    2  A    between atoms: C_5  and  S_6
REMARK    3  A    between atoms: S_6  and  N_9
REMARK    4  A    between atoms: N_9  and  C_10
REMARK    5  A    between atoms: N_12  and  C_13
REMARK                            x       y       z     vdW  Elec       q    Type
REMARK                         _______ _______ _______ _____ _____    ______ ____
ROOT
ATOM      1  C   UNL     1       6.762   4.562  18.213  0.00  0.00    +0.000 C 
ATOM      2  O   UNL     1       7.166   4.924  19.315  0.00  0.00    +0.000 OA
ATOM      3  N   UNL     1       5.510   3.991  18.025  0.00  0.00    +0.000 N 
ATOM      4  H   UNL     1       5.335   3.642  17.092  0.00  0.00    +0.000 HD
ENDROOT
BRANCH   3   5
ATOM      5  C   UNL     1       4.547   3.709  19.028  0.00  0.00    +0.000 A 
ATOM      6  C   UNL     1       4.439   2.471  19.660  0.00  0.00    +0.000 A 
ATOM      7  C   UNL     1       3.422   2.214  20.587  0.00  0.00    +0.000 A 
ATOM      8  C   UNL     1       2.504   3.208  20.913  0.00  0.00    +0.000 A 
ATOM      9 CL   UNL     1       1.242   2.806  22.024  0.00  0.00    +0.000 Cl
ATOM     10  C   UNL     1       2.632   4.473  20.333  0.00  0.00    +0.000 A 
ATOM     11 CL   UNL     1       1.527   5.759  20.692  0.00  0.00    +0.000 Cl
ATOM     12  C   UNL     1       3.659   4.730  19.412  0.00  0.00    +0.000 A 
ENDBRANCH   3   5
BRANCH   1  13
ATOM     13  N   UNL     1       7.437   4.625  17.065  0.00  0.00    +0.000 NA
BRANCH  13  14
ATOM     14  S   UNL     1       7.020   5.754  16.031  0.00  0.00    +0.000 S 
ATOM     15  O   UNL     1       8.014   6.814  15.806  0.00  0.00    +0.000 OA
ATOM     16  O   UNL     1       5.692   6.362  16.104  0.00  0.00    +0.000 OA
BRANCH  14  21
ATOM     17  C   UNL     1       5.444   2.623  11.656  0.00  0.00    +0.000 C 
ATOM     18  C   UNL     1       6.232   3.540  12.529  0.00  0.00    +0.000 A 
ATOM     19  C   UNL     1       7.316   4.324  12.187  0.00  0.00    +0.000 A 
ATOM     20  C   UNL     1       7.755   5.137  13.274  0.00  0.00    +0.000 A 
ATOM     21  C   UNL     1       6.996   4.947  14.410  0.00  0.00    +0.000 A 
ATOM     22  S   UNL     1       5.794   3.752  14.171  0.00  0.00    +0.000 S 
ENDBRANCH  14  21
ENDBRANCH  13  14
ENDBRANCH   1  13
TORSDOF 4
ENDMDL
MODEL 4
REMARK VINA RESULT:      -7.1      5.455      6.976
REMARK  Name = 
REMARK  5 active torsions:
REMARK  status: ('A' for Active; 'I' for Inactive)
REMARK    1  A    between atoms: C_1  and  C_2
REMARK    2  A    between atoms: C_5  and  S_6
REMARK    3  A    between atoms: S_6  and  N_9
REMARK    4  A    between atoms: N_9  and  C_10
REMARK    5  A    between atoms: N_12  and  C_13
REMARK                            x       y       z     vdW  Elec       q    Type
REMARK                         _______ _______ _______ _____ _____    ______ ____
ROOT
ATOM      1  C   UNL     1       8.136   8.113  18.298  0.00  0.00    +0.000 C 
ATOM      2  O   UNL     1       7.615   8.637  17.318  0.00  0.00    +0.000 OA
ATOM      3  N   UNL     1       8.939   8.817  19.187  0.00  0.00    +0.000 N 
ATOM      4  H   UNL     1       9.391   8.253  19.893  0.00  0.00    +0.000 HD
ENDROOT
BRANCH   3   5
ATOM      5  C   UNL     1       9.303  10.185  19.098  0.00  0.00    +0.000 A 
ATOM      6  C   UNL     1       9.676  10.803  17.905  0.00  0.00    +0.000 A 
ATOM      7  C   UNL     1      10.105  12.135  17.879  0.00  0.00    +0.000 A 
ATOM      8  C   UNL     1      10.146  12.880  19.054  0.00  0.00    +0.000 A 
ATOM      9 CL   UNL     1      10.736  14.503  18.959  0.00  0.00    +0.000 Cl
ATOM     10  C   UNL     1       9.721  12.296  20.249  0.00  0.00    +0.000 A 
ATOM     11 CL   UNL     1       9.742  13.162  21.750  0.00  0.00    +0.000 Cl
ATOM     12  C   UNL     1       9.282  10.963  20.270  0.00  0.00    +0.000 A 
ENDBRANCH   3   5
BRANCH   1  13
ATOM     13  N   UNL     1       8.051   6.827  18.646  0.00  0.00    +0.000 NA
BRANCH  13  14
ATOM     14  S   UNL     1       7.347   5.839  17.624  0.00  0.00    +0.000 S 
ATOM     15  O   UNL     1       7.549   4.405  17.879  0.00  0.00    +0.000 OA
ATOM     16  O   UNL     1       7.444   6.079  16.185  0.00  0.00    +0.000 OA
BRANCH  14  21
ATOM     17  C   UNL     1       2.282   5.393  19.985  0.00  0.00    +0.000 C 
ATOM     18  C   UNL     1       3.373   5.754  19.035  0.00  0.00    +0.000 A 
ATOM     19  C   UNL     1       3.333   6.653  17.988  0.00  0.00    +0.000 A 
ATOM     20  C   UNL     1       4.602   6.796  17.352  0.00  0.00    +0.000 A 
ATOM     21  C   UNL     1       5.570   6.002  17.932  0.00  0.00    +0.000 A 
ATOM     22  S   UNL     1       4.927   5.052  19.203  0.00  0.00    +0.000 S 
ENDBRANCH  14  21
ENDBRANCH  13  14
ENDBRANCH   1  13
TORSDOF 4
ENDMDL
MODEL 5
REMARK VINA RESULT:      -7.1      0.797      1.572
REMARK  Name = 
REMARK  5 active torsions:
REMARK  status: ('A' for Active; 'I' for Inactive)
REMARK    1  A    between atoms: C_1  and  C_2
REMARK    2  A    between atoms: C_5  and  S_6
REMARK    3  A    between atoms: S_6  and  N_9
REMARK    4  A    between atoms: N_9  and  C_10
REMARK    5  A    between atoms: N_12  and  C_13
REMARK                            x       y       z     vdW  Elec       q    Type
REMARK                         _______ _______ _______ _____ _____    ______ ____
ROOT
ATOM      1  C   UNL     1       2.043   4.513  20.343  0.00  0.00    +0.000 C 
ATOM      2  O   UNL     1       1.152   4.411  19.503  0.00  0.00    +0.000 OA
ATOM      3  N   UNL     1       2.391   5.726  20.922  0.00  0.00    +0.000 N 
ATOM      4  H   UNL     1       3.205   5.695  21.521  0.00  0.00    +0.000 HD
ENDROOT
BRANCH   3   5
ATOM      5  C   UNL     1       1.830   6.996  20.632  0.00  0.00    +0.000 A 
ATOM      6  C   UNL     1       0.952   7.660  21.488  0.00  0.00    +0.000 A 
ATOM      7  C   UNL     1       0.361   8.875  21.124  0.00  0.00    +0.000 A 
ATOM      8  C   UNL     1       0.661   9.460  19.897  0.00  0.00    +0.000 A 
ATOM      9 CL   UNL     1      -0.144  10.935  19.488  0.00  0.00    +0.000 Cl
ATOM     10  C   UNL     1       1.584   8.840  19.052  0.00  0.00    +0.000 A 
ATOM     11 CL   UNL     1       2.009   9.510  17.511  0.00  0.00    +0.000 Cl
ATOM     12  C   UNL     1       2.182   7.626  19.425  0.00  0.00    +0.000 A 
ENDBRANCH   3   5
BRANCH   1  13
ATOM     13  N   UNL     1       2.815   3.525  20.800  0.00  0.00    +0.000 NA
BRANCH  13  14
ATOM     14  S   UNL     1       3.739   2.775  19.751  0.00  0.00    +0.000 S 
ATOM     15  O   UNL     1       3.049   1.860  18.829  0.00  0.00    +0.000 OA
ATOM     16  O   UNL     1       4.987   2.149  20.188  0.00  0.00    +0.000 OA
BRANCH  14  21
ATOM     17  C   UNL     1       6.802   6.847  17.414  0.00  0.00    +0.000 C 
ATOM     18  C   UNL     1       5.721   5.846  17.647  0.00  0.00    +0.000 A 
ATOM     19  C   UNL     1       4.745   5.421  16.769  0.00  0.00    +0.000 A 
ATOM     20  C   UNL     1       3.936   4.385  17.323  0.00  0.00    +0.000 A 
ATOM     21  C   UNL     1       4.318   4.054  18.607  0.00  0.00    +0.000 A 
ATOM     22  S   UNL     1       5.615   5.031  19.150  0.00  0.00    +0.000 S 
ENDBRANCH  14  21
ENDBRANCH  13  14
ENDBRANCH   1  13
TORSDOF 4
ENDMDL
MODEL 6
REMARK VINA RESULT:      -7.0      1.529      1.957
REMARK  Name = 
REMARK  5 active torsions:
REMARK  status: ('A' for Active; 'I' for Inactive)
REMARK    1  A    between atoms: C_1  and  C_2
REMARK    2  A    between atoms: C_5  and  S_6
REMARK    3  A    between atoms: S_6  and  N_9
REMARK    4  A    between atoms: N_9  and  C_10
REMARK    5  A    between atoms: N_12  and  C_13
REMARK                            x       y       z     vdW  Elec       q    Type
REMARK                         _______ _______ _______ _____ _____    ______ ____
ROOT
ATOM      1  C   UNL     1       2.340   5.451  20.250  0.00  0.00    +0.000 C 
ATOM      2  O   UNL     1       1.193   5.084  20.494  0.00  0.00    +0.000 OA
ATOM      3  N   UNL     1       2.683   6.789  20.107  0.00  0.00    +0.000 N 
ATOM      4  H   UNL     1       3.635   6.955  19.807  0.00  0.00    +0.000 HD
ENDROOT
BRANCH   3   5
ATOM      5  C   UNL     1       1.807   7.901  20.178  0.00  0.00    +0.000 A 
ATOM      6  C   UNL     1       1.491   8.699  19.078  0.00  0.00    +0.000 A 
ATOM      7  C   UNL     1       0.684   9.835  19.211  0.00  0.00    +0.000 A 
ATOM      8  C   UNL     1       0.160  10.179  20.453  0.00  0.00    +0.000 A 
ATOM      9 CL   UNL     1      -0.785  11.624  20.557  0.00  0.00    +0.000 Cl
ATOM     10  C   UNL     1       0.417   9.360  21.555  0.00  0.00    +0.000 A 
ATOM     11 CL   UNL     1      -0.204   9.724  23.132  0.00  0.00    +0.000 Cl
ATOM     12  C   UNL     1       1.218   8.216  21.416  0.00  0.00    +0.000 A 
ENDBRANCH   3   5
BRANCH   1  13
ATOM     13  N   UNL     1       3.398   4.661  20.061  0.00  0.00    +0.000 NA
BRANCH  13  14
ATOM     14  S   UNL     1       3.855   4.397  18.564  0.00  0.00    +0.000 S 
ATOM     15  O   UNL     1       3.078   5.091  17.526  0.00  0.00    +0.000 OA
ATOM     16  O   UNL     1       4.134   3.035  18.111  0.00  0.00    +0.000 OA
BRANCH  14  21
ATOM     17  C   UNL     1       7.818   8.205  17.460  0.00  0.00    +0.000 C 
ATOM     18  C   UNL     1       7.150   6.939  17.877  0.00  0.00    +0.000 A 
ATOM     19  C   UNL     1       7.696   5.866  18.553  0.00  0.00    +0.000 A 
ATOM     20  C   UNL     1       6.722   4.867  18.853  0.00  0.00    +0.000 A 
ATOM     21  C   UNL     1       5.466   5.207  18.395  0.00  0.00    +0.000 A 
ATOM     22  S   UNL     1       5.483   6.703  17.563  0.00  0.00    +0.000 S 
ENDBRANCH  14  21
ENDBRANCH  13  14
ENDBRANCH   1  13
TORSDOF 4
ENDMDL
MODEL 7
REMARK VINA RESULT:      -6.9      1.638      2.036
REMARK  Name = 
REMARK  5 active torsions:
REMARK  status: ('A' for Active; 'I' for Inactive)
REMARK    1  A    between atoms: C_1  and  C_2
REMARK    2  A    between atoms: C_5  and  S_6
REMARK    3  A    between atoms: S_6  and  N_9
REMARK    4  A    between atoms: N_9  and  C_10
REMARK    5  A    between atoms: N_12  and  C_13
REMARK                            x       y       z     vdW  Elec       q    Type
REMARK                         _______ _______ _______ _____ _____    ______ ____
ROOT
ATOM      1  C   UNL     1       2.447   5.255  18.670  0.00  0.00    +0.000 C 
ATOM      2  O   UNL     1       1.595   5.217  17.786  0.00  0.00    +0.000 OA
ATOM      3  N   UNL     1       2.737   6.412  19.382  0.00  0.00    +0.000 N 
ATOM      4  H   UNL     1       3.527   6.340  20.010  0.00  0.00    +0.000 HD
ENDROOT
BRANCH   3   5
ATOM      5  C   UNL     1       2.155   7.691  19.194  0.00  0.00    +0.000 A 
ATOM      6  C   UNL     1       2.281   8.426  18.015  0.00  0.00    +0.000 A 
ATOM      7  C   UNL     1       1.757   9.719  17.904  0.00  0.00    +0.000 A 
ATOM      8  C   UNL     1       1.073  10.291  18.973  0.00  0.00    +0.000 A 
ATOM      9 CL   UNL     1       0.497  11.911  18.786  0.00  0.00    +0.000 Cl
ATOM     10  C   UNL     1       0.885   9.548  20.141  0.00  0.00    +0.000 A 
ATOM     11 CL   UNL     1       0.043  10.195  21.511  0.00  0.00    +0.000 Cl
ATOM     12  C   UNL     1       1.404   8.249  20.245  0.00  0.00    +0.000 A 
ENDBRANCH   3   5
BRANCH   1  13
ATOM     13  N   UNL     1       3.226   4.245  19.060  0.00  0.00    +0.000 NA
BRANCH  13  14
ATOM     14  S   UNL     1       4.796   4.467  19.003  0.00  0.00    +0.000 S 
ATOM     15  O   UNL     1       5.620   3.266  19.202  0.00  0.00    +0.000 OA
ATOM     16  O   UNL     1       5.406   5.582  19.727  0.00  0.00    +0.000 OA
BRANCH  14  21
ATOM     17  C   UNL     1       5.979   3.953  13.548  0.00  0.00    +0.000 C 
ATOM     18  C   UNL     1       5.695   4.553  14.883  0.00  0.00    +0.000 A 
ATOM     19  C   UNL     1       5.415   5.869  15.187  0.00  0.00    +0.000 A 
ATOM     20  C   UNL     1       5.111   6.050  16.570  0.00  0.00    +0.000 A 
ATOM     21  C   UNL     1       5.170   4.866  17.277  0.00  0.00    +0.000 A 
ATOM     22  S   UNL     1       5.642   3.559  16.278  0.00  0.00    +0.000 S 
ENDBRANCH  14  21
ENDBRANCH  13  14
ENDBRANCH   1  13
TORSDOF 4
ENDMDL
MODEL 8
REMARK VINA RESULT:      -6.8      1.633      1.959
REMARK  Name = 
REMARK  5 active torsions:
REMARK  status: ('A' for Active; 'I' for Inactive)
REMARK    1  A    between atoms: C_1  and  C_2
REMARK    2  A    between atoms: C_5  and  S_6
REMARK    3  A    between atoms: S_6  and  N_9
REMARK    4  A    between atoms: N_9  and  C_10
REMARK    5  A    between atoms: N_12  and  C_13
REMARK                            x       y       z     vdW  Elec       q    Type
REMARK                         _______ _______ _______ _____ _____    ______ ____
ROOT
ATOM      1  C   UNL     1       2.234   5.479  20.191  0.00  0.00    +0.000 C 
ATOM      2  O   UNL     1       1.132   5.143  20.618  0.00  0.00    +0.000 OA
ATOM      3  N   UNL     1       2.581   6.807  19.979  0.00  0.00    +0.000 N 
ATOM      4  H   UNL     1       3.476   6.948  19.529  0.00  0.00    +0.000 HD
ENDROOT
BRANCH   3   5
ATOM      5  C   UNL     1       1.753   7.942  20.174  0.00  0.00    +0.000 A 
ATOM      6  C   UNL     1       1.438   8.844  19.158  0.00  0.00    +0.000 A 
ATOM      7  C   UNL     1       0.682   9.994  19.415  0.00  0.00    +0.000 A 
ATOM      8  C   UNL     1       0.208  10.247  20.699  0.00  0.00    +0.000 A 
ATOM      9 CL   UNL     1      -0.674  11.711  20.958  0.00  0.00    +0.000 Cl
ATOM     10  C   UNL     1       0.463   9.324  21.716  0.00  0.00    +0.000 A 
ATOM     11 CL   UNL     1      -0.098   9.571  23.338  0.00  0.00    +0.000 Cl
ATOM     12  C   UNL     1       1.213   8.168  21.452  0.00  0.00    +0.000 A 
ENDBRANCH   3   5
BRANCH   1  13
ATOM     13  N   UNL     1       3.230   4.662  19.845  0.00  0.00    +0.000 NA
BRANCH  13  14
ATOM     14  S   UNL     1       3.104   3.900  18.460  0.00  0.00    +0.000 S 
ATOM     15  O   UNL     1       1.817   4.047  17.764  0.00  0.00    +0.000 OA
ATOM     16  O   UNL     1       3.546   2.511  18.343  0.00  0.00    +0.000 OA
BRANCH  14  21
ATOM     17  C   UNL     1       6.850   4.931  14.418  0.00  0.00    +0.000 C 
ATOM     18  C   UNL     1       5.876   5.133  15.530  0.00  0.00    +0.000 A 
ATOM     19  C   UNL     1       5.318   6.314  15.974  0.00  0.00    +0.000 A 
ATOM     20  C   UNL     1       4.358   6.101  17.008  0.00  0.00    +0.000 A 
ATOM     21  C   UNL     1       4.217   4.765  17.323  0.00  0.00    +0.000 A 
ATOM     22  S   UNL     1       5.279   3.786  16.405  0.00  0.00    +0.000 S 
ENDBRANCH  14  21
ENDBRANCH  13  14
ENDBRANCH   1  13
TORSDOF 4
ENDMDL
MODEL 9
REMARK VINA RESULT:      -6.8      5.608      7.239
REMARK  Name = 
REMARK  5 active torsions:
REMARK  status: ('A' for Active; 'I' for Inactive)
REMARK    1  A    between atoms: C_1  and  C_2
REMARK    2  A    between atoms: C_5  and  S_6
REMARK    3  A    between atoms: S_6  and  N_9
REMARK    4  A    between atoms: N_9  and  C_10
REMARK    5  A    between atoms: N_12  and  C_13
REMARK                            x       y       z     vdW  Elec       q    Type
REMARK                         _______ _______ _______ _____ _____    ______ ____
ROOT
ATOM      1  C   UNL     1       8.222   8.290  18.348  0.00  0.00    +0.000 C 
ATOM      2  O   UNL     1       7.672   8.887  17.427  0.00  0.00    +0.000 OA
ATOM      3  N   UNL     1       9.026   8.932  19.281  0.00  0.00    +0.000 N 
ATOM      4  H   UNL     1       9.504   8.318  19.928  0.00  0.00    +0.000 HD
ENDROOT
BRANCH   3   5
ATOM      5  C   UNL     1       9.362  10.310  19.307  0.00  0.00    +0.000 A 
ATOM      6  C   UNL     1       9.125  11.136  20.406  0.00  0.00    +0.000 A 
ATOM      7  C   UNL     1       9.399  12.507  20.357  0.00  0.00    +0.000 A 
ATOM      8  C   UNL     1       9.940  13.073  19.206  0.00  0.00    +0.000 A 
ATOM      9 CL   UNL     1      10.205  14.781  19.195  0.00  0.00    +0.000 Cl
ATOM     10  C   UNL     1      10.239  12.251  18.116  0.00  0.00    +0.000 A 
ATOM     11 CL   UNL     1      10.916  12.884  16.651  0.00  0.00    +0.000 Cl
ATOM     12  C   UNL     1       9.972  10.875  18.173  0.00  0.00    +0.000 A 
ENDBRANCH   3   5
BRANCH   1  13
ATOM     13  N   UNL     1       8.169   6.978  18.583  0.00  0.00    +0.000 NA
BRANCH  13  14
ATOM     14  S   UNL     1       7.487   6.065  17.481  0.00  0.00    +0.000 S 
ATOM     15  O   UNL     1       7.768   4.625  17.578  0.00  0.00    +0.000 OA
ATOM     16  O   UNL     1       7.529   6.457  16.073  0.00  0.00    +0.000 OA
BRANCH  14  21
ATOM     17  C   UNL     1       2.550   5.283  20.021  0.00  0.00    +0.000 C 
ATOM     18  C   UNL     1       3.579   5.708  19.028  0.00  0.00    +0.000 A 
ATOM     19  C   UNL     1       3.436   6.581  17.969  0.00  0.00    +0.000 A 
ATOM     20  C   UNL     1       4.670   6.809  17.288  0.00  0.00    +0.000 A 
ATOM     21  C   UNL     1       5.713   6.099  17.847  0.00  0.00    +0.000 A 
ATOM     22  S   UNL     1       5.186   5.128  19.154  0.00  0.00    +0.000 S 
ENDBRANCH  14  21
ENDBRANCH  13  14
ENDBRANCH   1  13
TORSDOF 4
ENDMDL
