MODEL 1
REMARK VINA RESULT:      -7.0      0.000      0.000
REMARK  Name = 
REMARK  13 active torsions:
REMARK  status: ('A' for Active; 'I' for Inactive)
REMARK    1  A    between atoms: C_1  and  C_2
REMARK    2  A    between atoms: N_5  and  C_6
REMARK    3  A    between atoms: N_5  and  C_7
REMARK    4  A    between atoms: C_7  and  C_8
REMARK    5  A    between atoms: N_13  and  C_14
REMARK    6  A    between atoms: C_16  and  C_17
REMARK    7  A    between atoms: C_17  and  C_18
REMARK    8  A    between atoms: C_17  and  C_19
REMARK    9  A    between atoms: C_17  and  O_20
REMARK   10  A    between atoms: C_21  and  O_22
REMARK   11  A    between atoms: C_23  and  O_24
REMARK   12  A    between atoms: C_25  and  C_26
REMARK   13  A    between atoms: C_29  and  C_30
REMARK                            x       y       z     vdW  Elec       q    Type
REMARK                         _______ _______ _______ _____ _____    ______ ____
ROOT
ATOM      1  C   UNL     1      -1.859  16.761  22.599  0.00  0.00    +0.000 C 
ATOM      2  C   UNL     1      -2.297  15.588  21.772  0.00  0.00    +0.000 A 
ATOM      3  N   UNL     1      -3.401  14.972  22.261  0.00  0.00    +0.000 NA
ATOM      4  C   UNL     1      -3.841  13.825  21.706  0.00  0.00    +0.000 A 
ATOM      5  N   UNL     1      -4.940  13.166  22.282  0.00  0.00    +0.000 N 
ATOM      6  C   UNL     1      -5.165  13.576  23.664  0.00  0.00    +0.000 C 
ATOM      7  N   UNL     1      -3.193  13.266  20.686  0.00  0.00    +0.000 NA
ATOM      8  C   UNL     1      -2.066  13.856  20.204  0.00  0.00    +0.000 A 
ATOM      9  N   UNL     1      -1.401  13.169  19.163  0.00  0.00    +0.000 N 
ATOM     10  C   UNL     1      -1.573  15.087  20.691  0.00  0.00    +0.000 A 
ATOM     11  H   UNL     1      -1.563  13.641  18.281  0.00  0.00    +0.000 HD
ENDROOT
BRANCH  10  12
ATOM     12  C   UNL     1      -0.393  15.799  20.123  0.00  0.00    +0.000 A 
ATOM     13  N   UNL     1      -0.395  16.661  19.115  0.00  0.00    +0.000 NA
ATOM     14  C   UNL     1       0.915  16.902  18.651  0.00  0.00    +0.000 A 
ATOM     15  C   UNL     1       1.349  17.680  17.543  0.00  0.00    +0.000 A 
ATOM     16  C   UNL     1       0.500  18.592  16.713  0.00  0.00    +0.000 C 
ATOM     17  N   UNL     1       2.666  17.620  17.160  0.00  0.00    +0.000 NA
ATOM     18  C   UNL     1       3.546  16.874  17.850  0.00  0.00    +0.000 A 
ATOM     19  C   UNL     1       3.236  16.187  19.001  0.00  0.00    +0.000 A 
ATOM     20  C   UNL     1       1.895  16.234  19.388  0.00  0.00    +0.000 A 
ATOM     21  S   UNL     1       1.182  15.553  20.786  0.00  0.00    +0.000 S 
ENDBRANCH  10  12
BRANCH   9  22
ATOM     22  C   UNL     1      -1.510  11.698  19.137  0.00  0.00    +0.000 C 
ATOM     23  C   UNL     1      -1.257  11.142  20.566  0.00  0.00    +0.000 C 
ATOM     24  C   UNL     1      -0.319   9.940  20.412  0.00  0.00    +0.000 C 
ATOM     25  C   UNL     1       0.513  10.294  19.177  0.00  0.00    +0.000 C 
ATOM     26  C   UNL     1      -0.466  11.017  18.230  0.00  0.00    +0.000 C 
BRANCH  24  27
ATOM     27  C   UNL     1       0.485   9.492  21.674  0.00  0.00    +0.000 C 
ATOM     28  C   UNL     1      -0.287   9.450  23.000  0.00  0.00    +0.000 C 
ATOM     29  C   UNL     1       1.107   8.108  21.442  0.00  0.00    +0.000 C 
BRANCH  27  30
ATOM     30  O   UNL     1       1.590  10.384  21.881  0.00  0.00    +0.000 OA
ATOM     31  H   UNL     1       2.232   9.958  22.485  0.00  0.00    +0.000 HD
ENDBRANCH  27  30
ENDBRANCH  24  27
BRANCH  25  32
ATOM     32  O   UNL     1       1.014   9.094  18.587  0.00  0.00    +0.000 OA
ATOM     33  H   UNL     1       1.893   8.927  18.985  0.00  0.00    +0.000 HD
ENDBRANCH  25  32
BRANCH  26  34
ATOM     34  O   UNL     1      -1.083  10.075  17.340  0.00  0.00    +0.000 OA
ATOM     35  H   UNL     1      -1.171  10.492  16.464  0.00  0.00    +0.000 HD
ENDBRANCH  26  34
ENDBRANCH   9  22
BRANCH   5  36
ATOM     36  C   UNL     1      -6.111  13.218  21.391  0.00  0.00    +0.000 C 
BRANCH  36  37
ATOM     37  C   UNL     1      -6.369  11.896  20.684  0.00  0.00    +0.000 C 
ATOM     38  C   UNL     1      -7.625  11.068  20.883  0.00  0.00    +0.000 C 
ATOM     39  C   UNL     1      -7.426  11.814  19.600  0.00  0.00    +0.000 C 
ENDBRANCH  36  37
ENDBRANCH   5  36
TORSDOF 8
ENDMDL
MODEL 2
REMARK VINA RESULT:      -6.5      5.686      9.881
REMARK  Name = 
REMARK  13 active torsions:
REMARK  status: ('A' for Active; 'I' for Inactive)
REMARK    1  A    between atoms: C_1  and  C_2
REMARK    2  A    between atoms: N_5  and  C_6
REMARK    3  A    between atoms: N_5  and  C_7
REMARK    4  A    between atoms: C_7  and  C_8
REMARK    5  A    between atoms: N_13  and  C_14
REMARK    6  A    between atoms: C_16  and  C_17
REMARK    7  A    between atoms: C_17  and  C_18
REMARK    8  A    between atoms: C_17  and  C_19
REMARK    9  A    between atoms: C_17  and  O_20
REMARK   10  A    between atoms: C_21  and  O_22
REMARK   11  A    between atoms: C_23  and  O_24
REMARK   12  A    between atoms: C_25  and  C_26
REMARK   13  A    between atoms: C_29  and  C_30
REMARK                            x       y       z     vdW  Elec       q    Type
REMARK                         _______ _______ _______ _____ _____    ______ ____
ROOT
ATOM      1  C   UNL     1       2.056   9.563  17.435  0.00  0.00    +0.000 C 
ATOM      2  C   UNL     1       2.607   8.403  18.212  0.00  0.00    +0.000 A 
ATOM      3  N   UNL     1       3.620   7.766  17.575  0.00  0.00    +0.000 NA
ATOM      4  C   UNL     1       4.132   6.627  18.082  0.00  0.00    +0.000 A 
ATOM      5  N   UNL     1       5.125   5.945  17.361  0.00  0.00    +0.000 N 
ATOM      6  C   UNL     1       5.140   6.322  15.951  0.00  0.00    +0.000 C 
ATOM      7  N   UNL     1       3.644   6.097  19.202  0.00  0.00    +0.000 NA
ATOM      8  C   UNL     1       2.608   6.708  19.837  0.00  0.00    +0.000 A 
ATOM      9  N   UNL     1       2.106   6.051  20.982  0.00  0.00    +0.000 N 
ATOM     10  C   UNL     1       2.054   7.934  19.403  0.00  0.00    +0.000 A 
ATOM     11  H   UNL     1       2.403   6.541  21.818  0.00  0.00    +0.000 HD
ENDROOT
BRANCH  10  12
ATOM     12  C   UNL     1       0.980   8.670  20.127  0.00  0.00    +0.000 A 
ATOM     13  N   UNL     1       0.249   9.673  19.658  0.00  0.00    +0.000 NA
ATOM     14  C   UNL     1      -0.447  10.323  20.698  0.00  0.00    +0.000 A 
ATOM     15  C   UNL     1      -1.262  11.487  20.646  0.00  0.00    +0.000 A 
ATOM     16  C   UNL     1      -1.724  12.190  19.408  0.00  0.00    +0.000 C 
ATOM     17  N   UNL     1      -1.689  12.056  21.820  0.00  0.00    +0.000 NA
ATOM     18  C   UNL     1      -1.383  11.497  23.003  0.00  0.00    +0.000 A 
ATOM     19  C   UNL     1      -0.701  10.308  23.138  0.00  0.00    +0.000 A 
ATOM     20  C   UNL     1      -0.254   9.732  21.948  0.00  0.00    +0.000 A 
ATOM     21  S   UNL     1       0.561   8.241  21.746  0.00  0.00    +0.000 S 
ENDBRANCH  10  12
BRANCH   9  22
ATOM     22  C   UNL     1       2.208   4.581  21.026  0.00  0.00    +0.000 C 
ATOM     23  C   UNL     1       3.426   4.128  20.174  0.00  0.00    +0.000 C 
ATOM     24  C   UNL     1       2.958   2.935  19.332  0.00  0.00    +0.000 C 
ATOM     25  C   UNL     1       1.471   3.220  19.110  0.00  0.00    +0.000 C 
ATOM     26  C   UNL     1       0.984   3.858  20.426  0.00  0.00    +0.000 C 
BRANCH  24  27
ATOM     27  C   UNL     1       3.788   2.590  18.056  0.00  0.00    +0.000 C 
ATOM     28  C   UNL     1       3.987   1.099  17.749  0.00  0.00    +0.000 C 
ATOM     29  C   UNL     1       3.160   3.250  16.820  0.00  0.00    +0.000 C 
BRANCH  27  30
ATOM     30  O   UNL     1       5.103   3.154  18.170  0.00  0.00    +0.000 OA
ATOM     31  H   UNL     1       5.764   2.441  18.060  0.00  0.00    +0.000 HD
ENDBRANCH  27  30
ENDBRANCH  24  27
BRANCH  25  32
ATOM     32  O   UNL     1       0.791   1.991  18.847  0.00  0.00    +0.000 OA
ATOM     33  H   UNL     1      -0.097   2.065  19.253  0.00  0.00    +0.000 HD
ENDBRANCH  25  32
BRANCH  26  34
ATOM     34  O   UNL     1       0.488   2.846  21.315  0.00  0.00    +0.000 OA
ATOM     35  H   UNL     1       0.287   3.262  22.173  0.00  0.00    +0.000 HD
ENDBRANCH  26  34
ENDBRANCH   9  22
BRANCH   5  36
ATOM     36  C   UNL     1       6.419   6.004  18.061  0.00  0.00    +0.000 C 
BRANCH  36  37
ATOM     37  C   UNL     1       7.375   7.014  17.443  0.00  0.00    +0.000 C 
ATOM     38  C   UNL     1       7.269   8.512  17.657  0.00  0.00    +0.000 C 
ATOM     39  C   UNL     1       8.371   7.746  18.322  0.00  0.00    +0.000 C 
ENDBRANCH  36  37
ENDBRANCH   5  36
TORSDOF 8
ENDMDL
MODEL 3
REMARK VINA RESULT:      -6.5      3.571      6.921
REMARK  Name = 
REMARK  13 active torsions:
REMARK  status: ('A' for Active; 'I' for Inactive)
REMARK    1  A    between atoms: C_1  and  C_2
REMARK    2  A    between atoms: N_5  and  C_6
REMARK    3  A    between atoms: N_5  and  C_7
REMARK    4  A    between atoms: C_7  and  C_8
REMARK    5  A    between atoms: N_13  and  C_14
REMARK    6  A    between atoms: C_16  and  C_17
REMARK    7  A    between atoms: C_17  and  C_18
REMARK    8  A    between atoms: C_17  and  C_19
REMARK    9  A    between atoms: C_17  and  O_20
REMARK   10  A    between atoms: C_21  and  O_22
REMARK   11  A    between atoms: C_23  and  O_24
REMARK   12  A    between atoms: C_25  and  C_26
REMARK   13  A    between atoms: C_29  and  C_30
REMARK                            x       y       z     vdW  Elec       q    Type
REMARK                         _______ _______ _______ _____ _____    ______ ____
ROOT
ATOM      1  C   UNL     1      -1.693  11.888  23.323  0.00  0.00    +0.000 C 
ATOM      2  C   UNL     1      -0.853  12.223  22.125  0.00  0.00    +0.000 A 
ATOM      3  N   UNL     1      -0.453  11.131  21.430  0.00  0.00    +0.000 NA
ATOM      4  C   UNL     1       0.414  11.258  20.406  0.00  0.00    +0.000 A 
ATOM      5  N   UNL     1       0.874  10.101  19.754  0.00  0.00    +0.000 N 
ATOM      6  C   UNL     1       0.698   8.903  20.568  0.00  0.00    +0.000 C 
ATOM      7  N   UNL     1       0.909  12.448  20.071  0.00  0.00    +0.000 NA
ATOM      8  C   UNL     1       0.541  13.549  20.779  0.00  0.00    +0.000 A 
ATOM      9  N   UNL     1       1.157  14.764  20.404  0.00  0.00    +0.000 N 
ATOM     10  C   UNL     1      -0.407  13.510  21.827  0.00  0.00    +0.000 A 
ATOM     11  H   UNL     1       0.496  15.342  19.897  0.00  0.00    +0.000 HD
ENDROOT
BRANCH  10  12
ATOM     12  C   UNL     1      -0.894  14.712  22.560  0.00  0.00    +0.000 A 
ATOM     13  N   UNL     1      -0.366  15.245  23.653  0.00  0.00    +0.000 NA
ATOM     14  C   UNL     1      -1.247  16.175  24.242  0.00  0.00    +0.000 A 
ATOM     15  C   UNL     1      -1.113  16.897  25.459  0.00  0.00    +0.000 A 
ATOM     16  C   UNL     1       0.113  16.972  26.315  0.00  0.00    +0.000 C 
ATOM     17  N   UNL     1      -2.186  17.609  25.936  0.00  0.00    +0.000 NA
ATOM     18  C   UNL     1      -3.335  17.663  25.240  0.00  0.00    +0.000 A 
ATOM     19  C   UNL     1      -3.510  17.093  23.999  0.00  0.00    +0.000 A 
ATOM     20  C   UNL     1      -2.426  16.358  23.516  0.00  0.00    +0.000 A 
ATOM     21  S   UNL     1      -2.279  15.578  22.000  0.00  0.00    +0.000 S 
ENDBRANCH  10  12
BRANCH   9  22
ATOM     22  C   UNL     1       2.517  14.694  19.840  0.00  0.00    +0.000 C 
ATOM     23  C   UNL     1       3.521  15.324  20.847  0.00  0.00    +0.000 C 
ATOM     24  C   UNL     1       4.456  16.225  20.032  0.00  0.00    +0.000 C 
ATOM     25  C   UNL     1       3.575  16.698  18.874  0.00  0.00    +0.000 C 
ATOM     26  C   UNL     1       2.685  15.487  18.528  0.00  0.00    +0.000 C 
BRANCH  24  27
ATOM     27  C   UNL     1       5.229  17.340  20.805  0.00  0.00    +0.000 C 
ATOM     28  C   UNL     1       4.418  18.164  21.815  0.00  0.00    +0.000 C 
ATOM     29  C   UNL     1       6.433  16.737  21.543  0.00  0.00    +0.000 C 
BRANCH  27  30
ATOM     30  O   UNL     1       5.779  18.280  19.870  0.00  0.00    +0.000 OA
ATOM     31  H   UNL     1       6.295  18.950  20.362  0.00  0.00    +0.000 HD
ENDBRANCH  27  30
ENDBRANCH  24  27
BRANCH  25  32
ATOM     32  O   UNL     1       4.404  17.063  17.770  0.00  0.00    +0.000 OA
ATOM     33  H   UNL     1       4.930  16.272  17.535  0.00  0.00    +0.000 HD
ENDBRANCH  25  32
BRANCH  26  34
ATOM     34  O   UNL     1       3.307  14.688  17.511  0.00  0.00    +0.000 OA
ATOM     35  H   UNL     1       2.894  13.805  17.518  0.00  0.00    +0.000 HD
ENDBRANCH  26  34
ENDBRANCH   9  22
BRANCH   5  36
ATOM     36  C   UNL     1       0.355  10.032  18.378  0.00  0.00    +0.000 C 
BRANCH  36  37
ATOM     37  C   UNL     1      -1.162  10.130  18.316  0.00  0.00    +0.000 C 
ATOM     38  C   UNL     1      -1.904  11.277  17.656  0.00  0.00    +0.000 C 
ATOM     39  C   UNL     1      -1.878   9.934  16.994  0.00  0.00    +0.000 C 
ENDBRANCH  36  37
ENDBRANCH   5  36
TORSDOF 8
ENDMDL
MODEL 4
REMARK VINA RESULT:      -6.4      7.083     10.288
REMARK  Name = 
REMARK  13 active torsions:
REMARK  status: ('A' for Active; 'I' for Inactive)
REMARK    1  A    between atoms: C_1  and  C_2
REMARK    2  A    between atoms: N_5  and  C_6
REMARK    3  A    between atoms: N_5  and  C_7
REMARK    4  A    between atoms: C_7  and  C_8
REMARK    5  A    between atoms: N_13  and  C_14
REMARK    6  A    between atoms: C_16  and  C_17
REMARK    7  A    between atoms: C_17  and  C_18
REMARK    8  A    between atoms: C_17  and  C_19
REMARK    9  A    between atoms: C_17  and  O_20
REMARK   10  A    between atoms: C_21  and  O_22
REMARK   11  A    between atoms: C_23  and  O_24
REMARK   12  A    between atoms: C_25  and  C_26
REMARK   13  A    between atoms: C_29  and  C_30
REMARK                            x       y       z     vdW  Elec       q    Type
REMARK                         _______ _______ _______ _____ _____    ______ ____
ROOT
ATOM      1  C   UNL     1       4.519  15.217  22.823  0.00  0.00    +0.000 C 
ATOM      2  C   UNL     1       5.114  15.518  21.478  0.00  0.00    +0.000 A 
ATOM      3  N   UNL     1       4.234  15.363  20.458  0.00  0.00    +0.000 NA
ATOM      4  C   UNL     1       4.650  15.468  19.181  0.00  0.00    +0.000 A 
ATOM      5  N   UNL     1       3.736  15.224  18.143  0.00  0.00    +0.000 N 
ATOM      6  C   UNL     1       2.584  14.450  18.595  0.00  0.00    +0.000 C 
ATOM      7  N   UNL     1       5.929  15.706  18.895  0.00  0.00    +0.000 NA
ATOM      8  C   UNL     1       6.829  15.834  19.907  0.00  0.00    +0.000 A 
ATOM      9  N   UNL     1       8.176  16.021  19.521  0.00  0.00    +0.000 N 
ATOM     10  C   UNL     1       6.465  15.795  21.271  0.00  0.00    +0.000 A 
ATOM     11  H   UNL     1       8.446  16.987  19.674  0.00  0.00    +0.000 HD
ENDROOT
BRANCH  10  12
ATOM     12  C   UNL     1       7.413  16.021  22.398  0.00  0.00    +0.000 A 
ATOM     13  N   UNL     1       7.761  15.144  23.331  0.00  0.00    +0.000 NA
ATOM     14  C   UNL     1       8.427  15.779  24.400  0.00  0.00    +0.000 A 
ATOM     15  C   UNL     1       8.884  15.231  25.629  0.00  0.00    +0.000 A 
ATOM     16  C   UNL     1       8.924  13.778  25.991  0.00  0.00    +0.000 C 
ATOM     17  N   UNL     1       9.340  16.076  26.610  0.00  0.00    +0.000 NA
ATOM     18  C   UNL     1       9.400  17.402  26.397  0.00  0.00    +0.000 A 
ATOM     19  C   UNL     1       9.091  18.003  25.197  0.00  0.00    +0.000 A 
ATOM     20  C   UNL     1       8.615  17.148  24.201  0.00  0.00    +0.000 A 
ATOM     21  S   UNL     1       8.201  17.545  22.589  0.00  0.00    +0.000 S 
ENDBRANCH  10  12
BRANCH   9  22
ATOM     22  C   UNL     1       8.610  15.424  18.245  0.00  0.00    +0.000 C 
ATOM     23  C   UNL     1       8.838  13.900  18.445  0.00  0.00    +0.000 C 
ATOM     24  C   UNL     1      10.159  13.556  17.748  0.00  0.00    +0.000 C 
ATOM     25  C   UNL     1      10.975  14.844  17.877  0.00  0.00    +0.000 C 
ATOM     26  C   UNL     1       9.949  15.985  17.724  0.00  0.00    +0.000 C 
BRANCH  24  27
ATOM     27  C   UNL     1      10.879  12.242  18.186  0.00  0.00    +0.000 C 
ATOM     28  C   UNL     1      11.486  12.229  19.596  0.00  0.00    +0.000 C 
ATOM     29  C   UNL     1       9.920  11.048  18.071  0.00  0.00    +0.000 C 
BRANCH  27  30
ATOM     30  O   UNL     1      11.958  11.961  17.282  0.00  0.00    +0.000 OA
ATOM     31  H   UNL     1      11.847  11.055  16.929  0.00  0.00    +0.000 HD
ENDBRANCH  27  30
ENDBRANCH  24  27
BRANCH  25  32
ATOM     32  O   UNL     1      11.955  14.886  16.839  0.00  0.00    +0.000 OA
ATOM     33  H   UNL     1      11.493  14.674  16.003  0.00  0.00    +0.000 HD
ENDBRANCH  25  32
BRANCH  26  34
ATOM     34  O   UNL     1       9.849  16.382  16.348  0.00  0.00    +0.000 OA
ATOM     35  H   UNL     1       8.916  16.316  16.076  0.00  0.00    +0.000 HD
ENDBRANCH  26  34
ENDBRANCH   9  22
BRANCH   5  36
ATOM     36  C   UNL     1       3.436  16.461  17.403  0.00  0.00    +0.000 C 
BRANCH  36  37
ATOM     37  C   UNL     1       1.963  16.838  17.463  0.00  0.00    +0.000 C 
ATOM     38  C   UNL     1       1.422  17.982  18.300  0.00  0.00    +0.000 C 
ATOM     39  C   UNL     1       1.485  18.120  16.811  0.00  0.00    +0.000 C 
ENDBRANCH  36  37
ENDBRANCH   5  36
TORSDOF 8
ENDMDL
MODEL 5
REMARK VINA RESULT:      -6.4      1.046      1.221
REMARK  Name = 
REMARK  13 active torsions:
REMARK  status: ('A' for Active; 'I' for Inactive)
REMARK    1  A    between atoms: C_1  and  C_2
REMARK    2  A    between atoms: N_5  and  C_6
REMARK    3  A    between atoms: N_5  and  C_7
REMARK    4  A    between atoms: C_7  and  C_8
REMARK    5  A    between atoms: N_13  and  C_14
REMARK    6  A    between atoms: C_16  and  C_17
REMARK    7  A    between atoms: C_17  and  C_18
REMARK    8  A    between atoms: C_17  and  C_19
REMARK    9  A    between atoms: C_17  and  O_20
REMARK   10  A    between atoms: C_21  and  O_22
REMARK   11  A    between atoms: C_23  and  O_24
REMARK   12  A    between atoms: C_25  and  C_26
REMARK   13  A    between atoms: C_29  and  C_30
REMARK                            x       y       z     vdW  Elec       q    Type
REMARK                         _______ _______ _______ _____ _____    ______ ____
ROOT
ATOM      1  C   UNL     1      -2.073  16.622  22.169  0.00  0.00    +0.000 C 
ATOM      2  C   UNL     1      -2.325  15.424  21.300  0.00  0.00    +0.000 A 
ATOM      3  N   UNL     1      -3.510  14.817  21.556  0.00  0.00    +0.000 NA
ATOM      4  C   UNL     1      -3.821  13.654  20.951  0.00  0.00    +0.000 A 
ATOM      5  N   UNL     1      -5.020  13.006  21.294  0.00  0.00    +0.000 N 
ATOM      6  C   UNL     1      -5.538  13.454  22.583  0.00  0.00    +0.000 C 
ATOM      7  N   UNL     1      -2.970  13.069  20.111  0.00  0.00    +0.000 NA
ATOM      8  C   UNL     1      -1.764  13.650  19.868  0.00  0.00    +0.000 A 
ATOM      9  N   UNL     1      -0.891  12.937  19.015  0.00  0.00    +0.000 N 
ATOM     10  C   UNL     1      -1.385  14.896  20.415  0.00  0.00    +0.000 A 
ATOM     11  H   UNL     1      -0.858  13.385  18.106  0.00  0.00    +0.000 HD
ENDROOT
BRANCH  10  12
ATOM     12  C   UNL     1      -0.110  15.597  20.096  0.00  0.00    +0.000 A 
ATOM     13  N   UNL     1       0.164  16.289  18.998  0.00  0.00    +0.000 NA
ATOM     14  C   UNL     1       1.546  16.551  18.895  0.00  0.00    +0.000 A 
ATOM     15  C   UNL     1       2.268  17.177  17.842  0.00  0.00    +0.000 A 
ATOM     16  C   UNL     1       1.678  17.882  16.660  0.00  0.00    +0.000 C 
ATOM     17  N   UNL     1       3.640  17.157  17.868  0.00  0.00    +0.000 NA
ATOM     18  C   UNL     1       4.297  16.595  18.898  0.00  0.00    +0.000 A 
ATOM     19  C   UNL     1       3.678  16.075  20.012  0.00  0.00    +0.000 A 
ATOM     20  C   UNL     1       2.282  16.082  19.984  0.00  0.00    +0.000 A 
ATOM     21  S   UNL     1       1.206  15.575  21.215  0.00  0.00    +0.000 S 
ENDBRANCH  10  12
BRANCH   9  22
ATOM     22  C   UNL     1      -0.995  11.466  19.007  0.00  0.00    +0.000 C 
ATOM     23  C   UNL     1      -1.287  10.967  20.450  0.00  0.00    +0.000 C 
ATOM     24  C   UNL     1      -0.367   9.766  20.695  0.00  0.00    +0.000 C 
ATOM     25  C   UNL     1       0.862  10.078  19.837  0.00  0.00    +0.000 C 
ATOM     26  C   UNL     1       0.303  10.757  18.570  0.00  0.00    +0.000 C 
BRANCH  24  27
ATOM     27  C   UNL     1      -0.084   9.372  22.179  0.00  0.00    +0.000 C 
ATOM     28  C   UNL     1       1.387   9.163  22.565  0.00  0.00    +0.000 C 
ATOM     29  C   UNL     1      -0.680  10.421  23.129  0.00  0.00    +0.000 C 
BRANCH  27  30
ATOM     30  O   UNL     1      -0.758   8.143  22.487  0.00  0.00    +0.000 OA
ATOM     31  H   UNL     1      -0.091   7.435  22.597  0.00  0.00    +0.000 HD
ENDBRANCH  27  30
ENDBRANCH  24  27
BRANCH  25  32
ATOM     32  O   UNL     1       1.534   8.859  19.517  0.00  0.00    +0.000 OA
ATOM     33  H   UNL     1       1.986   8.561  20.333  0.00  0.00    +0.000 HD
ENDBRANCH  25  32
BRANCH  26  34
ATOM     34  O   UNL     1       0.047   9.778  17.553  0.00  0.00    +0.000 OA
ATOM     35  H   UNL     1      -0.802   9.993  17.126  0.00  0.00    +0.000 HD
ENDBRANCH  26  34
ENDBRANCH   9  22
BRANCH   5  36
ATOM     36  C   UNL     1      -5.971  13.029  20.170  0.00  0.00    +0.000 C 
BRANCH  36  37
ATOM     37  C   UNL     1      -6.023  11.707  19.419  0.00  0.00    +0.000 C 
ATOM     38  C   UNL     1      -7.106  10.664  19.627  0.00  0.00    +0.000 C 
ATOM     39  C   UNL     1      -7.093  11.477  18.370  0.00  0.00    +0.000 C 
ENDBRANCH  36  37
ENDBRANCH   5  36
TORSDOF 8
ENDMDL
MODEL 6
REMARK VINA RESULT:      -6.4      3.351      6.573
REMARK  Name = 
REMARK  13 active torsions:
REMARK  status: ('A' for Active; 'I' for Inactive)
REMARK    1  A    between atoms: C_1  and  C_2
REMARK    2  A    between atoms: N_5  and  C_6
REMARK    3  A    between atoms: N_5  and  C_7
REMARK    4  A    between atoms: C_7  and  C_8
REMARK    5  A    between atoms: N_13  and  C_14
REMARK    6  A    between atoms: C_16  and  C_17
REMARK    7  A    between atoms: C_17  and  C_18
REMARK    8  A    between atoms: C_17  and  C_19
REMARK    9  A    between atoms: C_17  and  O_20
REMARK   10  A    between atoms: C_21  and  O_22
REMARK   11  A    between atoms: C_23  and  O_24
REMARK   12  A    between atoms: C_25  and  C_26
REMARK   13  A    between atoms: C_29  and  C_30
REMARK                            x       y       z     vdW  Elec       q    Type
REMARK                         _______ _______ _______ _____ _____    ______ ____
ROOT
ATOM      1  C   UNL     1      -1.388  11.292  23.029  0.00  0.00    +0.000 C 
ATOM      2  C   UNL     1      -1.328  11.952  21.682  0.00  0.00    +0.000 A 
ATOM      3  N   UNL     1      -0.879  11.129  20.703  0.00  0.00    +0.000 NA
ATOM      4  C   UNL     1      -0.645  11.610  19.466  0.00  0.00    +0.000 A 
ATOM      5  N   UNL     1      -0.105  10.754  18.492  0.00  0.00    +0.000 N 
ATOM      6  C   UNL     1       0.547   9.590  19.083  0.00  0.00    +0.000 C 
ATOM      7  N   UNL     1      -0.829  12.899  19.186  0.00  0.00    +0.000 NA
ATOM      8  C   UNL     1      -1.250  13.743  20.166  0.00  0.00    +0.000 A 
ATOM      9  N   UNL     1      -1.361  15.106  19.808  0.00  0.00    +0.000 N 
ATOM     10  C   UNL     1      -1.573  13.309  21.471  0.00  0.00    +0.000 A 
ATOM     11  H   UNL     1      -2.338  15.356  19.705  0.00  0.00    +0.000 HD
ENDROOT
BRANCH  10  12
ATOM     12  C   UNL     1      -2.120  14.194  22.537  0.00  0.00    +0.000 A 
ATOM     13  N   UNL     1      -3.398  14.464  22.767  0.00  0.00    +0.000 NA
ATOM     14  C   UNL     1      -3.535  15.563  23.641  0.00  0.00    +0.000 A 
ATOM     15  C   UNL     1      -4.715  16.229  24.072  0.00  0.00    +0.000 A 
ATOM     16  C   UNL     1      -6.124  15.781  23.833  0.00  0.00    +0.000 C 
ATOM     17  N   UNL     1      -4.600  17.401  24.778  0.00  0.00    +0.000 NA
ATOM     18  C   UNL     1      -3.391  17.890  25.102  0.00  0.00    +0.000 A 
ATOM     19  C   UNL     1      -2.204  17.248  24.828  0.00  0.00    +0.000 A 
ATOM     20  C   UNL     1      -2.315  16.062  24.099  0.00  0.00    +0.000 A 
ATOM     21  S   UNL     1      -1.061  14.989  23.645  0.00  0.00    +0.000 S 
ENDBRANCH  10  12
BRANCH   9  22
ATOM     22  C   UNL     1      -0.451  15.613  18.764  0.00  0.00    +0.000 C 
ATOM     23  C   UNL     1       0.981  15.069  19.025  0.00  0.00    +0.000 C 
ATOM     24  C   UNL     1       1.943  16.247  18.836  0.00  0.00    +0.000 C 
ATOM     25  C   UNL     1       1.104  17.459  19.251  0.00  0.00    +0.000 C 
ATOM     26  C   UNL     1      -0.321  17.150  18.750  0.00  0.00    +0.000 C 
BRANCH  24  27
ATOM     27  C   UNL     1       3.354  16.133  19.495  0.00  0.00    +0.000 C 
ATOM     28  C   UNL     1       3.409  16.247  21.024  0.00  0.00    +0.000 C 
ATOM     29  C   UNL     1       4.020  14.809  19.093  0.00  0.00    +0.000 C 
BRANCH  27  30
ATOM     30  O   UNL     1       4.208  17.167  18.984  0.00  0.00    +0.000 OA
ATOM     31  H   UNL     1       4.424  17.786  19.711  0.00  0.00    +0.000 HD
ENDBRANCH  27  30
ENDBRANCH  24  27
BRANCH  25  32
ATOM     32  O   UNL     1       1.630  18.630  18.625  0.00  0.00    +0.000 OA
ATOM     33  H   UNL     1       2.499  18.808  19.039  0.00  0.00    +0.000 HD
ENDBRANCH  25  32
BRANCH  26  34
ATOM     34  O   UNL     1      -0.510  17.678  17.430  0.00  0.00    +0.000 OA
ATOM     35  H   UNL     1      -1.462  17.656  17.222  0.00  0.00    +0.000 HD
ENDBRANCH  26  34
ENDBRANCH   9  22
BRANCH   5  36
ATOM     36  C   UNL     1      -1.087  10.478  17.430  0.00  0.00    +0.000 C 
BRANCH  36  37
ATOM     37  C   UNL     1      -2.503  10.324  17.966  0.00  0.00    +0.000 C 
ATOM     38  C   UNL     1      -3.719  10.960  17.319  0.00  0.00    +0.000 C 
ATOM     39  C   UNL     1      -3.509   9.482  17.207  0.00  0.00    +0.000 C 
ENDBRANCH  36  37
ENDBRANCH   5  36
TORSDOF 8
ENDMDL
MODEL 7
REMARK VINA RESULT:      -6.3      3.513      6.910
REMARK  Name = 
REMARK  13 active torsions:
REMARK  status: ('A' for Active; 'I' for Inactive)
REMARK    1  A    between atoms: C_1  and  C_2
REMARK    2  A    between atoms: N_5  and  C_6
REMARK    3  A    between atoms: N_5  and  C_7
REMARK    4  A    between atoms: C_7  and  C_8
REMARK    5  A    between atoms: N_13  and  C_14
REMARK    6  A    between atoms: C_16  and  C_17
REMARK    7  A    between atoms: C_17  and  C_18
REMARK    8  A    between atoms: C_17  and  C_19
REMARK    9  A    between atoms: C_17  and  O_20
REMARK   10  A    between atoms: C_21  and  O_22
REMARK   11  A    between atoms: C_23  and  O_24
REMARK   12  A    between atoms: C_25  and  C_26
REMARK   13  A    between atoms: C_29  and  C_30
REMARK                            x       y       z     vdW  Elec       q    Type
REMARK                         _______ _______ _______ _____ _____    ______ ____
ROOT
ATOM      1  C   UNL     1      -6.155  12.724  21.596  0.00  0.00    +0.000 C 
ATOM      2  C   UNL     1      -4.929  13.575  21.754  0.00  0.00    +0.000 A 
ATOM      3  N   UNL     1      -5.022  14.461  22.777  0.00  0.00    +0.000 NA
ATOM      4  C   UNL     1      -4.058  15.384  22.965  0.00  0.00    +0.000 A 
ATOM      5  N   UNL     1      -4.218  16.340  23.982  0.00  0.00    +0.000 N 
ATOM      6  C   UNL     1      -5.611  16.477  24.394  0.00  0.00    +0.000 C 
ATOM      7  N   UNL     1      -3.011  15.458  22.145  0.00  0.00    +0.000 NA
ATOM      8  C   UNL     1      -2.920  14.596  21.097  0.00  0.00    +0.000 A 
ATOM      9  N   UNL     1      -1.814  14.779  20.237  0.00  0.00    +0.000 N 
ATOM     10  C   UNL     1      -3.856  13.564  20.864  0.00  0.00    +0.000 A 
ATOM     11  H   UNL     1      -1.128  14.050  20.399  0.00  0.00    +0.000 HD
ENDROOT
BRANCH  10  12
ATOM     12  C   UNL     1      -3.733  12.552  19.778  0.00  0.00    +0.000 A 
ATOM     13  N   UNL     1      -2.655  11.843  19.470  0.00  0.00    +0.000 NA
ATOM     14  C   UNL     1      -2.800  11.218  18.214  0.00  0.00    +0.000 A 
ATOM     15  C   UNL     1      -1.859  10.450  17.477  0.00  0.00    +0.000 A 
ATOM     16  C   UNL     1      -0.530   9.965  17.969  0.00  0.00    +0.000 C 
ATOM     17  N   UNL     1      -2.152  10.095  16.183  0.00  0.00    +0.000 NA
ATOM     18  C   UNL     1      -3.333  10.427  15.634  0.00  0.00    +0.000 A 
ATOM     19  C   UNL     1      -4.346  11.065  16.315  0.00  0.00    +0.000 A 
ATOM     20  C   UNL     1      -4.047  11.438  17.626  0.00  0.00    +0.000 A 
ATOM     21  S   UNL     1      -5.083  12.183  18.766  0.00  0.00    +0.000 S 
ENDBRANCH  10  12
BRANCH   9  22
ATOM     22  C   UNL     1      -1.280  16.146  20.092  0.00  0.00    +0.000 C 
ATOM     23  C   UNL     1      -0.348  16.202  18.849  0.00  0.00    +0.000 C 
ATOM     24  C   UNL     1       0.904  16.979  19.271  0.00  0.00    +0.000 C 
ATOM     25  C   UNL     1       1.032  16.663  20.763  0.00  0.00    +0.000 C 
ATOM     26  C   UNL     1      -0.417  16.603  21.286  0.00  0.00    +0.000 C 
BRANCH  24  27
ATOM     27  C   UNL     1       2.194  16.778  18.414  0.00  0.00    +0.000 C 
ATOM     28  C   UNL     1       2.643  15.330  18.179  0.00  0.00    +0.000 C 
ATOM     29  C   UNL     1       2.031  17.453  17.045  0.00  0.00    +0.000 C 
BRANCH  27  30
ATOM     30  O   UNL     1       3.298  17.443  19.045  0.00  0.00    +0.000 OA
ATOM     31  H   UNL     1       2.995  18.313  19.378  0.00  0.00    +0.000 HD
ENDBRANCH  27  30
ENDBRANCH  24  27
BRANCH  25  32
ATOM     32  O   UNL     1       1.771  17.704  21.402  0.00  0.00    +0.000 OA
ATOM     33  H   UNL     1       1.781  18.465  20.787  0.00  0.00    +0.000 HD
ENDBRANCH  25  32
BRANCH  26  34
ATOM     34  O   UNL     1      -0.827  17.892  21.763  0.00  0.00    +0.000 OA
ATOM     35  H   UNL     1      -0.058  18.327  22.174  0.00  0.00    +0.000 HD
ENDBRANCH  26  34
ENDBRANCH   9  22
BRANCH   5  36
ATOM     36  C   UNL     1      -3.241  16.127  25.063  0.00  0.00    +0.000 C 
BRANCH  36  37
ATOM     37  C   UNL     1      -2.122  17.159  25.054  0.00  0.00    +0.000 C 
ATOM     38  C   UNL     1      -1.250  17.463  26.257  0.00  0.00    +0.000 C 
ATOM     39  C   UNL     1      -0.677  16.705  25.100  0.00  0.00    +0.000 C 
ENDBRANCH  36  37
ENDBRANCH   5  36
TORSDOF 8
ENDMDL
MODEL 8
REMARK VINA RESULT:      -6.3      2.994      7.279
REMARK  Name = 
REMARK  13 active torsions:
REMARK  status: ('A' for Active; 'I' for Inactive)
REMARK    1  A    between atoms: C_1  and  C_2
REMARK    2  A    between atoms: N_5  and  C_6
REMARK    3  A    between atoms: N_5  and  C_7
REMARK    4  A    between atoms: C_7  and  C_8
REMARK    5  A    between atoms: N_13  and  C_14
REMARK    6  A    between atoms: C_16  and  C_17
REMARK    7  A    between atoms: C_17  and  C_18
REMARK    8  A    between atoms: C_17  and  C_19
REMARK    9  A    between atoms: C_17  and  O_20
REMARK   10  A    between atoms: C_21  and  O_22
REMARK   11  A    between atoms: C_23  and  O_24
REMARK   12  A    between atoms: C_25  and  C_26
REMARK   13  A    between atoms: C_29  and  C_30
REMARK                            x       y       z     vdW  Elec       q    Type
REMARK                         _______ _______ _______ _____ _____    ______ ____
ROOT
ATOM      1  C   UNL     1       2.828  13.613  19.754  0.00  0.00    +0.000 C 
ATOM      2  C   UNL     1       1.406  14.074  19.609  0.00  0.00    +0.000 A 
ATOM      3  N   UNL     1       1.283  15.423  19.575  0.00  0.00    +0.000 NA
ATOM      4  C   UNL     1       0.062  15.994  19.580  0.00  0.00    +0.000 A 
ATOM      5  N   UNL     1      -0.036  17.394  19.625  0.00  0.00    +0.000 N 
ATOM      6  C   UNL     1       1.189  18.017  20.115  0.00  0.00    +0.000 C 
ATOM      7  N   UNL     1      -1.041  15.250  19.639  0.00  0.00    +0.000 NA
ATOM      8  C   UNL     1      -0.933  13.896  19.705  0.00  0.00    +0.000 A 
ATOM      9  N   UNL     1      -2.145  13.180  19.829  0.00  0.00    +0.000 N 
ATOM     10  C   UNL     1       0.306  13.218  19.645  0.00  0.00    +0.000 A 
ATOM     11  H   UNL     1      -2.373  12.734  18.947  0.00  0.00    +0.000 HD
ENDROOT
BRANCH  10  12
ATOM     12  C   UNL     1       0.449  11.735  19.626  0.00  0.00    +0.000 A 
ATOM     13  N   UNL     1       0.111  10.892  20.592  0.00  0.00    +0.000 NA
ATOM     14  C   UNL     1       0.660   9.613  20.364  0.00  0.00    +0.000 A 
ATOM     15  C   UNL     1       0.620   8.455  21.188  0.00  0.00    +0.000 A 
ATOM     16  C   UNL     1      -0.198   8.280  22.430  0.00  0.00    +0.000 C 
ATOM     17  N   UNL     1       1.389   7.368  20.853  0.00  0.00    +0.000 NA
ATOM     18  C   UNL     1       2.135   7.377  19.735  0.00  0.00    +0.000 A 
ATOM     19  C   UNL     1       2.140   8.408  18.822  0.00  0.00    +0.000 A 
ATOM     20  C   UNL     1       1.369   9.520  19.165  0.00  0.00    +0.000 A 
ATOM     21  S   UNL     1       1.102  10.936  18.241  0.00  0.00    +0.000 S 
ENDBRANCH  10  12
BRANCH   9  22
ATOM     22  C   UNL     1      -3.263  13.846  20.523  0.00  0.00    +0.000 C 
ATOM     23  C   UNL     1      -2.710  14.630  21.746  0.00  0.00    +0.000 C 
ATOM     24  C   UNL     1      -3.651  14.335  22.920  0.00  0.00    +0.000 C 
ATOM     25  C   UNL     1      -4.159  12.922  22.623  0.00  0.00    +0.000 C 
ATOM     26  C   UNL     1      -4.311  12.867  21.089  0.00  0.00    +0.000 C 
BRANCH  24  27
ATOM     27  C   UNL     1      -3.095  14.575  24.360  0.00  0.00    +0.000 C 
ATOM     28  C   UNL     1      -1.572  14.700  24.496  0.00  0.00    +0.000 C 
ATOM     29  C   UNL     1      -3.732  15.831  24.971  0.00  0.00    +0.000 C 
BRANCH  27  30
ATOM     30  O   UNL     1      -3.486  13.488  25.213  0.00  0.00    +0.000 OA
ATOM     31  H   UNL     1      -3.885  13.854  26.028  0.00  0.00    +0.000 HD
ENDBRANCH  27  30
ENDBRANCH  24  27
BRANCH  25  32
ATOM     32  O   UNL     1      -5.414  12.727  23.275  0.00  0.00    +0.000 OA
ATOM     33  H   UNL     1      -5.940  12.129  22.706  0.00  0.00    +0.000 HD
ENDBRANCH  25  32
BRANCH  26  34
ATOM     34  O   UNL     1      -5.641  13.247  20.708  0.00  0.00    +0.000 OA
ATOM     35  H   UNL     1      -5.629  14.184  20.443  0.00  0.00    +0.000 HD
ENDBRANCH  26  34
ENDBRANCH   9  22
BRANCH   5  36
ATOM     36  C   UNL     1      -0.572  17.925  18.360  0.00  0.00    +0.000 C 
BRANCH  36  37
ATOM     37  C   UNL     1       0.486  18.630  17.524  0.00  0.00    +0.000 C 
ATOM     38  C   UNL     1       1.517  17.900  16.684  0.00  0.00    +0.000 C 
ATOM     39  C   UNL     1       0.386  18.615  16.012  0.00  0.00    +0.000 C 
ENDBRANCH  36  37
ENDBRANCH   5  36
TORSDOF 8
ENDMDL
MODEL 9
REMARK VINA RESULT:      -6.3      3.145      6.242
REMARK  Name = 
REMARK  13 active torsions:
REMARK  status: ('A' for Active; 'I' for Inactive)
REMARK    1  A    between atoms: C_1  and  C_2
REMARK    2  A    between atoms: N_5  and  C_6
REMARK    3  A    between atoms: N_5  and  C_7
REMARK    4  A    between atoms: C_7  and  C_8
REMARK    5  A    between atoms: N_13  and  C_14
REMARK    6  A    between atoms: C_16  and  C_17
REMARK    7  A    between atoms: C_17  and  C_18
REMARK    8  A    between atoms: C_17  and  C_19
REMARK    9  A    between atoms: C_17  and  O_20
REMARK   10  A    between atoms: C_21  and  O_22
REMARK   11  A    between atoms: C_23  and  O_24
REMARK   12  A    between atoms: C_25  and  C_26
REMARK   13  A    between atoms: C_29  and  C_30
REMARK                            x       y       z     vdW  Elec       q    Type
REMARK                         _______ _______ _______ _____ _____    ______ ____
ROOT
ATOM      1  C   UNL     1      -5.454  12.562  20.777  0.00  0.00    +0.000 C 
ATOM      2  C   UNL     1      -4.134  12.601  20.062  0.00  0.00    +0.000 A 
ATOM      3  N   UNL     1      -3.988  11.605  19.155  0.00  0.00    +0.000 NA
ATOM      4  C   UNL     1      -2.809  11.426  18.527  0.00  0.00    +0.000 A 
ATOM      5  N   UNL     1      -2.660  10.338  17.651  0.00  0.00    +0.000 N 
ATOM      6  C   UNL     1      -3.654   9.297  17.893  0.00  0.00    +0.000 C 
ATOM      7  N   UNL     1      -1.765  12.207  18.796  0.00  0.00    +0.000 NA
ATOM      8  C   UNL     1      -1.887  13.192  19.726  0.00  0.00    +0.000 A 
ATOM      9  N   UNL     1      -0.718  13.936  20.002  0.00  0.00    +0.000 N 
ATOM     10  C   UNL     1      -3.102  13.482  20.386  0.00  0.00    +0.000 A 
ATOM     11  H   UNL     1      -0.788  14.855  19.580  0.00  0.00    +0.000 HD
ENDROOT
BRANCH  10  12
ATOM     12  C   UNL     1      -3.288  14.609  21.342  0.00  0.00    +0.000 A 
ATOM     13  N   UNL     1      -2.806  14.693  22.575  0.00  0.00    +0.000 NA
ATOM     14  C   UNL     1      -3.423  15.740  23.290  0.00  0.00    +0.000 A 
ATOM     15  C   UNL     1      -3.268  16.113  24.654  0.00  0.00    +0.000 A 
ATOM     16  C   UNL     1      -2.246  15.577  25.608  0.00  0.00    +0.000 C 
ATOM     17  N   UNL     1      -4.115  17.050  25.191  0.00  0.00    +0.000 NA
ATOM     18  C   UNL     1      -5.049  17.645  24.429  0.00  0.00    +0.000 A 
ATOM     19  C   UNL     1      -5.189  17.430  23.076  0.00  0.00    +0.000 A 
ATOM     20  C   UNL     1      -4.338  16.469  22.528  0.00  0.00    +0.000 A 
ATOM     21  S   UNL     1      -4.201  16.003  20.887  0.00  0.00    +0.000 S 
ENDBRANCH  10  12
BRANCH   9  22
ATOM     22  C   UNL     1       0.579  13.252  19.846  0.00  0.00    +0.000 C 
ATOM     23  C   UNL     1       1.514  13.654  21.021  0.00  0.00    +0.000 C 
ATOM     24  C   UNL     1       2.887  13.956  20.411  0.00  0.00    +0.000 C 
ATOM     25  C   UNL     1       2.546  14.476  19.012  0.00  0.00    +0.000 C 
ATOM     26  C   UNL     1       1.333  13.640  18.558  0.00  0.00    +0.000 C 
BRANCH  24  27
ATOM     27  C   UNL     1       3.866  14.836  21.250  0.00  0.00    +0.000 C 
ATOM     28  C   UNL     1       5.366  14.606  21.017  0.00  0.00    +0.000 C 
ATOM     29  C   UNL     1       3.572  16.325  21.018  0.00  0.00    +0.000 C 
BRANCH  27  30
ATOM     30  O   UNL     1       3.638  14.609  22.648  0.00  0.00    +0.000 OA
ATOM     31  H   UNL     1       3.804  13.665  22.847  0.00  0.00    +0.000 HD
ENDBRANCH  27  30
ENDBRANCH  24  27
BRANCH  25  32
ATOM     32  O   UNL     1       3.667  14.274  18.149  0.00  0.00    +0.000 OA
ATOM     33  H   UNL     1       4.405  13.963  18.711  0.00  0.00    +0.000 HD
ENDBRANCH  25  32
BRANCH  26  34
ATOM     34  O   UNL     1       1.771  12.478  17.839  0.00  0.00    +0.000 OA
ATOM     35  H   UNL     1       2.729  12.372  17.980  0.00  0.00    +0.000 HD
ENDBRANCH  26  34
ENDBRANCH   9  22
BRANCH   5  36
ATOM     36  C   UNL     1      -2.528  10.797  16.258  0.00  0.00    +0.000 C 
BRANCH  36  37
ATOM     37  C   UNL     1      -3.093   9.801  15.256  0.00  0.00    +0.000 C 
ATOM     38  C   UNL     1      -4.152  10.154  14.228  0.00  0.00    +0.000 C 
ATOM     39  C   UNL     1      -2.739   9.926  13.787  0.00  0.00    +0.000 C 
ENDBRANCH  36  37
ENDBRANCH   5  36
TORSDOF 8
ENDMDL
