MODEL 1
REMARK VINA RESULT:      -7.9      0.000      0.000
REMARK  Name = 
REMARK  16 active torsions:
REMARK  status: ('A' for Active; 'I' for Inactive)
REMARK    1  A    between atoms: C_1  and  O_2
REMARK    2  A    between atoms: O_2  and  C_3
REMARK    3  A    between atoms: C_6  and  N_7
REMARK    4  A    between atoms: N_7  and  C_8
REMARK    5  A    between atoms: N_7  and  C_16
REMARK    6  A    between atoms: C_11  and  O_12
REMARK    7  A    between atoms: O_12  and  C_13
REMARK    8  A    between atoms: C_19  and  C_20
REMARK    9  A    between atoms: N_22  and  C_23
REMARK   10  A    between atoms: C_23  and  C_24
REMARK   11  A    between atoms: C_24  and  C_25
REMARK   12  A    between atoms: C_25  and  C_26
REMARK   13  A    between atoms: C_26  and  C_27
REMARK   14  A    between atoms: C_27  and  C_28
REMARK   15  A    between atoms: C_28  and  C_29
REMARK   16  A    between atoms: N_31  and  O_32
REMARK                            x       y       z     vdW  Elec       q    Type
REMARK                         _______ _______ _______ _____ _____    ______ ____
ROOT
ATOM      1  C   UNL     1       1.026   9.579  19.262  0.00  0.00    +0.000 A 
ATOM      2  C   UNL     1       1.849   8.866  18.378  0.00  0.00    +0.000 A 
ATOM      3  C   UNL     1       2.384   7.626  18.735  0.00  0.00    +0.000 A 
ATOM      4  C   UNL     1       2.172   7.092  20.016  0.00  0.00    +0.000 A 
ATOM      5  C   UNL     1       1.385   7.807  20.918  0.00  0.00    +0.000 A 
ATOM      6  C   UNL     1       0.805   9.013  20.533  0.00  0.00    +0.000 A 
ENDROOT
BRANCH   4   7
ATOM      7  C   UNL     1       2.806   5.784  20.344  0.00  0.00    +0.000 C 
ATOM      8  O   UNL     1       3.899   5.498  19.862  0.00  0.00    +0.000 OA
ATOM      9  N   UNL     1       2.121   4.933  21.194  0.00  0.00    +0.000 N 
ATOM     10  H   UNL     1       1.260   5.215  21.630  0.00  0.00    +0.000 HD
BRANCH   9  11
ATOM     11  C   UNL     1       2.665   3.651  21.584  0.00  0.00    +0.000 C 
BRANCH  11  12
ATOM     12  C   UNL     1       2.036   2.516  20.778  0.00  0.00    +0.000 C 
BRANCH  12  13
ATOM     13  C   UNL     1       0.731   2.962  20.116  0.00  0.00    +0.000 C 
BRANCH  13  14
ATOM     14  C   UNL     1       0.719   2.673  18.618  0.00  0.00    +0.000 C 
BRANCH  14  15
ATOM     15  C   UNL     1       1.680   3.606  17.879  0.00  0.00    +0.000 C 
BRANCH  15  16
ATOM     16  C   UNL     1       2.740   2.844  17.087  0.00  0.00    +0.000 C 
BRANCH  16  17
ATOM     17  C   UNL     1       4.117   3.448  17.273  0.00  0.00    +0.000 C 
ATOM     18  O   UNL     1       4.699   4.133  16.430  0.00  0.00    +0.000 OA
ATOM     19  N   UNL     1       4.697   3.147  18.479  0.00  0.00    +0.000 N 
ATOM     20  H   UNL     1       4.209   2.747  19.273  0.00  0.00    +0.000 HD
BRANCH  19  21
ATOM     21  O   UNL     1       5.965   3.719  18.721  0.00  0.00    +0.000 OA
ATOM     22  H   UNL     1       6.562   3.119  18.220  0.00  0.00    +0.000 HD
ENDBRANCH  19  21
ENDBRANCH  16  17
ENDBRANCH  15  16
ENDBRANCH  14  15
ENDBRANCH  13  14
ENDBRANCH  12  13
ENDBRANCH  11  12
ENDBRANCH   9  11
ENDBRANCH   4   7
BRANCH   1  23
ATOM     23  N   UNL     1       0.431  10.850  18.897  0.00  0.00    +0.000 N 
BRANCH  23  27
ATOM     24  C   UNL     1      -3.589  11.028  17.388  0.00  0.00    +0.000 A 
ATOM     25  C   UNL     1      -3.181  11.870  18.417  0.00  0.00    +0.000 A 
ATOM     26  C   UNL     1      -1.856  11.853  18.866  0.00  0.00    +0.000 A 
ATOM     27  C   UNL     1      -0.923  10.920  18.375  0.00  0.00    +0.000 A 
ATOM     28  C   UNL     1      -1.378  10.044  17.366  0.00  0.00    +0.000 A 
ATOM     29  C   UNL     1      -2.680  10.116  16.861  0.00  0.00    +0.000 A 
BRANCH  24  31
ATOM     30  C   UNL     1      -5.648  12.129  17.724  0.00  0.00    +0.000 C 
ATOM     31  O   UNL     1      -4.890  11.169  16.996  0.00  0.00    +0.000 OA
ENDBRANCH  24  31
ENDBRANCH  23  27
BRANCH  23  32
ATOM     32  C   UNL     1       1.190  12.063  19.134  0.00  0.00    +0.000 A 
ATOM     33  C   UNL     1       1.865  12.723  18.095  0.00  0.00    +0.000 A 
ATOM     34  C   UNL     1       2.596  13.885  18.339  0.00  0.00    +0.000 A 
ATOM     35  C   UNL     1       2.604  14.461  19.609  0.00  0.00    +0.000 A 
ATOM     36  C   UNL     1       1.929  13.840  20.652  0.00  0.00    +0.000 A 
ATOM     37  C   UNL     1       1.253  12.641  20.419  0.00  0.00    +0.000 A 
BRANCH  35  38
ATOM     38  O   UNL     1       3.338  15.610  19.721  0.00  0.00    +0.000 OA
ATOM     39  C   UNL     1       3.561  16.056  21.054  0.00  0.00    +0.000 C 
ENDBRANCH  35  38
ENDBRANCH  23  32
ENDBRANCH   1  23
TORSDOF 14
ENDMDL
MODEL 2
REMARK VINA RESULT:      -7.8      1.629      2.684
REMARK  Name = 
REMARK  16 active torsions:
REMARK  status: ('A' for Active; 'I' for Inactive)
REMARK    1  A    between atoms: C_1  and  O_2
REMARK    2  A    between atoms: O_2  and  C_3
REMARK    3  A    between atoms: C_6  and  N_7
REMARK    4  A    between atoms: N_7  and  C_8
REMARK    5  A    between atoms: N_7  and  C_16
REMARK    6  A    between atoms: C_11  and  O_12
REMARK    7  A    between atoms: O_12  and  C_13
REMARK    8  A    between atoms: C_19  and  C_20
REMARK    9  A    between atoms: N_22  and  C_23
REMARK   10  A    between atoms: C_23  and  C_24
REMARK   11  A    between atoms: C_24  and  C_25
REMARK   12  A    between atoms: C_25  and  C_26
REMARK   13  A    between atoms: C_26  and  C_27
REMARK   14  A    between atoms: C_27  and  C_28
REMARK   15  A    between atoms: C_28  and  C_29
REMARK   16  A    between atoms: N_31  and  O_32
REMARK                            x       y       z     vdW  Elec       q    Type
REMARK                         _______ _______ _______ _____ _____    ______ ____
ROOT
ATOM      1  C   UNL     1       1.300   9.472  18.966  0.00  0.00    +0.000 A 
ATOM      2  C   UNL     1       1.226   8.698  20.134  0.00  0.00    +0.000 A 
ATOM      3  C   UNL     1       1.915   7.487  20.238  0.00  0.00    +0.000 A 
ATOM      4  C   UNL     1       2.641   6.975  19.152  0.00  0.00    +0.000 A 
ATOM      5  C   UNL     1       2.694   7.718  17.972  0.00  0.00    +0.000 A 
ATOM      6  C   UNL     1       2.055   8.953  17.897  0.00  0.00    +0.000 A 
ENDROOT
BRANCH   4   7
ATOM      7  C   UNL     1       3.319   5.659  19.318  0.00  0.00    +0.000 C 
ATOM      8  O   UNL     1       4.478   5.617  19.726  0.00  0.00    +0.000 OA
ATOM      9  N   UNL     1       2.599   4.520  19.002  0.00  0.00    +0.000 N 
ATOM     10  H   UNL     1       1.631   4.573  18.735  0.00  0.00    +0.000 HD
BRANCH   9  11
ATOM     11  C   UNL     1       3.167   3.198  19.150  0.00  0.00    +0.000 C 
BRANCH  11  12
ATOM     12  C   UNL     1       4.111   2.871  17.995  0.00  0.00    +0.000 C 
BRANCH  12  13
ATOM     13  C   UNL     1       3.711   3.618  16.721  0.00  0.00    +0.000 C 
BRANCH  13  14
ATOM     14  C   UNL     1       4.900   4.312  16.065  0.00  0.00    +0.000 C 
BRANCH  14  15
ATOM     15  C   UNL     1       6.138   4.224  16.959  0.00  0.00    +0.000 C 
BRANCH  15  16
ATOM     16  C   UNL     1       7.062   5.429  16.795  0.00  0.00    +0.000 C 
BRANCH  16  17
ATOM     17  C   UNL     1       7.506   5.978  18.136  0.00  0.00    +0.000 C 
ATOM     18  O   UNL     1       7.967   7.107  18.311  0.00  0.00    +0.000 OA
ATOM     19  N   UNL     1       7.374   5.088  19.170  0.00  0.00    +0.000 N 
ATOM     20  H   UNL     1       6.845   4.224  19.128  0.00  0.00    +0.000 HD
BRANCH  19  21
ATOM     21  O   UNL     1       7.735   5.561  20.452  0.00  0.00    +0.000 OA
ATOM     22  H   UNL     1       8.676   5.816  20.321  0.00  0.00    +0.000 HD
ENDBRANCH  19  21
ENDBRANCH  16  17
ENDBRANCH  15  16
ENDBRANCH  14  15
ENDBRANCH  13  14
ENDBRANCH  12  13
ENDBRANCH  11  12
ENDBRANCH   9  11
ENDBRANCH   4   7
BRANCH   1  23
ATOM     23  N   UNL     1       0.622  10.749  18.851  0.00  0.00    +0.000 N 
BRANCH  23  27
ATOM     24  C   UNL     1      -3.525  10.987  17.750  0.00  0.00    +0.000 A 
ATOM     25  C   UNL     1      -2.679  10.070  17.133  0.00  0.00    +0.000 A 
ATOM     26  C   UNL     1      -1.345   9.952  17.535  0.00  0.00    +0.000 A 
ATOM     27  C   UNL     1      -0.783  10.820  18.491  0.00  0.00    +0.000 A 
ATOM     28  C   UNL     1      -1.651  11.774  19.065  0.00  0.00    +0.000 A 
ATOM     29  C   UNL     1      -3.005  11.836  18.722  0.00  0.00    +0.000 A 
BRANCH  24  31
ATOM     30  C   UNL     1      -5.652  12.000  17.848  0.00  0.00    +0.000 C 
ATOM     31  O   UNL     1      -4.819  10.977  17.314  0.00  0.00    +0.000 OA
ENDBRANCH  24  31
ENDBRANCH  23  27
BRANCH  23  32
ATOM     32  C   UNL     1       1.360  11.955  19.176  0.00  0.00    +0.000 A 
ATOM     33  C   UNL     1       1.470  12.417  20.497  0.00  0.00    +0.000 A 
ATOM     34  C   UNL     1       2.179  13.581  20.793  0.00  0.00    +0.000 A 
ATOM     35  C   UNL     1       2.861  14.267  19.789  0.00  0.00    +0.000 A 
ATOM     36  C   UNL     1       2.785  13.823  18.476  0.00  0.00    +0.000 A 
ATOM     37  C   UNL     1       2.021  12.695  18.173  0.00  0.00    +0.000 A 
BRANCH  35  38
ATOM     38  O   UNL     1       3.537  15.381  20.205  0.00  0.00    +0.000 OA
ATOM     39  C   UNL     1       3.697  16.394  19.217  0.00  0.00    +0.000 C 
ENDBRANCH  35  38
ENDBRANCH  23  32
ENDBRANCH   1  23
TORSDOF 14
ENDMDL
MODEL 3
REMARK VINA RESULT:      -7.7      0.977      1.594
REMARK  Name = 
REMARK  16 active torsions:
REMARK  status: ('A' for Active; 'I' for Inactive)
REMARK    1  A    between atoms: C_1  and  O_2
REMARK    2  A    between atoms: O_2  and  C_3
REMARK    3  A    between atoms: C_6  and  N_7
REMARK    4  A    between atoms: N_7  and  C_8
REMARK    5  A    between atoms: N_7  and  C_16
REMARK    6  A    between atoms: C_11  and  O_12
REMARK    7  A    between atoms: O_12  and  C_13
REMARK    8  A    between atoms: C_19  and  C_20
REMARK    9  A    between atoms: N_22  and  C_23
REMARK   10  A    between atoms: C_23  and  C_24
REMARK   11  A    between atoms: C_24  and  C_25
REMARK   12  A    between atoms: C_25  and  C_26
REMARK   13  A    between atoms: C_26  and  C_27
REMARK   14  A    between atoms: C_27  and  C_28
REMARK   15  A    between atoms: C_28  and  C_29
REMARK   16  A    between atoms: N_31  and  O_32
REMARK                            x       y       z     vdW  Elec       q    Type
REMARK                         _______ _______ _______ _____ _____    ______ ____
ROOT
ATOM      1  C   UNL     1       0.652  10.194  18.947  0.00  0.00    +0.000 A 
ATOM      2  C   UNL     1       0.637   9.655  20.242  0.00  0.00    +0.000 A 
ATOM      3  C   UNL     1       1.308   8.465  20.533  0.00  0.00    +0.000 A 
ATOM      4  C   UNL     1       1.955   7.736  19.523  0.00  0.00    +0.000 A 
ATOM      5  C   UNL     1       1.948   8.242  18.223  0.00  0.00    +0.000 A 
ATOM      6  C   UNL     1       1.328   9.460  17.953  0.00  0.00    +0.000 A 
ENDROOT
BRANCH   4   7
ATOM      7  C   UNL     1       2.617   6.455  19.896  0.00  0.00    +0.000 C 
ATOM      8  O   UNL     1       3.736   6.196  19.457  0.00  0.00    +0.000 OA
ATOM      9  N   UNL     1       1.930   5.597  20.737  0.00  0.00    +0.000 N 
ATOM     10  H   UNL     1       1.046   5.858  21.138  0.00  0.00    +0.000 HD
BRANCH   9  11
ATOM     11  C   UNL     1       2.500   4.340  21.168  0.00  0.00    +0.000 C 
BRANCH  11  12
ATOM     12  C   UNL     1       1.501   3.196  21.007  0.00  0.00    +0.000 C 
BRANCH  12  13
ATOM     13  C   UNL     1       0.894   3.182  19.603  0.00  0.00    +0.000 C 
BRANCH  13  14
ATOM     14  C   UNL     1       1.258   1.917  18.833  0.00  0.00    +0.000 C 
BRANCH  14  15
ATOM     15  C   UNL     1       2.631   2.061  18.175  0.00  0.00    +0.000 C 
BRANCH  15  16
ATOM     16  C   UNL     1       2.790   3.393  17.442  0.00  0.00    +0.000 C 
BRANCH  16  17
ATOM     17  C   UNL     1       4.248   3.731  17.210  0.00  0.00    +0.000 C 
ATOM     18  O   UNL     1       4.723   4.067  16.124  0.00  0.00    +0.000 OA
ATOM     19  N   UNL     1       5.031   3.608  18.329  0.00  0.00    +0.000 N 
ATOM     20  H   UNL     1       4.679   3.512  19.275  0.00  0.00    +0.000 HD
BRANCH  19  21
ATOM     21  O   UNL     1       6.394   3.950  18.179  0.00  0.00    +0.000 OA
ATOM     22  H   UNL     1       6.409   4.349  17.281  0.00  0.00    +0.000 HD
ENDBRANCH  19  21
ENDBRANCH  16  17
ENDBRANCH  15  16
ENDBRANCH  14  15
ENDBRANCH  13  14
ENDBRANCH  12  13
ENDBRANCH  11  12
ENDBRANCH   9  11
ENDBRANCH   4   7
BRANCH   1  23
ATOM     23  N   UNL     1      -0.007  11.447  18.632  0.00  0.00    +0.000 N 
BRANCH  23  27
ATOM     24  C   UNL     1      -4.231  11.635  17.862  0.00  0.00    +0.000 A 
ATOM     25  C   UNL     1      -3.347  11.222  16.870  0.00  0.00    +0.000 A 
ATOM     26  C   UNL     1      -1.980  11.103  17.140  0.00  0.00    +0.000 A 
ATOM     27  C   UNL     1      -1.437  11.496  18.378  0.00  0.00    +0.000 A 
ATOM     28  C   UNL     1      -2.350  11.959  19.350  0.00  0.00    +0.000 A 
ATOM     29  C   UNL     1      -3.726  12.000  19.106  0.00  0.00    +0.000 A 
BRANCH  24  31
ATOM     30  C   UNL     1      -6.428  10.924  18.341  0.00  0.00    +0.000 C 
ATOM     31  O   UNL     1      -5.548  11.663  17.500  0.00  0.00    +0.000 OA
ENDBRANCH  24  31
ENDBRANCH  23  27
BRANCH  23  32
ATOM     32  C   UNL     1       0.779  12.665  18.648  0.00  0.00    +0.000 A 
ATOM     33  C   UNL     1       0.194  13.915  18.905  0.00  0.00    +0.000 A 
ATOM     34  C   UNL     1       0.963  15.079  18.912  0.00  0.00    +0.000 A 
ATOM     35  C   UNL     1       2.345  15.013  18.744  0.00  0.00    +0.000 A 
ATOM     36  C   UNL     1       2.953  13.788  18.507  0.00  0.00    +0.000 A 
ATOM     37  C   UNL     1       2.173  12.633  18.435  0.00  0.00    +0.000 A 
BRANCH  35  38
ATOM     38  O   UNL     1       2.993  16.217  18.791  0.00  0.00    +0.000 OA
ATOM     39  C   UNL     1       3.948  16.348  19.839  0.00  0.00    +0.000 C 
ENDBRANCH  35  38
ENDBRANCH  23  32
ENDBRANCH   1  23
TORSDOF 14
ENDMDL
MODEL 4
REMARK VINA RESULT:      -7.7      0.627      1.303
REMARK  Name = 
REMARK  16 active torsions:
REMARK  status: ('A' for Active; 'I' for Inactive)
REMARK    1  A    between atoms: C_1  and  O_2
REMARK    2  A    between atoms: O_2  and  C_3
REMARK    3  A    between atoms: C_6  and  N_7
REMARK    4  A    between atoms: N_7  and  C_8
REMARK    5  A    between atoms: N_7  and  C_16
REMARK    6  A    between atoms: C_11  and  O_12
REMARK    7  A    between atoms: O_12  and  C_13
REMARK    8  A    between atoms: C_19  and  C_20
REMARK    9  A    between atoms: N_22  and  C_23
REMARK   10  A    between atoms: C_23  and  C_24
REMARK   11  A    between atoms: C_24  and  C_25
REMARK   12  A    between atoms: C_25  and  C_26
REMARK   13  A    between atoms: C_26  and  C_27
REMARK   14  A    between atoms: C_27  and  C_28
REMARK   15  A    between atoms: C_28  and  C_29
REMARK   16  A    between atoms: N_31  and  O_32
REMARK                            x       y       z     vdW  Elec       q    Type
REMARK                         _______ _______ _______ _____ _____    ______ ____
ROOT
ATOM      1  C   UNL     1       1.134   9.750  19.438  0.00  0.00    +0.000 A 
ATOM      2  C   UNL     1       0.980   9.137  20.691  0.00  0.00    +0.000 A 
ATOM      3  C   UNL     1       1.550   7.889  20.956  0.00  0.00    +0.000 A 
ATOM      4  C   UNL     1       2.231   7.181  19.954  0.00  0.00    +0.000 A 
ATOM      5  C   UNL     1       2.362   7.763  18.693  0.00  0.00    +0.000 A 
ATOM      6  C   UNL     1       1.844   9.034  18.455  0.00  0.00    +0.000 A 
ENDROOT
BRANCH   4   7
ATOM      7  C   UNL     1       2.780   5.838  20.294  0.00  0.00    +0.000 C 
ATOM      8  O   UNL     1       3.813   5.448  19.755  0.00  0.00    +0.000 OA
ATOM      9  N   UNL     1       2.089   5.076  21.220  0.00  0.00    +0.000 N 
ATOM     10  H   UNL     1       1.284   5.442  21.698  0.00  0.00    +0.000 HD
BRANCH   9  11
ATOM     11  C   UNL     1       2.555   3.769  21.625  0.00  0.00    +0.000 C 
BRANCH  11  12
ATOM     12  C   UNL     1       1.955   2.672  20.748  0.00  0.00    +0.000 C 
BRANCH  12  13
ATOM     13  C   UNL     1       0.676   3.150  20.058  0.00  0.00    +0.000 C 
BRANCH  13  14
ATOM     14  C   UNL     1       0.603   2.693  18.605  0.00  0.00    +0.000 C 
BRANCH  14  15
ATOM     15  C   UNL     1       1.688   3.372  17.769  0.00  0.00    +0.000 C 
BRANCH  15  16
ATOM     16  C   UNL     1       2.882   2.456  17.508  0.00  0.00    +0.000 C 
BRANCH  16  17
ATOM     17  C   UNL     1       4.189   3.222  17.529  0.00  0.00    +0.000 C 
ATOM     18  O   UNL     1       4.605   3.918  16.602  0.00  0.00    +0.000 OA
ATOM     19  N   UNL     1       4.909   3.058  18.684  0.00  0.00    +0.000 N 
ATOM     20  H   UNL     1       4.547   2.652  19.540  0.00  0.00    +0.000 HD
BRANCH  19  21
ATOM     21  O   UNL     1       6.118   3.784  18.775  0.00  0.00    +0.000 OA
ATOM     22  H   UNL     1       6.428   3.558  19.680  0.00  0.00    +0.000 HD
ENDBRANCH  19  21
ENDBRANCH  16  17
ENDBRANCH  15  16
ENDBRANCH  14  15
ENDBRANCH  13  14
ENDBRANCH  12  13
ENDBRANCH  11  12
ENDBRANCH   9  11
ENDBRANCH   4   7
BRANCH   1  23
ATOM     23  N   UNL     1       0.582  11.061  19.155  0.00  0.00    +0.000 N 
BRANCH  23  27
ATOM     24  C   UNL     1      -3.620  11.538  18.397  0.00  0.00    +0.000 A 
ATOM     25  C   UNL     1      -3.005  12.230  19.435  0.00  0.00    +0.000 A 
ATOM     26  C   UNL     1      -1.626  12.120  19.642  0.00  0.00    +0.000 A 
ATOM     27  C   UNL     1      -0.835  11.233  18.887  0.00  0.00    +0.000 A 
ATOM     28  C   UNL     1      -1.495  10.506  17.873  0.00  0.00    +0.000 A 
ATOM     29  C   UNL     1      -2.858  10.678  17.613  0.00  0.00    +0.000 A 
BRANCH  24  31
ATOM     30  C   UNL     1      -5.413  11.945  16.918  0.00  0.00    +0.000 C 
ATOM     31  O   UNL     1      -4.961  11.763  18.256  0.00  0.00    +0.000 OA
ENDBRANCH  24  31
ENDBRANCH  23  27
BRANCH  23  32
ATOM     32  C   UNL     1       1.464  12.211  19.217  0.00  0.00    +0.000 A 
ATOM     33  C   UNL     1       1.800  12.814  20.439  0.00  0.00    +0.000 A 
ATOM     34  C   UNL     1       2.645  13.923  20.483  0.00  0.00    +0.000 A 
ATOM     35  C   UNL     1       3.238  14.405  19.317  0.00  0.00    +0.000 A 
ATOM     36  C   UNL     1       2.937  13.816  18.096  0.00  0.00    +0.000 A 
ATOM     37  C   UNL     1       2.040  12.748  18.047  0.00  0.00    +0.000 A 
BRANCH  35  38
ATOM     38  O   UNL     1       4.063  15.483  19.488  0.00  0.00    +0.000 OA
ATOM     39  C   UNL     1       3.492  16.742  19.149  0.00  0.00    +0.000 C 
ENDBRANCH  35  38
ENDBRANCH  23  32
ENDBRANCH   1  23
TORSDOF 14
ENDMDL
MODEL 5
REMARK VINA RESULT:      -7.7      1.815      2.697
REMARK  Name = 
REMARK  16 active torsions:
REMARK  status: ('A' for Active; 'I' for Inactive)
REMARK    1  A    between atoms: C_1  and  O_2
REMARK    2  A    between atoms: O_2  and  C_3
REMARK    3  A    between atoms: C_6  and  N_7
REMARK    4  A    between atoms: N_7  and  C_8
REMARK    5  A    between atoms: N_7  and  C_16
REMARK    6  A    between atoms: C_11  and  O_12
REMARK    7  A    between atoms: O_12  and  C_13
REMARK    8  A    between atoms: C_19  and  C_20
REMARK    9  A    between atoms: N_22  and  C_23
REMARK   10  A    between atoms: C_23  and  C_24
REMARK   11  A    between atoms: C_24  and  C_25
REMARK   12  A    between atoms: C_25  and  C_26
REMARK   13  A    between atoms: C_26  and  C_27
REMARK   14  A    between atoms: C_27  and  C_28
REMARK   15  A    between atoms: C_28  and  C_29
REMARK   16  A    between atoms: N_31  and  O_32
REMARK                            x       y       z     vdW  Elec       q    Type
REMARK                         _______ _______ _______ _____ _____    ______ ____
ROOT
ATOM      1  C   UNL     1       1.130   9.818  19.259  0.00  0.00    +0.000 A 
ATOM      2  C   UNL     1       1.028   9.075  20.445  0.00  0.00    +0.000 A 
ATOM      3  C   UNL     1       1.573   7.793  20.540  0.00  0.00    +0.000 A 
ATOM      4  C   UNL     1       2.175   7.182  19.429  0.00  0.00    +0.000 A 
ATOM      5  C   UNL     1       2.252   7.895  18.233  0.00  0.00    +0.000 A 
ATOM      6  C   UNL     1       1.760   9.196  18.164  0.00  0.00    +0.000 A 
ENDROOT
BRANCH   4   7
ATOM      7  C   UNL     1       2.700   5.796  19.589  0.00  0.00    +0.000 C 
ATOM      8  O   UNL     1       1.995   4.933  20.107  0.00  0.00    +0.000 OA
ATOM      9  N   UNL     1       3.982   5.539  19.137  0.00  0.00    +0.000 N 
ATOM     10  H   UNL     1       4.515   6.241  18.655  0.00  0.00    +0.000 HD
BRANCH   9  11
ATOM     11  C   UNL     1       4.569   4.221  19.232  0.00  0.00    +0.000 C 
BRANCH  11  12
ATOM     12  C   UNL     1       4.317   3.410  17.963  0.00  0.00    +0.000 C 
BRANCH  12  13
ATOM     13  C   UNL     1       4.546   4.255  16.709  0.00  0.00    +0.000 C 
BRANCH  13  14
ATOM     14  C   UNL     1       5.733   3.759  15.891  0.00  0.00    +0.000 C 
BRANCH  14  15
ATOM     15  C   UNL     1       6.723   4.895  15.630  0.00  0.00    +0.000 C 
BRANCH  15  16
ATOM     16  C   UNL     1       6.879   5.821  16.835  0.00  0.00    +0.000 C 
BRANCH  16  17
ATOM     17  C   UNL     1       7.703   5.177  17.930  0.00  0.00    +0.000 C 
ATOM     18  O   UNL     1       8.347   4.134  17.798  0.00  0.00    +0.000 OA
ATOM     19  N   UNL     1       7.660   5.848  19.125  0.00  0.00    +0.000 N 
ATOM     20  H   UNL     1       7.303   6.789  19.248  0.00  0.00    +0.000 HD
BRANCH  19  21
ATOM     21  O   UNL     1       8.445   5.313  20.171  0.00  0.00    +0.000 OA
ATOM     22  H   UNL     1       9.336   5.268  19.759  0.00  0.00    +0.000 HD
ENDBRANCH  19  21
ENDBRANCH  16  17
ENDBRANCH  15  16
ENDBRANCH  14  15
ENDBRANCH  13  14
ENDBRANCH  12  13
ENDBRANCH  11  12
ENDBRANCH   9  11
ENDBRANCH   4   7
BRANCH   1  23
ATOM     23  N   UNL     1       0.603  11.165  19.152  0.00  0.00    +0.000 N 
BRANCH  23  27
ATOM     24  C   UNL     1      -3.618  11.825  18.692  0.00  0.00    +0.000 A 
ATOM     25  C   UNL     1      -2.921  12.406  19.747  0.00  0.00    +0.000 A 
ATOM     26  C   UNL     1      -1.537  12.239  19.861  0.00  0.00    +0.000 A 
ATOM     27  C   UNL     1      -0.821  11.399  18.986  0.00  0.00    +0.000 A 
ATOM     28  C   UNL     1      -1.562  10.783  17.955  0.00  0.00    +0.000 A 
ATOM     29  C   UNL     1      -2.931  11.015  17.794  0.00  0.00    +0.000 A 
BRANCH  24  31
ATOM     30  C   UNL     1      -5.764  11.111  18.020  0.00  0.00    +0.000 C 
ATOM     31  O   UNL     1      -4.956  12.099  18.652  0.00  0.00    +0.000 OA
ENDBRANCH  24  31
ENDBRANCH  23  27
BRANCH  23  32
ATOM     32  C   UNL     1       1.521  12.279  19.288  0.00  0.00    +0.000 A 
ATOM     33  C   UNL     1       2.078  12.914  18.168  0.00  0.00    +0.000 A 
ATOM     34  C   UNL     1       2.964  13.982  18.315  0.00  0.00    +0.000 A 
ATOM     35  C   UNL     1       3.250  14.492  19.580  0.00  0.00    +0.000 A 
ATOM     36  C   UNL     1       2.698  13.896  20.706  0.00  0.00    +0.000 A 
ATOM     37  C   UNL     1       1.864  12.786  20.559  0.00  0.00    +0.000 A 
BRANCH  35  38
ATOM     38  O   UNL     1       4.115  15.552  19.596  0.00  0.00    +0.000 OA
ATOM     39  C   UNL     1       4.033  16.416  18.468  0.00  0.00    +0.000 C 
ENDBRANCH  35  38
ENDBRANCH  23  32
ENDBRANCH   1  23
TORSDOF 14
ENDMDL
MODEL 6
REMARK VINA RESULT:      -7.6      0.937      4.734
REMARK  Name = 
REMARK  16 active torsions:
REMARK  status: ('A' for Active; 'I' for Inactive)
REMARK    1  A    between atoms: C_1  and  O_2
REMARK    2  A    between atoms: O_2  and  C_3
REMARK    3  A    between atoms: C_6  and  N_7
REMARK    4  A    between atoms: N_7  and  C_8
REMARK    5  A    between atoms: N_7  and  C_16
REMARK    6  A    between atoms: C_11  and  O_12
REMARK    7  A    between atoms: O_12  and  C_13
REMARK    8  A    between atoms: C_19  and  C_20
REMARK    9  A    between atoms: N_22  and  C_23
REMARK   10  A    between atoms: C_23  and  C_24
REMARK   11  A    between atoms: C_24  and  C_25
REMARK   12  A    between atoms: C_25  and  C_26
REMARK   13  A    between atoms: C_26  and  C_27
REMARK   14  A    between atoms: C_27  and  C_28
REMARK   15  A    between atoms: C_28  and  C_29
REMARK   16  A    between atoms: N_31  and  O_32
REMARK                            x       y       z     vdW  Elec       q    Type
REMARK                         _______ _______ _______ _____ _____    ______ ____
ROOT
ATOM      1  C   UNL     1       0.823   9.826  19.400  0.00  0.00    +0.000 A 
ATOM      2  C   UNL     1       0.697   9.159  20.627  0.00  0.00    +0.000 A 
ATOM      3  C   UNL     1       1.374   7.960  20.867  0.00  0.00    +0.000 A 
ATOM      4  C   UNL     1       2.140   7.352  19.862  0.00  0.00    +0.000 A 
ATOM      5  C   UNL     1       2.246   7.986  18.624  0.00  0.00    +0.000 A 
ATOM      6  C   UNL     1       1.618   9.212  18.413  0.00  0.00    +0.000 A 
ENDROOT
BRANCH   4   7
ATOM      7  C   UNL     1       2.803   6.054  20.173  0.00  0.00    +0.000 C 
ATOM      8  O   UNL     1       3.911   5.807  19.700  0.00  0.00    +0.000 OA
ATOM      9  N   UNL     1       2.130   5.169  20.996  0.00  0.00    +0.000 N 
ATOM     10  H   UNL     1       1.256   5.419  21.425  0.00  0.00    +0.000 HD
BRANCH   9  11
ATOM     11  C   UNL     1       2.702   3.894  21.368  0.00  0.00    +0.000 C 
BRANCH  11  12
ATOM     12  C   UNL     1       1.689   2.764  21.199  0.00  0.00    +0.000 C 
BRANCH  12  13
ATOM     13  C   UNL     1       0.596   3.142  20.197  0.00  0.00    +0.000 C 
BRANCH  13  14
ATOM     14  C   UNL     1       0.886   2.603  18.800  0.00  0.00    +0.000 C 
BRANCH  14  15
ATOM     15  C   UNL     1       1.475   3.698  17.910  0.00  0.00    +0.000 C 
BRANCH  15  16
ATOM     16  C   UNL     1       2.645   3.197  17.065  0.00  0.00    +0.000 C 
BRANCH  16  17
ATOM     17  C   UNL     1       3.718   2.558  17.922  0.00  0.00    +0.000 C 
ATOM     18  O   UNL     1       4.644   3.173  18.455  0.00  0.00    +0.000 OA
ATOM     19  N   UNL     1       3.593   1.198  18.046  0.00  0.00    +0.000 N 
ATOM     20  H   UNL     1       2.770   0.666  17.788  0.00  0.00    +0.000 HD
BRANCH  19  21
ATOM     21  O   UNL     1       4.545   0.556  18.869  0.00  0.00    +0.000 OA
ATOM     22  H   UNL     1       3.978   0.137  19.554  0.00  0.00    +0.000 HD
ENDBRANCH  19  21
ENDBRANCH  16  17
ENDBRANCH  15  16
ENDBRANCH  14  15
ENDBRANCH  13  14
ENDBRANCH  12  13
ENDBRANCH  11  12
ENDBRANCH   9  11
ENDBRANCH   4   7
BRANCH   1  23
ATOM     23  N   UNL     1       0.158  11.089  19.144  0.00  0.00    +0.000 N 
BRANCH  23  27
ATOM     24  C   UNL     1       2.106  14.848  19.879  0.00  0.00    +0.000 A 
ATOM     25  C   UNL     1       1.381  14.217  20.885  0.00  0.00    +0.000 A 
ATOM     26  C   UNL     1       0.798  12.965  20.662  0.00  0.00    +0.000 A 
ATOM     27  C   UNL     1       0.830  12.352  19.395  0.00  0.00    +0.000 A 
ATOM     28  C   UNL     1       1.530  13.038  18.380  0.00  0.00    +0.000 A 
ATOM     29  C   UNL     1       2.182  14.250  18.625  0.00  0.00    +0.000 A 
BRANCH  24  31
ATOM     30  C   UNL     1       2.577  17.071  19.249  0.00  0.00    +0.000 C 
ATOM     31  O   UNL     1       2.675  16.040  20.226  0.00  0.00    +0.000 OA
ENDBRANCH  24  31
ENDBRANCH  23  27
BRANCH  23  32
ATOM     32  C   UNL     1      -1.170  11.066  18.559  0.00  0.00    +0.000 A 
ATOM     33  C   UNL     1      -2.161  11.979  18.951  0.00  0.00    +0.000 A 
ATOM     34  C   UNL     1      -3.436  11.941  18.384  0.00  0.00    +0.000 A 
ATOM     35  C   UNL     1      -3.724  11.045  17.356  0.00  0.00    +0.000 A 
ATOM     36  C   UNL     1      -2.756  10.143  16.935  0.00  0.00    +0.000 A 
ATOM     37  C   UNL     1      -1.503  10.139  17.549  0.00  0.00    +0.000 A 
BRANCH  35  38
ATOM     38  O   UNL     1      -4.999  11.116  16.865  0.00  0.00    +0.000 OA
ATOM     39  C   UNL     1      -5.814  12.130  17.445  0.00  0.00    +0.000 C 
ENDBRANCH  35  38
ENDBRANCH  23  32
ENDBRANCH   1  23
TORSDOF 14
ENDMDL
MODEL 7
REMARK VINA RESULT:      -7.5      1.360      1.995
REMARK  Name = 
REMARK  16 active torsions:
REMARK  status: ('A' for Active; 'I' for Inactive)
REMARK    1  A    between atoms: C_1  and  O_2
REMARK    2  A    between atoms: O_2  and  C_3
REMARK    3  A    between atoms: C_6  and  N_7
REMARK    4  A    between atoms: N_7  and  C_8
REMARK    5  A    between atoms: N_7  and  C_16
REMARK    6  A    between atoms: C_11  and  O_12
REMARK    7  A    between atoms: O_12  and  C_13
REMARK    8  A    between atoms: C_19  and  C_20
REMARK    9  A    between atoms: N_22  and  C_23
REMARK   10  A    between atoms: C_23  and  C_24
REMARK   11  A    between atoms: C_24  and  C_25
REMARK   12  A    between atoms: C_25  and  C_26
REMARK   13  A    between atoms: C_26  and  C_27
REMARK   14  A    between atoms: C_27  and  C_28
REMARK   15  A    between atoms: C_28  and  C_29
REMARK   16  A    between atoms: N_31  and  O_32
REMARK                            x       y       z     vdW  Elec       q    Type
REMARK                         _______ _______ _______ _____ _____    ______ ____
ROOT
ATOM      1  C   UNL     1       1.239   9.454  19.080  0.00  0.00    +0.000 A 
ATOM      2  C   UNL     1       1.962   8.835  18.049  0.00  0.00    +0.000 A 
ATOM      3  C   UNL     1       2.546   7.579  18.234  0.00  0.00    +0.000 A 
ATOM      4  C   UNL     1       2.488   6.934  19.479  0.00  0.00    +0.000 A 
ATOM      5  C   UNL     1       1.802   7.554  20.523  0.00  0.00    +0.000 A 
ATOM      6  C   UNL     1       1.171   8.778  20.313  0.00  0.00    +0.000 A 
ENDROOT
BRANCH   4   7
ATOM      7  C   UNL     1       3.166   5.615  19.617  0.00  0.00    +0.000 C 
ATOM      8  O   UNL     1       4.320   5.564  20.039  0.00  0.00    +0.000 OA
ATOM      9  N   UNL     1       2.453   4.484  19.260  0.00  0.00    +0.000 N 
ATOM     10  H   UNL     1       1.489   4.543  18.982  0.00  0.00    +0.000 HD
BRANCH   9  11
ATOM     11  C   UNL     1       3.022   3.160  19.378  0.00  0.00    +0.000 C 
BRANCH  11  12
ATOM     12  C   UNL     1       3.260   2.536  18.004  0.00  0.00    +0.000 C 
BRANCH  12  13
ATOM     13  C   UNL     1       3.045   3.558  16.886  0.00  0.00    +0.000 C 
BRANCH  13  14
ATOM     14  C   UNL     1       4.315   3.797  16.075  0.00  0.00    +0.000 C 
BRANCH  14  15
ATOM     15  C   UNL     1       5.205   4.836  16.757  0.00  0.00    +0.000 C 
BRANCH  15  16
ATOM     16  C   UNL     1       6.692   4.575  16.521  0.00  0.00    +0.000 C 
BRANCH  16  17
ATOM     17  C   UNL     1       7.475   4.602  17.817  0.00  0.00    +0.000 C 
ATOM     18  O   UNL     1       8.579   4.079  17.978  0.00  0.00    +0.000 OA
ATOM     19  N   UNL     1       6.833   5.253  18.839  0.00  0.00    +0.000 N 
ATOM     20  H   UNL     1       6.020   5.849  18.727  0.00  0.00    +0.000 HD
BRANCH  19  21
ATOM     21  O   UNL     1       7.537   5.344  20.061  0.00  0.00    +0.000 OA
ATOM     22  H   UNL     1       8.066   6.163  19.935  0.00  0.00    +0.000 HD
ENDBRANCH  19  21
ENDBRANCH  16  17
ENDBRANCH  15  16
ENDBRANCH  14  15
ENDBRANCH  13  14
ENDBRANCH  12  13
ENDBRANCH  11  12
ENDBRANCH   9  11
ENDBRANCH   4   7
BRANCH   1  23
ATOM     23  N   UNL     1       0.595  10.740  18.897  0.00  0.00    +0.000 N 
BRANCH  23  27
ATOM     24  C   UNL     1      -3.598  10.975  17.985  0.00  0.00    +0.000 A 
ATOM     25  C   UNL     1      -3.039  11.791  18.963  0.00  0.00    +0.000 A 
ATOM     26  C   UNL     1      -1.664  11.757  19.216  0.00  0.00    +0.000 A 
ATOM     27  C   UNL     1      -0.819  10.829  18.576  0.00  0.00    +0.000 A 
ATOM     28  C   UNL     1      -1.422   9.979  17.625  0.00  0.00    +0.000 A 
ATOM     29  C   UNL     1      -2.782  10.070  17.313  0.00  0.00    +0.000 A 
BRANCH  24  31
ATOM     30  C   UNL     1      -5.305  12.089  16.797  0.00  0.00    +0.000 C 
ATOM     31  O   UNL     1      -4.941  11.132  17.787  0.00  0.00    +0.000 OA
ENDBRANCH  24  31
ENDBRANCH  23  27
BRANCH  23  32
ATOM     32  C   UNL     1       1.377  11.943  19.114  0.00  0.00    +0.000 A 
ATOM     33  C   UNL     1       1.882  12.695  18.042  0.00  0.00    +0.000 A 
ATOM     34  C   UNL     1       2.637  13.846  18.267  0.00  0.00    +0.000 A 
ATOM     35  C   UNL     1       2.835  14.318  19.563  0.00  0.00    +0.000 A 
ATOM     36  C   UNL     1       2.331  13.605  20.642  0.00  0.00    +0.000 A 
ATOM     37  C   UNL     1       1.632  12.417  20.418  0.00  0.00    +0.000 A 
BRANCH  35  38
ATOM     38  O   UNL     1       3.573  15.467  19.656  0.00  0.00    +0.000 OA
ATOM     39  C   UNL     1       4.559  15.470  20.682  0.00  0.00    +0.000 C 
ENDBRANCH  35  38
ENDBRANCH  23  32
ENDBRANCH   1  23
TORSDOF 14
ENDMDL
MODEL 8
REMARK VINA RESULT:      -7.5      1.627      2.267
REMARK  Name = 
REMARK  16 active torsions:
REMARK  status: ('A' for Active; 'I' for Inactive)
REMARK    1  A    between atoms: C_1  and  O_2
REMARK    2  A    between atoms: O_2  and  C_3
REMARK    3  A    between atoms: C_6  and  N_7
REMARK    4  A    between atoms: N_7  and  C_8
REMARK    5  A    between atoms: N_7  and  C_16
REMARK    6  A    between atoms: C_11  and  O_12
REMARK    7  A    between atoms: O_12  and  C_13
REMARK    8  A    between atoms: C_19  and  C_20
REMARK    9  A    between atoms: N_22  and  C_23
REMARK   10  A    between atoms: C_23  and  C_24
REMARK   11  A    between atoms: C_24  and  C_25
REMARK   12  A    between atoms: C_25  and  C_26
REMARK   13  A    between atoms: C_26  and  C_27
REMARK   14  A    between atoms: C_27  and  C_28
REMARK   15  A    between atoms: C_28  and  C_29
REMARK   16  A    between atoms: N_31  and  O_32
REMARK                            x       y       z     vdW  Elec       q    Type
REMARK                         _______ _______ _______ _____ _____    ______ ____
ROOT
ATOM      1  C   UNL     1       1.158   9.515  19.082  0.00  0.00    +0.000 A 
ATOM      2  C   UNL     1       1.072   8.813  20.293  0.00  0.00    +0.000 A 
ATOM      3  C   UNL     1       1.735   7.596  20.468  0.00  0.00    +0.000 A 
ATOM      4  C   UNL     1       2.447   7.005  19.412  0.00  0.00    +0.000 A 
ATOM      5  C   UNL     1       2.512   7.676  18.191  0.00  0.00    +0.000 A 
ATOM      6  C   UNL     1       1.899   8.918  18.044  0.00  0.00    +0.000 A 
ENDROOT
BRANCH   4   7
ATOM      7  C   UNL     1       3.097   5.687  19.655  0.00  0.00    +0.000 C 
ATOM      8  O   UNL     1       4.322   5.615  19.723  0.00  0.00    +0.000 OA
ATOM      9  N   UNL     1       2.277   4.581  19.798  0.00  0.00    +0.000 N 
ATOM     10  H   UNL     1       1.276   4.674  19.806  0.00  0.00    +0.000 HD
BRANCH   9  11
ATOM     11  C   UNL     1       2.816   3.265  20.054  0.00  0.00    +0.000 C 
BRANCH  11  12
ATOM     12  C   UNL     1       2.794   2.403  18.794  0.00  0.00    +0.000 C 
BRANCH  12  13
ATOM     13  C   UNL     1       3.970   2.734  17.873  0.00  0.00    +0.000 C 
BRANCH  13  14
ATOM     14  C   UNL     1       3.585   3.735  16.788  0.00  0.00    +0.000 C 
BRANCH  14  15
ATOM     15  C   UNL     1       4.791   4.584  16.384  0.00  0.00    +0.000 C 
BRANCH  15  16
ATOM     16  C   UNL     1       5.982   3.733  15.945  0.00  0.00    +0.000 C 
BRANCH  16  17
ATOM     17  C   UNL     1       6.605   4.261  14.669  0.00  0.00    +0.000 C 
ATOM     18  O   UNL     1       7.348   5.242  14.608  0.00  0.00    +0.000 OA
ATOM     19  N   UNL     1       6.250   3.558  13.547  0.00  0.00    +0.000 N 
ATOM     20  H   UNL     1       5.796   2.651  13.550  0.00  0.00    +0.000 HD
BRANCH  19  21
ATOM     21  O   UNL     1       6.835   3.983  12.333  0.00  0.00    +0.000 OA
ATOM     22  H   UNL     1       6.096   4.472  11.907  0.00  0.00    +0.000 HD
ENDBRANCH  19  21
ENDBRANCH  16  17
ENDBRANCH  15  16
ENDBRANCH  14  15
ENDBRANCH  13  14
ENDBRANCH  12  13
ENDBRANCH  11  12
ENDBRANCH   9  11
ENDBRANCH   4   7
BRANCH   1  23
ATOM     23  N   UNL     1       0.508  10.797  18.893  0.00  0.00    +0.000 N 
BRANCH  23  27
ATOM     24  C   UNL     1      -3.617  11.003  17.705  0.00  0.00    +0.000 A 
ATOM     25  C   UNL     1      -3.136  11.803  18.737  0.00  0.00    +0.000 A 
ATOM     26  C   UNL     1      -1.780  11.779  19.081  0.00  0.00    +0.000 A 
ATOM     27  C   UNL     1      -0.883  10.877  18.480  0.00  0.00    +0.000 A 
ATOM     28  C   UNL     1      -1.408  10.041  17.471  0.00  0.00    +0.000 A 
ATOM     29  C   UNL     1      -2.746  10.123  17.071  0.00  0.00    +0.000 A 
BRANCH  24  31
ATOM     30  C   UNL     1      -5.836  10.845  18.489  0.00  0.00    +0.000 C 
ATOM     31  O   UNL     1      -4.945  11.148  17.421  0.00  0.00    +0.000 OA
ENDBRANCH  24  31
ENDBRANCH  23  27
BRANCH  23  32
ATOM     32  C   UNL     1       1.254  12.003  19.198  0.00  0.00    +0.000 A 
ATOM     33  C   UNL     1       1.896  12.745  18.194  0.00  0.00    +0.000 A 
ATOM     34  C   UNL     1       2.615  13.900  18.503  0.00  0.00    +0.000 A 
ATOM     35  C   UNL     1       2.641  14.386  19.809  0.00  0.00    +0.000 A 
ATOM     36  C   UNL     1       1.999  13.683  20.820  0.00  0.00    +0.000 A 
ATOM     37  C   UNL     1       1.336  12.492  20.519  0.00  0.00    +0.000 A 
BRANCH  35  38
ATOM     38  O   UNL     1       3.360  15.536  19.985  0.00  0.00    +0.000 OA
ATOM     39  C   UNL     1       3.130  16.209  21.218  0.00  0.00    +0.000 C 
ENDBRANCH  35  38
ENDBRANCH  23  32
ENDBRANCH   1  23
TORSDOF 14
ENDMDL
MODEL 9
REMARK VINA RESULT:      -7.5      1.445      2.187
REMARK  Name = 
REMARK  16 active torsions:
REMARK  status: ('A' for Active; 'I' for Inactive)
REMARK    1  A    between atoms: C_1  and  O_2
REMARK    2  A    between atoms: O_2  and  C_3
REMARK    3  A    between atoms: C_6  and  N_7
REMARK    4  A    between atoms: N_7  and  C_8
REMARK    5  A    between atoms: N_7  and  C_16
REMARK    6  A    between atoms: C_11  and  O_12
REMARK    7  A    between atoms: O_12  and  C_13
REMARK    8  A    between atoms: C_19  and  C_20
REMARK    9  A    between atoms: N_22  and  C_23
REMARK   10  A    between atoms: C_23  and  C_24
REMARK   11  A    between atoms: C_24  and  C_25
REMARK   12  A    between atoms: C_25  and  C_26
REMARK   13  A    between atoms: C_26  and  C_27
REMARK   14  A    between atoms: C_27  and  C_28
REMARK   15  A    between atoms: C_28  and  C_29
REMARK   16  A    between atoms: N_31  and  O_32
REMARK                            x       y       z     vdW  Elec       q    Type
REMARK                         _______ _______ _______ _____ _____    ______ ____
ROOT
ATOM      1  C   UNL     1       1.000   9.694  19.203  0.00  0.00    +0.000 A 
ATOM      2  C   UNL     1       1.832   9.116  18.233  0.00  0.00    +0.000 A 
ATOM      3  C   UNL     1       2.478   7.901  18.471  0.00  0.00    +0.000 A 
ATOM      4  C   UNL     1       2.371   7.259  19.715  0.00  0.00    +0.000 A 
ATOM      5  C   UNL     1       1.574   7.841  20.701  0.00  0.00    +0.000 A 
ATOM      6  C   UNL     1       0.885   9.021  20.435  0.00  0.00    +0.000 A 
ENDROOT
BRANCH   4   7
ATOM      7  C   UNL     1       3.119   5.986  19.915  0.00  0.00    +0.000 C 
ATOM      8  O   UNL     1       2.707   5.158  20.724  0.00  0.00    +0.000 OA
ATOM      9  N   UNL     1       4.265   5.788  19.165  0.00  0.00    +0.000 N 
ATOM     10  H   UNL     1       4.546   6.448  18.461  0.00  0.00    +0.000 HD
BRANCH   9  11
ATOM     11  C   UNL     1       5.045   4.576  19.277  0.00  0.00    +0.000 C 
BRANCH  11  12
ATOM     12  C   UNL     1       4.489   3.476  18.377  0.00  0.00    +0.000 C 
BRANCH  12  13
ATOM     13  C   UNL     1       3.809   4.062  17.138  0.00  0.00    +0.000 C 
BRANCH  13  14
ATOM     14  C   UNL     1       2.467   3.396  16.851  0.00  0.00    +0.000 C 
BRANCH  14  15
ATOM     15  C   UNL     1       1.411   3.850  17.858  0.00  0.00    +0.000 C 
BRANCH  15  16
ATOM     16  C   UNL     1       0.741   2.676  18.571  0.00  0.00    +0.000 C 
BRANCH  16  17
ATOM     17  C   UNL     1       1.445   2.337  19.868  0.00  0.00    +0.000 C 
ATOM     18  O   UNL     1       2.406   1.571  19.963  0.00  0.00    +0.000 OA
ATOM     19  N   UNL     1       0.900   2.945  20.970  0.00  0.00    +0.000 N 
ATOM     20  H   UNL     1       0.236   3.711  20.940  0.00  0.00    +0.000 HD
BRANCH  19  21
ATOM     21  O   UNL     1       1.543   2.696  22.203  0.00  0.00    +0.000 OA
ATOM     22  H   UNL     1       0.880   3.023  22.852  0.00  0.00    +0.000 HD
ENDBRANCH  19  21
ENDBRANCH  16  17
ENDBRANCH  15  16
ENDBRANCH  14  15
ENDBRANCH  13  14
ENDBRANCH  12  13
ENDBRANCH  11  12
ENDBRANCH   9  11
ENDBRANCH   4   7
BRANCH   1  23
ATOM     23  N   UNL     1       0.291  10.936  18.961  0.00  0.00    +0.000 N 
BRANCH  23  27
ATOM     24  C   UNL     1      -3.791  10.900  17.620  0.00  0.00    +0.000 A 
ATOM     25  C   UNL     1      -3.389  11.752  18.644  0.00  0.00    +0.000 A 
ATOM     26  C   UNL     1      -2.048  11.806  19.038  0.00  0.00    +0.000 A 
ATOM     27  C   UNL     1      -1.085  10.933  18.496  0.00  0.00    +0.000 A 
ATOM     28  C   UNL     1      -1.531  10.045  17.495  0.00  0.00    +0.000 A 
ATOM     29  C   UNL     1      -2.854  10.048  17.044  0.00  0.00    +0.000 A 
BRANCH  24  31
ATOM     30  C   UNL     1      -6.023  10.980  18.379  0.00  0.00    +0.000 C 
ATOM     31  O   UNL     1      -5.113  10.970  17.284  0.00  0.00    +0.000 OA
ENDBRANCH  24  31
ENDBRANCH  23  27
BRANCH  23  32
ATOM     32  C   UNL     1       0.962  12.185  19.266  0.00  0.00    +0.000 A 
ATOM     33  C   UNL     1       1.454  13.022  18.252  0.00  0.00    +0.000 A 
ATOM     34  C   UNL     1       2.102  14.218  18.561  0.00  0.00    +0.000 A 
ATOM     35  C   UNL     1       2.201  14.646  19.884  0.00  0.00    +0.000 A 
ATOM     36  C   UNL     1       1.707  13.847  20.906  0.00  0.00    +0.000 A 
ATOM     37  C   UNL     1       1.118  12.620  20.599  0.00  0.00    +0.000 A 
BRANCH  35  38
ATOM     38  O   UNL     1       2.838  15.844  20.059  0.00  0.00    +0.000 OA
ATOM     39  C   UNL     1       2.420  16.885  19.183  0.00  0.00    +0.000 C 
ENDBRANCH  35  38
ENDBRANCH  23  32
ENDBRANCH   1  23
TORSDOF 14
ENDMDL
