MODEL 1
REMARK VINA RESULT:      -9.1      0.000      0.000
REMARK  Name = 
REMARK  7 active torsions:
REMARK  status: ('A' for Active; 'I' for Inactive)
REMARK    1  A    between atoms: O_1  and  C_2
REMARK    2  A    between atoms: C_4  and  C_5
REMARK    3  A    between atoms: C_12  and  S_13
REMARK    4  A    between atoms: S_13  and  C_14
REMARK    5  A    between atoms: C_14  and  C_15
REMARK    6  A    between atoms: C_17  and  C_18
REMARK    7  A    between atoms: C_22  and  C_23
REMARK                            x       y       z     vdW  Elec       q    Type
REMARK                         _______ _______ _______ _____ _____    ______ ____
ROOT
ATOM      1  C   UNL     1       7.464   6.010  18.019  0.00  0.00    +0.000 C 
ENDROOT
BRANCH   1   2
ATOM      2  C   UNL     1       7.846   7.443  18.024  0.00  0.00    +0.000 A 
ATOM      3  N   UNL     1       8.601   8.112  18.868  0.00  0.00    +0.000 NA
ATOM      4  C   UNL     1       8.592   9.386  18.339  0.00  0.00    +0.000 A 
ATOM      5  N   UNL     1       7.833   9.510  17.237  0.00  0.00    +0.000 NA
ATOM      6  O   UNL     1       7.341   8.223  17.025  0.00  0.00    +0.000 OA
BRANCH   4   7
ATOM      7  C   UNL     1       9.363  10.474  18.936  0.00  0.00    +0.000 A 
ATOM      8  C   UNL     1       9.408  10.663  20.323  0.00  0.00    +0.000 A 
ATOM      9  C   UNL     1      10.128  11.727  20.875  0.00  0.00    +0.000 A 
ATOM     10  C   UNL     1      10.808  12.617  20.043  0.00  0.00    +0.000 A 
ATOM     11  C   UNL     1      10.781  12.451  18.652  0.00  0.00    +0.000 A 
ATOM     12  C   UNL     1      10.060  11.372  18.111  0.00  0.00    +0.000 A 
BRANCH  11  13
ATOM     13  C   UNL     1      11.497  13.408  17.732  0.00  0.00    +0.000 C 
ATOM     14  F   UNL     1      10.657  14.207  17.016  0.00  0.00    +0.000 F 
ATOM     15  F   UNL     1      12.331  14.250  18.402  0.00  0.00    +0.000 F 
ATOM     16  F   UNL     1      12.271  12.767  16.813  0.00  0.00    +0.000 F 
ENDBRANCH  11  13
ENDBRANCH   4   7
ENDBRANCH   1   2
BRANCH   1  17
ATOM     17  S   UNL     1       6.350   5.647  16.622  0.00  0.00    +0.000 S 
BRANCH  17  22
ATOM     18  C   UNL     1       3.134   7.626  17.624  0.00  0.00    +0.000 A 
ATOM     19  C   UNL     1       2.441   6.788  18.459  0.00  0.00    +0.000 A 
ATOM     20  C   UNL     1       3.019   5.556  18.696  0.00  0.00    +0.000 A 
ATOM     21  N   UNL     1       4.209   5.220  18.150  0.00  0.00    +0.000 NA
ATOM     22  C   UNL     1       4.799   6.120  17.345  0.00  0.00    +0.000 A 
ATOM     23  N   UNL     1       4.298   7.324  17.052  0.00  0.00    +0.000 NA
BRANCH  20  24
ATOM     24  C   UNL     1       2.373   4.543  19.561  0.00  0.00    +0.000 A 
ATOM     25  C   UNL     1       2.682   4.441  20.933  0.00  0.00    +0.000 A 
ATOM     26  C   UNL     1       2.108   3.454  21.742  0.00  0.00    +0.000 A 
ATOM     27  C   UNL     1       1.201   2.551  21.199  0.00  0.00    +0.000 A 
ATOM     28  C   UNL     1       0.858   2.645  19.853  0.00  0.00    +0.000 A 
ATOM     29  C   UNL     1       1.435   3.631  19.045  0.00  0.00    +0.000 A 
ENDBRANCH  20  24
BRANCH  18  30
ATOM     30  O   UNL     1       2.654   8.864  17.310  0.00  0.00    +0.000 OA
ATOM     31  H   UNL     1       2.098   9.178  18.040  0.00  0.00    +0.000 HD
ENDBRANCH  18  30
ENDBRANCH  17  22
ENDBRANCH   1  17
TORSDOF 7
ENDMDL
MODEL 2
REMARK VINA RESULT:      -8.9      2.154      3.569
REMARK  Name = 
REMARK  7 active torsions:
REMARK  status: ('A' for Active; 'I' for Inactive)
REMARK    1  A    between atoms: O_1  and  C_2
REMARK    2  A    between atoms: C_4  and  C_5
REMARK    3  A    between atoms: C_12  and  S_13
REMARK    4  A    between atoms: S_13  and  C_14
REMARK    5  A    between atoms: C_14  and  C_15
REMARK    6  A    between atoms: C_17  and  C_18
REMARK    7  A    between atoms: C_22  and  C_23
REMARK                            x       y       z     vdW  Elec       q    Type
REMARK                         _______ _______ _______ _____ _____    ______ ____
ROOT
ATOM      1  C   UNL     1       6.533   6.227  17.034  0.00  0.00    +0.000 C 
ENDROOT
BRANCH   1   2
ATOM      2  C   UNL     1       7.350   7.319  17.616  0.00  0.00    +0.000 A 
ATOM      3  N   UNL     1       7.427   8.587  17.276  0.00  0.00    +0.000 NA
ATOM      4  C   UNL     1       8.335   9.090  18.185  0.00  0.00    +0.000 A 
ATOM      5  N   UNL     1       8.827   8.166  19.028  0.00  0.00    +0.000 NA
ATOM      6  O   UNL     1       8.173   6.993  18.654  0.00  0.00    +0.000 OA
BRANCH   4   7
ATOM      7  C   UNL     1       8.691  10.506  18.216  0.00  0.00    +0.000 A 
ATOM      8  C   UNL     1       7.979  11.456  17.472  0.00  0.00    +0.000 A 
ATOM      9  C   UNL     1       8.353  12.803  17.491  0.00  0.00    +0.000 A 
ATOM     10  C   UNL     1       9.448  13.215  18.251  0.00  0.00    +0.000 A 
ATOM     11  C   UNL     1      10.179  12.286  19.004  0.00  0.00    +0.000 A 
ATOM     12  C   UNL     1       9.786  10.936  18.983  0.00  0.00    +0.000 A 
BRANCH  11  13
ATOM     13  C   UNL     1      11.374  12.705  19.823  0.00  0.00    +0.000 C 
ATOM     14  F   UNL     1      11.071  13.584  20.819  0.00  0.00    +0.000 F 
ATOM     15  F   UNL     1      11.986  11.651  20.429  0.00  0.00    +0.000 F 
ATOM     16  F   UNL     1      12.333  13.314  19.071  0.00  0.00    +0.000 F 
ENDBRANCH  11  13
ENDBRANCH   4   7
ENDBRANCH   1   2
BRANCH   1  17
ATOM     17  S   UNL     1       6.614   4.736  18.081  0.00  0.00    +0.000 S 
BRANCH  17  22
ATOM     18  C   UNL     1       3.222   3.650  19.688  0.00  0.00    +0.000 A 
ATOM     19  C   UNL     1       2.454   4.785  19.708  0.00  0.00    +0.000 A 
ATOM     20  C   UNL     1       3.045   5.926  19.202  0.00  0.00    +0.000 A 
ATOM     21  N   UNL     1       4.299   5.904  18.697  0.00  0.00    +0.000 NA
ATOM     22  C   UNL     1       4.961   4.735  18.730  0.00  0.00    +0.000 A 
ATOM     23  N   UNL     1       4.467   3.593  19.217  0.00  0.00    +0.000 NA
BRANCH  20  24
ATOM     24  C   UNL     1       2.341   7.228  19.178  0.00  0.00    +0.000 A 
ATOM     25  C   UNL     1       2.264   8.003  18.003  0.00  0.00    +0.000 A 
ATOM     26  C   UNL     1       1.639   9.255  17.990  0.00  0.00    +0.000 A 
ATOM     27  C   UNL     1       1.065   9.757  19.153  0.00  0.00    +0.000 A 
ATOM     28  C   UNL     1       1.104   9.002  20.322  0.00  0.00    +0.000 A 
ATOM     29  C   UNL     1       1.731   7.751  20.333  0.00  0.00    +0.000 A 
ENDBRANCH  20  24
BRANCH  18  30
ATOM     30  O   UNL     1       2.746   2.466  20.172  0.00  0.00    +0.000 OA
ATOM     31  H   UNL     1       1.788   2.433  20.026  0.00  0.00    +0.000 HD
ENDBRANCH  18  30
ENDBRANCH  17  22
ENDBRANCH   1  17
TORSDOF 7
ENDMDL
MODEL 3
REMARK VINA RESULT:      -8.9      2.511      3.394
REMARK  Name = 
REMARK  7 active torsions:
REMARK  status: ('A' for Active; 'I' for Inactive)
REMARK    1  A    between atoms: O_1  and  C_2
REMARK    2  A    between atoms: C_4  and  C_5
REMARK    3  A    between atoms: C_12  and  S_13
REMARK    4  A    between atoms: S_13  and  C_14
REMARK    5  A    between atoms: C_14  and  C_15
REMARK    6  A    between atoms: C_17  and  C_18
REMARK    7  A    between atoms: C_22  and  C_23
REMARK                            x       y       z     vdW  Elec       q    Type
REMARK                         _______ _______ _______ _____ _____    ______ ____
ROOT
ATOM      1  C   UNL     1       7.878   8.707  17.496  0.00  0.00    +0.000 C 
ENDROOT
BRANCH   1   2
ATOM      2  C   UNL     1       8.669   9.729  18.221  0.00  0.00    +0.000 A 
ATOM      3  N   UNL     1       9.140  10.883  17.804  0.00  0.00    +0.000 NA
ATOM      4  C   UNL     1       9.771  11.378  18.927  0.00  0.00    +0.000 A 
ATOM      5  N   UNL     1       9.726  10.548  19.983  0.00  0.00    +0.000 NA
ATOM      6  O   UNL     1       8.994   9.457  19.518  0.00  0.00    +0.000 OA
BRANCH   4   7
ATOM      7  C   UNL     1      10.403  12.694  18.939  0.00  0.00    +0.000 A 
ATOM      8  C   UNL     1      11.620  12.916  19.598  0.00  0.00    +0.000 A 
ATOM      9  C   UNL     1      12.195  14.190  19.624  0.00  0.00    +0.000 A 
ATOM     10  C   UNL     1      11.558  15.258  18.993  0.00  0.00    +0.000 A 
ATOM     11  C   UNL     1      10.340  15.066  18.326  0.00  0.00    +0.000 A 
ATOM     12  C   UNL     1       9.777  13.777  18.301  0.00  0.00    +0.000 A 
BRANCH  11  13
ATOM     13  C   UNL     1       9.625  16.208  17.649  0.00  0.00    +0.000 C 
ATOM     14  F   UNL     1       8.321  15.939  17.360  0.00  0.00    +0.000 F 
ATOM     15  F   UNL     1       9.613  17.339  18.408  0.00  0.00    +0.000 F 
ATOM     16  F   UNL     1      10.204  16.556  16.466  0.00  0.00    +0.000 F 
ENDBRANCH  11  13
ENDBRANCH   4   7
ENDBRANCH   1   2
BRANCH   1  17
ATOM     17  S   UNL     1       7.911   7.116  18.387  0.00  0.00    +0.000 S 
BRANCH  17  22
ATOM     18  C   UNL     1       6.719   5.205  15.194  0.00  0.00    +0.000 A 
ATOM     19  C   UNL     1       5.554   4.582  15.562  0.00  0.00    +0.000 A 
ATOM     20  C   UNL     1       5.151   4.774  16.869  0.00  0.00    +0.000 A 
ATOM     21  N   UNL     1       5.858   5.553  17.716  0.00  0.00    +0.000 NA
ATOM     22  C   UNL     1       6.987   6.114  17.248  0.00  0.00    +0.000 A 
ATOM     23  N   UNL     1       7.454   5.964  16.005  0.00  0.00    +0.000 NA
BRANCH  20  24
ATOM     24  C   UNL     1       3.924   4.146  17.409  0.00  0.00    +0.000 A 
ATOM     25  C   UNL     1       3.831   2.752  17.595  0.00  0.00    +0.000 A 
ATOM     26  C   UNL     1       2.656   2.151  18.062  0.00  0.00    +0.000 A 
ATOM     27  C   UNL     1       1.549   2.935  18.365  0.00  0.00    +0.000 A 
ATOM     28  C   UNL     1       1.621   4.317  18.215  0.00  0.00    +0.000 A 
ATOM     29  C   UNL     1       2.796   4.915  17.746  0.00  0.00    +0.000 A 
ENDBRANCH  20  24
BRANCH  18  30
ATOM     30  O   UNL     1       7.219   5.078  13.931  0.00  0.00    +0.000 OA
ATOM     31  H   UNL     1       6.482   5.085  13.301  0.00  0.00    +0.000 HD
ENDBRANCH  18  30
ENDBRANCH  17  22
ENDBRANCH   1  17
TORSDOF 7
ENDMDL
MODEL 4
REMARK VINA RESULT:      -8.8      6.577      8.970
REMARK  Name = 
REMARK  7 active torsions:
REMARK  status: ('A' for Active; 'I' for Inactive)
REMARK    1  A    between atoms: O_1  and  C_2
REMARK    2  A    between atoms: C_4  and  C_5
REMARK    3  A    between atoms: C_12  and  S_13
REMARK    4  A    between atoms: S_13  and  C_14
REMARK    5  A    between atoms: C_14  and  C_15
REMARK    6  A    between atoms: C_17  and  C_18
REMARK    7  A    between atoms: C_22  and  C_23
REMARK                            x       y       z     vdW  Elec       q    Type
REMARK                         _______ _______ _______ _____ _____    ______ ____
ROOT
ATOM      1  C   UNL     1       3.068   5.879  19.526  0.00  0.00    +0.000 C 
ENDROOT
BRANCH   1   2
ATOM      2  C   UNL     1       2.615   7.158  18.929  0.00  0.00    +0.000 A 
ATOM      3  N   UNL     1       1.633   7.955  19.287  0.00  0.00    +0.000 NA
ATOM      4  C   UNL     1       1.720   8.978  18.365  0.00  0.00    +0.000 A 
ATOM      5  N   UNL     1       2.690   8.803  17.452  0.00  0.00    +0.000 NA
ATOM      6  O   UNL     1       3.286   7.600  17.826  0.00  0.00    +0.000 OA
BRANCH   4   7
ATOM      7  C   UNL     1       0.836  10.139  18.417  0.00  0.00    +0.000 A 
ATOM      8  C   UNL     1       1.280  11.376  18.903  0.00  0.00    +0.000 A 
ATOM      9  C   UNL     1       0.411  12.469  18.972  0.00  0.00    +0.000 A 
ATOM     10  C   UNL     1      -0.915  12.336  18.560  0.00  0.00    +0.000 A 
ATOM     11  C   UNL     1      -1.386  11.111  18.069  0.00  0.00    +0.000 A 
ATOM     12  C   UNL     1      -0.499  10.022  17.997  0.00  0.00    +0.000 A 
BRANCH  11  13
ATOM     13  C   UNL     1      -2.819  10.939  17.630  0.00  0.00    +0.000 C 
ATOM     14  F   UNL     1      -3.367   9.751  18.012  0.00  0.00    +0.000 F 
ATOM     15  F   UNL     1      -3.637  11.904  18.132  0.00  0.00    +0.000 F 
ATOM     16  F   UNL     1      -2.960  10.994  16.277  0.00  0.00    +0.000 F 
ENDBRANCH  11  13
ENDBRANCH   4   7
ENDBRANCH   1   2
BRANCH   1  17
ATOM     17  S   UNL     1       3.095   4.557  18.269  0.00  0.00    +0.000 S 
BRANCH  17  22
ATOM     18  C   UNL     1       6.987   4.906  18.253  0.00  0.00    +0.000 A 
ATOM     19  C   UNL     1       7.351   4.814  16.934  0.00  0.00    +0.000 A 
ATOM     20  C   UNL     1       6.321   4.626  16.033  0.00  0.00    +0.000 A 
ATOM     21  N   UNL     1       5.033   4.564  16.439  0.00  0.00    +0.000 NA
ATOM     22  C   UNL     1       4.793   4.664  17.758  0.00  0.00    +0.000 A 
ATOM     23  N   UNL     1       5.732   4.829  18.694  0.00  0.00    +0.000 NA
BRANCH  20  24
ATOM     24  C   UNL     1       6.567   4.490  14.580  0.00  0.00    +0.000 A 
ATOM     25  C   UNL     1       5.865   3.551  13.798  0.00  0.00    +0.000 A 
ATOM     26  C   UNL     1       6.129   3.388  12.433  0.00  0.00    +0.000 A 
ATOM     27  C   UNL     1       7.097   4.171  11.816  0.00  0.00    +0.000 A 
ATOM     28  C   UNL     1       7.789   5.124  12.558  0.00  0.00    +0.000 A 
ATOM     29  C   UNL     1       7.524   5.284  13.923  0.00  0.00    +0.000 A 
ENDBRANCH  20  24
BRANCH  18  30
ATOM     30  O   UNL     1       7.921   5.081  19.232  0.00  0.00    +0.000 OA
ATOM     31  H   UNL     1       8.141   6.023  19.288  0.00  0.00    +0.000 HD
ENDBRANCH  18  30
ENDBRANCH  17  22
ENDBRANCH   1  17
TORSDOF 7
ENDMDL
MODEL 5
REMARK VINA RESULT:      -8.8      6.524      9.130
REMARK  Name = 
REMARK  7 active torsions:
REMARK  status: ('A' for Active; 'I' for Inactive)
REMARK    1  A    between atoms: O_1  and  C_2
REMARK    2  A    between atoms: C_4  and  C_5
REMARK    3  A    between atoms: C_12  and  S_13
REMARK    4  A    between atoms: S_13  and  C_14
REMARK    5  A    between atoms: C_14  and  C_15
REMARK    6  A    between atoms: C_17  and  C_18
REMARK    7  A    between atoms: C_22  and  C_23
REMARK                            x       y       z     vdW  Elec       q    Type
REMARK                         _______ _______ _______ _____ _____    ______ ____
ROOT
ATOM      1  C   UNL     1       3.028   6.159  19.707  0.00  0.00    +0.000 C 
ENDROOT
BRANCH   1   2
ATOM      2  C   UNL     1       2.138   7.331  19.881  0.00  0.00    +0.000 A 
ATOM      3  N   UNL     1       1.831   8.290  19.036  0.00  0.00    +0.000 NA
ATOM      4  C   UNL     1       0.958   9.070  19.766  0.00  0.00    +0.000 A 
ATOM      5  N   UNL     1       0.762   8.635  21.021  0.00  0.00    +0.000 NA
ATOM      6  O   UNL     1       1.540   7.481  21.099  0.00  0.00    +0.000 OA
BRANCH   4   7
ATOM      7  C   UNL     1       0.308  10.245  19.190  0.00  0.00    +0.000 A 
ATOM      8  C   UNL     1       0.757  11.542  19.472  0.00  0.00    +0.000 A 
ATOM      9  C   UNL     1       0.104  12.655  18.935  0.00  0.00    +0.000 A 
ATOM     10  C   UNL     1      -1.009  12.484  18.112  0.00  0.00    +0.000 A 
ATOM     11  C   UNL     1      -1.480  11.198  17.812  0.00  0.00    +0.000 A 
ATOM     12  C   UNL     1      -0.808  10.086  18.352  0.00  0.00    +0.000 A 
BRANCH  11  13
ATOM     13  C   UNL     1      -2.689  10.988  16.935  0.00  0.00    +0.000 C 
ATOM     14  F   UNL     1      -3.706  11.858  17.193  0.00  0.00    +0.000 F 
ATOM     15  F   UNL     1      -2.404  11.129  15.611  0.00  0.00    +0.000 F 
ATOM     16  F   UNL     1      -3.222   9.742  17.073  0.00  0.00    +0.000 F 
ENDBRANCH  11  13
ENDBRANCH   4   7
ENDBRANCH   1   2
BRANCH   1  17
ATOM     17  S   UNL     1       2.851   5.461  18.031  0.00  0.00    +0.000 S 
BRANCH  17  22
ATOM     18  C   UNL     1       6.731   5.047  18.248  0.00  0.00    +0.000 A 
ATOM     19  C   UNL     1       7.144   4.847  16.956  0.00  0.00    +0.000 A 
ATOM     20  C   UNL     1       6.150   4.836  15.997  0.00  0.00    +0.000 A 
ATOM     21  N   UNL     1       4.854   5.037  16.324  0.00  0.00    +0.000 NA
ATOM     22  C   UNL     1       4.563   5.221  17.623  0.00  0.00    +0.000 A 
ATOM     23  N   UNL     1       5.462   5.229  18.612  0.00  0.00    +0.000 NA
BRANCH  20  24
ATOM     24  C   UNL     1       6.447   4.611  14.564  0.00  0.00    +0.000 A 
ATOM     25  C   UNL     1       5.690   3.712  13.787  0.00  0.00    +0.000 A 
ATOM     26  C   UNL     1       5.998   3.463  12.444  0.00  0.00    +0.000 A 
ATOM     27  C   UNL     1       7.068   4.118  11.845  0.00  0.00    +0.000 A 
ATOM     28  C   UNL     1       7.817   5.031  12.582  0.00  0.00    +0.000 A 
ATOM     29  C   UNL     1       7.508   5.277  13.924  0.00  0.00    +0.000 A 
ENDBRANCH  20  24
BRANCH  18  30
ATOM     30  O   UNL     1       7.624   5.067  19.279  0.00  0.00    +0.000 OA
ATOM     31  H   UNL     1       8.261   4.347  19.154  0.00  0.00    +0.000 HD
ENDBRANCH  18  30
ENDBRANCH  17  22
ENDBRANCH   1  17
TORSDOF 7
ENDMDL
MODEL 6
REMARK VINA RESULT:      -8.7      6.455      8.823
REMARK  Name = 
REMARK  7 active torsions:
REMARK  status: ('A' for Active; 'I' for Inactive)
REMARK    1  A    between atoms: O_1  and  C_2
REMARK    2  A    between atoms: C_4  and  C_5
REMARK    3  A    between atoms: C_12  and  S_13
REMARK    4  A    between atoms: S_13  and  C_14
REMARK    5  A    between atoms: C_14  and  C_15
REMARK    6  A    between atoms: C_17  and  C_18
REMARK    7  A    between atoms: C_22  and  C_23
REMARK                            x       y       z     vdW  Elec       q    Type
REMARK                         _______ _______ _______ _____ _____    ______ ____
ROOT
ATOM      1  C   UNL     1       5.734   5.640  17.584  0.00  0.00    +0.000 C 
ENDROOT
BRANCH   1   2
ATOM      2  C   UNL     1       6.145   5.238  16.218  0.00  0.00    +0.000 A 
ATOM      3  N   UNL     1       5.587   4.386  15.386  0.00  0.00    +0.000 NA
ATOM      4  C   UNL     1       6.414   4.451  14.284  0.00  0.00    +0.000 A 
ATOM      5  N   UNL     1       7.460   5.280  14.440  0.00  0.00    +0.000 NA
ATOM      6  O   UNL     1       7.282   5.804  15.720  0.00  0.00    +0.000 OA
BRANCH   4   7
ATOM      7  C   UNL     1       6.138   3.692  13.067  0.00  0.00    +0.000 A 
ATOM      8  C   UNL     1       7.088   2.821  12.517  0.00  0.00    +0.000 A 
ATOM      9  C   UNL     1       6.817   2.125  11.335  0.00  0.00    +0.000 A 
ATOM     10  C   UNL     1       5.593   2.296  10.688  0.00  0.00    +0.000 A 
ATOM     11  C   UNL     1       4.625   3.160  11.216  0.00  0.00    +0.000 A 
ATOM     12  C   UNL     1       4.907   3.847  12.410  0.00  0.00    +0.000 A 
BRANCH  11  13
ATOM     13  C   UNL     1       3.300   3.371  10.527  0.00  0.00    +0.000 C 
ATOM     14  F   UNL     1       3.247   2.835   9.274  0.00  0.00    +0.000 F 
ATOM     15  F   UNL     1       2.262   2.819  11.212  0.00  0.00    +0.000 F 
ATOM     16  F   UNL     1       2.993   4.690  10.379  0.00  0.00    +0.000 F 
ENDBRANCH  11  13
ENDBRANCH   4   7
ENDBRANCH   1   2
BRANCH   1  17
ATOM     17  S   UNL     1       5.420   4.173  18.620  0.00  0.00    +0.000 S 
BRANCH  17  22
ATOM     18  C   UNL     1       2.211   4.281  20.846  0.00  0.00    +0.000 A 
ATOM     19  C   UNL     1       1.680   5.530  20.651  0.00  0.00    +0.000 A 
ATOM     20  C   UNL     1       2.377   6.357  19.792  0.00  0.00    +0.000 A 
ATOM     21  N   UNL     1       3.500   5.938  19.168  0.00  0.00    +0.000 NA
ATOM     22  C   UNL     1       3.931   4.693  19.435  0.00  0.00    +0.000 A 
ATOM     23  N   UNL     1       3.325   3.839  20.265  0.00  0.00    +0.000 NA
BRANCH  20  24
ATOM     24  C   UNL     1       1.932   7.740  19.503  0.00  0.00    +0.000 A 
ATOM     25  C   UNL     1       1.317   8.536  20.490  0.00  0.00    +0.000 A 
ATOM     26  C   UNL     1       0.853   9.826  20.207  0.00  0.00    +0.000 A 
ATOM     27  C   UNL     1       1.005  10.354  18.930  0.00  0.00    +0.000 A 
ATOM     28  C   UNL     1       1.631   9.599  17.942  0.00  0.00    +0.000 A 
ATOM     29  C   UNL     1       2.092   8.308  18.227  0.00  0.00    +0.000 A 
ENDBRANCH  20  24
BRANCH  18  30
ATOM     30  O   UNL     1       1.613   3.383  21.682  0.00  0.00    +0.000 OA
ATOM     31  H   UNL     1       0.697   3.252  21.395  0.00  0.00    +0.000 HD
ENDBRANCH  18  30
ENDBRANCH  17  22
ENDBRANCH   1  17
TORSDOF 7
ENDMDL
MODEL 7
REMARK VINA RESULT:      -8.7      6.140      8.920
REMARK  Name = 
REMARK  7 active torsions:
REMARK  status: ('A' for Active; 'I' for Inactive)
REMARK    1  A    between atoms: O_1  and  C_2
REMARK    2  A    between atoms: C_4  and  C_5
REMARK    3  A    between atoms: C_12  and  S_13
REMARK    4  A    between atoms: S_13  and  C_14
REMARK    5  A    between atoms: C_14  and  C_15
REMARK    6  A    between atoms: C_17  and  C_18
REMARK    7  A    between atoms: C_22  and  C_23
REMARK                            x       y       z     vdW  Elec       q    Type
REMARK                         _______ _______ _______ _____ _____    ______ ____
ROOT
ATOM      1  C   UNL     1       2.973   5.701  19.793  0.00  0.00    +0.000 C 
ENDROOT
BRANCH   1   2
ATOM      2  C   UNL     1       2.241   6.986  19.886  0.00  0.00    +0.000 A 
ATOM      3  N   UNL     1       1.496   7.464  20.859  0.00  0.00    +0.000 NA
ATOM      4  C   UNL     1       1.107   8.693  20.368  0.00  0.00    +0.000 A 
ATOM      5  N   UNL     1       1.560   8.950  19.129  0.00  0.00    +0.000 NA
ATOM      6  O   UNL     1       2.313   7.822  18.810  0.00  0.00    +0.000 OA
BRANCH   4   7
ATOM      7  C   UNL     1       0.293   9.616  21.155  0.00  0.00    +0.000 A 
ATOM      8  C   UNL     1       0.015   9.374  22.507  0.00  0.00    +0.000 A 
ATOM      9  C   UNL     1      -0.790  10.254  23.237  0.00  0.00    +0.000 A 
ATOM     10  C   UNL     1      -1.329  11.383  22.622  0.00  0.00    +0.000 A 
ATOM     11  C   UNL     1      -1.067  11.650  21.272  0.00  0.00    +0.000 A 
ATOM     12  C   UNL     1      -0.249  10.762  20.551  0.00  0.00    +0.000 A 
BRANCH  11  13
ATOM     13  C   UNL     1      -1.650  12.858  20.581  0.00  0.00    +0.000 C 
ATOM     14  F   UNL     1      -1.087  13.115  19.367  0.00  0.00    +0.000 F 
ATOM     15  F   UNL     1      -2.986  12.734  20.354  0.00  0.00    +0.000 F 
ATOM     16  F   UNL     1      -1.498  13.999  21.310  0.00  0.00    +0.000 F 
ENDBRANCH  11  13
ENDBRANCH   4   7
ENDBRANCH   1   2
BRANCH   1  17
ATOM     17  S   UNL     1       2.837   5.004  18.113  0.00  0.00    +0.000 S 
BRANCH  17  22
ATOM     18  C   UNL     1       6.742   5.011  18.253  0.00  0.00    +0.000 A 
ATOM     19  C   UNL     1       7.149   4.855  16.952  0.00  0.00    +0.000 A 
ATOM     20  C   UNL     1       6.143   4.736  16.013  0.00  0.00    +0.000 A 
ATOM     21  N   UNL     1       4.840   4.796  16.366  0.00  0.00    +0.000 NA
ATOM     22  C   UNL     1       4.556   4.950  17.671  0.00  0.00    +0.000 A 
ATOM     23  N   UNL     1       5.469   5.056  18.642  0.00  0.00    +0.000 NA
BRANCH  20  24
ATOM     24  C   UNL     1       6.435   4.543  14.575  0.00  0.00    +0.000 A 
ATOM     25  C   UNL     1       5.677   3.657  13.782  0.00  0.00    +0.000 A 
ATOM     26  C   UNL     1       5.980   3.437  12.433  0.00  0.00    +0.000 A 
ATOM     27  C   UNL     1       7.044   4.110  11.843  0.00  0.00    +0.000 A 
ATOM     28  C   UNL     1       7.794   5.009  12.595  0.00  0.00    +0.000 A 
ATOM     29  C   UNL     1       7.490   5.226  13.944  0.00  0.00    +0.000 A 
ENDBRANCH  20  24
BRANCH  18  30
ATOM     30  O   UNL     1       7.648   5.128  19.266  0.00  0.00    +0.000 OA
ATOM     31  H   UNL     1       8.041   4.258  19.435  0.00  0.00    +0.000 HD
ENDBRANCH  18  30
ENDBRANCH  17  22
ENDBRANCH   1  17
TORSDOF 7
ENDMDL
MODEL 8
REMARK VINA RESULT:      -8.7      2.359      3.581
REMARK  Name = 
REMARK  7 active torsions:
REMARK  status: ('A' for Active; 'I' for Inactive)
REMARK    1  A    between atoms: O_1  and  C_2
REMARK    2  A    between atoms: C_4  and  C_5
REMARK    3  A    between atoms: C_12  and  S_13
REMARK    4  A    between atoms: S_13  and  C_14
REMARK    5  A    between atoms: C_14  and  C_15
REMARK    6  A    between atoms: C_17  and  C_18
REMARK    7  A    between atoms: C_22  and  C_23
REMARK                            x       y       z     vdW  Elec       q    Type
REMARK                         _______ _______ _______ _____ _____    ______ ____
ROOT
ATOM      1  C   UNL     1       7.494   5.750  18.435  0.00  0.00    +0.000 C 
ENDROOT
BRANCH   1   2
ATOM      2  C   UNL     1       7.819   7.180  18.220  0.00  0.00    +0.000 A 
ATOM      3  N   UNL     1       8.562   7.993  18.938  0.00  0.00    +0.000 NA
ATOM      4  C   UNL     1       8.494   9.174  18.228  0.00  0.00    +0.000 A 
ATOM      5  N   UNL     1       7.713   9.105  17.137  0.00  0.00    +0.000 NA
ATOM      6  O   UNL     1       7.267   7.784  17.128  0.00  0.00    +0.000 OA
BRANCH   4   7
ATOM      7  C   UNL     1       9.232  10.365  18.640  0.00  0.00    +0.000 A 
ATOM      8  C   UNL     1      10.275  10.884  17.862  0.00  0.00    +0.000 A 
ATOM      9  C   UNL     1      10.990  12.008  18.287  0.00  0.00    +0.000 A 
ATOM     10  C   UNL     1      10.671  12.623  19.498  0.00  0.00    +0.000 A 
ATOM     11  C   UNL     1       9.632  12.126  20.296  0.00  0.00    +0.000 A 
ATOM     12  C   UNL     1       8.916  10.999  19.852  0.00  0.00    +0.000 A 
BRANCH  11  13
ATOM     13  C   UNL     1       9.278  12.765  21.615  0.00  0.00    +0.000 C 
ATOM     14  F   UNL     1       8.045  13.344  21.625  0.00  0.00    +0.000 F 
ATOM     15  F   UNL     1       9.280  11.874  22.644  0.00  0.00    +0.000 F 
ATOM     16  F   UNL     1      10.152  13.749  21.968  0.00  0.00    +0.000 F 
ENDBRANCH  11  13
ENDBRANCH   4   7
ENDBRANCH   1   2
BRANCH   1  17
ATOM     17  S   UNL     1       6.851   4.999  16.902  0.00  0.00    +0.000 S 
BRANCH  17  22
ATOM     18  C   UNL     1       3.273   3.585  17.584  0.00  0.00    +0.000 A 
ATOM     19  C   UNL     1       2.539   4.658  18.020  0.00  0.00    +0.000 A 
ATOM     20  C   UNL     1       3.215   5.860  18.105  0.00  0.00    +0.000 A 
ATOM     21  N   UNL     1       4.516   5.962  17.752  0.00  0.00    +0.000 NA
ATOM     22  C   UNL     1       5.137   4.844  17.340  0.00  0.00    +0.000 A 
ATOM     23  N   UNL     1       4.560   3.642  17.246  0.00  0.00    +0.000 NA
BRANCH  20  24
ATOM     24  C   UNL     1       2.555   7.097  18.579  0.00  0.00    +0.000 A 
ATOM     25  C   UNL     1       2.122   7.236  19.913  0.00  0.00    +0.000 A 
ATOM     26  C   UNL     1       1.456   8.387  20.352  0.00  0.00    +0.000 A 
ATOM     27  C   UNL     1       1.217   9.431  19.466  0.00  0.00    +0.000 A 
ATOM     28  C   UNL     1       1.655   9.331  18.148  0.00  0.00    +0.000 A 
ATOM     29  C   UNL     1       2.320   8.179  17.711  0.00  0.00    +0.000 A 
ENDBRANCH  20  24
BRANCH  18  30
ATOM     30  O   UNL     1       2.713   2.346  17.471  0.00  0.00    +0.000 OA
ATOM     31  H   UNL     1       3.110   1.892  16.712  0.00  0.00    +0.000 HD
ENDBRANCH  18  30
ENDBRANCH  17  22
ENDBRANCH   1  17
TORSDOF 7
ENDMDL
MODEL 9
REMARK VINA RESULT:      -8.6      2.450      3.811
REMARK  Name = 
REMARK  7 active torsions:
REMARK  status: ('A' for Active; 'I' for Inactive)
REMARK    1  A    between atoms: O_1  and  C_2
REMARK    2  A    between atoms: C_4  and  C_5
REMARK    3  A    between atoms: C_12  and  S_13
REMARK    4  A    between atoms: S_13  and  C_14
REMARK    5  A    between atoms: C_14  and  C_15
REMARK    6  A    between atoms: C_17  and  C_18
REMARK    7  A    between atoms: C_22  and  C_23
REMARK                            x       y       z     vdW  Elec       q    Type
REMARK                         _______ _______ _______ _____ _____    ______ ____
ROOT
ATOM      1  C   UNL     1       7.655   5.525  18.484  0.00  0.00    +0.000 C 
ENDROOT
BRANCH   1   2
ATOM      2  C   UNL     1       7.867   6.975  18.260  0.00  0.00    +0.000 A 
ATOM      3  N   UNL     1       8.610   7.832  18.925  0.00  0.00    +0.000 NA
ATOM      4  C   UNL     1       8.407   9.010  18.237  0.00  0.00    +0.000 A 
ATOM      5  N   UNL     1       7.545   8.896  17.212  0.00  0.00    +0.000 NA
ATOM      6  O   UNL     1       7.188   7.549  17.224  0.00  0.00    +0.000 OA
BRANCH   4   7
ATOM      7  C   UNL     1       9.096  10.245  18.601  0.00  0.00    +0.000 A 
ATOM      8  C   UNL     1      10.056  10.823  17.760  0.00  0.00    +0.000 A 
ATOM      9  C   UNL     1      10.727  11.989  18.139  0.00  0.00    +0.000 A 
ATOM     10  C   UNL     1      10.448  12.590  19.367  0.00  0.00    +0.000 A 
ATOM     11  C   UNL     1       9.492  12.034  20.228  0.00  0.00    +0.000 A 
ATOM     12  C   UNL     1       8.818  10.865  19.831  0.00  0.00    +0.000 A 
BRANCH  11  13
ATOM     13  C   UNL     1       9.183  12.657  21.566  0.00  0.00    +0.000 C 
ATOM     14  F   UNL     1       9.059  11.748  22.574  0.00  0.00    +0.000 F 
ATOM     15  F   UNL     1      10.145  13.532  21.969  0.00  0.00    +0.000 F 
ATOM     16  F   UNL     1       8.016  13.360  21.556  0.00  0.00    +0.000 F 
ENDBRANCH  11  13
ENDBRANCH   4   7
ENDBRANCH   1   2
BRANCH   1  17
ATOM     17  S   UNL     1       6.438   4.862  17.299  0.00  0.00    +0.000 S 
BRANCH  17  22
ATOM     18  C   UNL     1       3.587   3.862  19.776  0.00  0.00    +0.000 A 
ATOM     19  C   UNL     1       2.775   4.963  19.852  0.00  0.00    +0.000 A 
ATOM     20  C   UNL     1       3.159   6.054  19.097  0.00  0.00    +0.000 A 
ATOM     21  N   UNL     1       4.260   6.015  18.314  0.00  0.00    +0.000 NA
ATOM     22  C   UNL     1       4.985   4.882  18.318  0.00  0.00    +0.000 A 
ATOM     23  N   UNL     1       4.690   3.792  19.032  0.00  0.00    +0.000 NA
BRANCH  20  24
ATOM     24  C   UNL     1       2.388   7.318  19.098  0.00  0.00    +0.000 A 
ATOM     25  C   UNL     1       2.237   8.089  17.928  0.00  0.00    +0.000 A 
ATOM     26  C   UNL     1       1.548   9.307  17.937  0.00  0.00    +0.000 A 
ATOM     27  C   UNL     1       0.983   9.777  19.117  0.00  0.00    +0.000 A 
ATOM     28  C   UNL     1       1.095   9.023  20.282  0.00  0.00    +0.000 A 
ATOM     29  C   UNL     1       1.786   7.806  20.271  0.00  0.00    +0.000 A 
ENDBRANCH  20  24
BRANCH  18  30
ATOM     30  O   UNL     1       3.312   2.731  20.487  0.00  0.00    +0.000 OA
ATOM     31  H   UNL     1       2.524   2.888  21.030  0.00  0.00    +0.000 HD
ENDBRANCH  18  30
ENDBRANCH  17  22
ENDBRANCH   1  17
TORSDOF 7
ENDMDL
