MODEL 1
REMARK VINA RESULT:      -7.6      0.000      0.000
REMARK  Name = 
REMARK  4 active torsions:
REMARK  status: ('A' for Active; 'I' for Inactive)
REMARK    1  A    between atoms: C_1  and  C_2
REMARK    2  A    between atoms: N_4  and  C_5
REMARK    3  A    between atoms: C_8  and  C_9
REMARK    4  A    between atoms: C_13  and  C_14
REMARK                            x       y       z     vdW  Elec       q    Type
REMARK                         _______ _______ _______ _____ _____    ______ ____
ROOT
ATOM      1  C   UNL     1       3.615   7.449  17.225  0.00  0.00    +0.000 C 
ATOM      2  C   UNL     1       2.968   6.931  18.461  0.00  0.00    +0.000 A 
ATOM      3  N   UNL     1       2.406   7.807  19.301  0.00  0.00    +0.000 NA
ATOM      4  N   UNL     1       1.829   7.036  20.239  0.00  0.00    +0.000 N 
ATOM      5  C   UNL     1       1.004   7.660  21.245  0.00  0.00    +0.000 C 
ATOM      6  C   UNL     1       2.025   5.692  20.044  0.00  0.00    +0.000 A 
ATOM      7  C   UNL     1       2.815   5.580  18.912  0.00  0.00    +0.000 A 
ATOM      8  C   UNL     1       3.335   4.340  18.346  0.00  0.00    +0.000 C 
ATOM      9  N   UNL     1       2.691   3.222  18.356  0.00  0.00    +0.000 NA
ATOM     10  C   UNL     1       1.347   3.142  18.940  0.00  0.00    +0.000 C 
ATOM     11  C   UNL     1       1.371   3.353  20.460  0.00  0.00    +0.000 C 
ATOM     12  N   UNL     1       1.467   4.756  20.851  0.00  0.00    +0.000 N 
ATOM     13  H   UNL     1       1.185   4.958  21.806  0.00  0.00    +0.000 HD
ENDROOT
BRANCH   8  14
ATOM     14  C   UNL     1       4.693   4.351  17.723  0.00  0.00    +0.000 A 
ATOM     15  C   UNL     1       5.846   4.618  18.473  0.00  0.00    +0.000 A 
ATOM     16  C   UNL     1       7.087   4.725  17.839  0.00  0.00    +0.000 A 
ATOM     17  C   UNL     1       7.187   4.510  16.465  0.00  0.00    +0.000 A 
ATOM     18  C   UNL     1       6.051   4.171  15.721  0.00  0.00    +0.000 A 
ATOM     19  C   UNL     1       4.804   4.090  16.351  0.00  0.00    +0.000 A 
BRANCH  18  20
ATOM     20  C   UNL     1       6.160   3.920  14.314  0.00  0.00    +0.000 C 
ATOM     21  N   UNL     1       6.261   3.718  13.177  0.00  0.00    +0.000 NA
ENDBRANCH  18  20
ENDBRANCH   8  14
TORSDOF 2
ENDMDL
MODEL 2
REMARK VINA RESULT:      -6.7      2.284      6.031
REMARK  Name = 
REMARK  4 active torsions:
REMARK  status: ('A' for Active; 'I' for Inactive)
REMARK    1  A    between atoms: C_1  and  C_2
REMARK    2  A    between atoms: N_4  and  C_5
REMARK    3  A    between atoms: C_8  and  C_9
REMARK    4  A    between atoms: C_13  and  C_14
REMARK                            x       y       z     vdW  Elec       q    Type
REMARK                         _______ _______ _______ _____ _____    ______ ____
ROOT
ATOM      1  C   UNL     1       1.200   4.564  17.834  0.00  0.00    +0.000 C 
ATOM      2  C   UNL     1       2.526   4.160  18.372  0.00  0.00    +0.000 A 
ATOM      3  N   UNL     1       2.665   2.924  18.864  0.00  0.00    +0.000 NA
ATOM      4  N   UNL     1       3.972   2.836  19.162  0.00  0.00    +0.000 N 
ATOM      5  C   UNL     1       4.506   1.567  19.596  0.00  0.00    +0.000 C 
ATOM      6  C   UNL     1       4.676   3.986  18.903  0.00  0.00    +0.000 A 
ATOM      7  C   UNL     1       3.751   4.902  18.429  0.00  0.00    +0.000 A 
ATOM      8  C   UNL     1       4.021   6.291  18.076  0.00  0.00    +0.000 C 
ATOM      9  N   UNL     1       5.122   6.692  17.534  0.00  0.00    +0.000 NA
ATOM     10  C   UNL     1       6.188   5.734  17.219  0.00  0.00    +0.000 C 
ATOM     11  C   UNL     1       6.814   5.137  18.486  0.00  0.00    +0.000 C 
ATOM     12  N   UNL     1       6.017   4.067  19.080  0.00  0.00    +0.000 N 
ATOM     13  H   UNL     1       6.521   3.457  19.717  0.00  0.00    +0.000 HD
ENDROOT
BRANCH   8  14
ATOM     14  C   UNL     1       2.974   7.319  18.356  0.00  0.00    +0.000 A 
ATOM     15  C   UNL     1       2.477   8.159  17.351  0.00  0.00    +0.000 A 
ATOM     16  C   UNL     1       1.577   9.179  17.668  0.00  0.00    +0.000 A 
ATOM     17  C   UNL     1       1.129   9.328  18.981  0.00  0.00    +0.000 A 
ATOM     18  C   UNL     1       1.565   8.447  19.978  0.00  0.00    +0.000 A 
ATOM     19  C   UNL     1       2.487   7.442  19.664  0.00  0.00    +0.000 A 
BRANCH  18  20
ATOM     20  C   UNL     1       1.082   8.582  21.320  0.00  0.00    +0.000 C 
ATOM     21  N   UNL     1       0.679   8.698  22.401  0.00  0.00    +0.000 NA
ENDBRANCH  18  20
ENDBRANCH   8  14
TORSDOF 2
ENDMDL
MODEL 3
REMARK VINA RESULT:      -6.4      1.744      2.308
REMARK  Name = 
REMARK  4 active torsions:
REMARK  status: ('A' for Active; 'I' for Inactive)
REMARK    1  A    between atoms: C_1  and  C_2
REMARK    2  A    between atoms: N_4  and  C_5
REMARK    3  A    between atoms: C_8  and  C_9
REMARK    4  A    between atoms: C_13  and  C_14
REMARK                            x       y       z     vdW  Elec       q    Type
REMARK                         _______ _______ _______ _____ _____    ______ ____
ROOT
ATOM      1  C   UNL     1       2.760   8.016  17.171  0.00  0.00    +0.000 C 
ATOM      2  C   UNL     1       2.469   7.492  18.533  0.00  0.00    +0.000 A 
ATOM      3  N   UNL     1       1.901   8.313  19.424  0.00  0.00    +0.000 NA
ATOM      4  N   UNL     1       1.675   7.529  20.492  0.00  0.00    +0.000 N 
ATOM      5  C   UNL     1       0.936   8.066  21.609  0.00  0.00    +0.000 C 
ATOM      6  C   UNL     1       2.104   6.235  20.327  0.00  0.00    +0.000 A 
ATOM      7  C   UNL     1       2.681   6.181  19.069  0.00  0.00    +0.000 A 
ATOM      8  C   UNL     1       3.334   5.020  18.473  0.00  0.00    +0.000 C 
ATOM      9  N   UNL     1       2.946   3.804  18.663  0.00  0.00    +0.000 NA
ATOM     10  C   UNL     1       1.776   3.517  19.500  0.00  0.00    +0.000 C 
ATOM     11  C   UNL     1       2.032   3.859  20.974  0.00  0.00    +0.000 C 
ATOM     12  N   UNL     1       1.906   5.283  21.271  0.00  0.00    +0.000 N 
ATOM     13  H   UNL     1       1.767   5.508  22.252  0.00  0.00    +0.000 HD
ENDROOT
BRANCH   8  14
ATOM     14  C   UNL     1       4.524   5.238  17.597  0.00  0.00    +0.000 A 
ATOM     15  C   UNL     1       4.764   4.444  16.468  0.00  0.00    +0.000 A 
ATOM     16  C   UNL     1       5.940   4.605  15.731  0.00  0.00    +0.000 A 
ATOM     17  C   UNL     1       6.853   5.597  16.089  0.00  0.00    +0.000 A 
ATOM     18  C   UNL     1       6.587   6.443  17.172  0.00  0.00    +0.000 A 
ATOM     19  C   UNL     1       5.421   6.263  17.925  0.00  0.00    +0.000 A 
BRANCH  18  20
ATOM     20  C   UNL     1       7.511   7.481  17.520  0.00  0.00    +0.000 C 
ATOM     21  N   UNL     1       8.251   8.331  17.795  0.00  0.00    +0.000 NA
ENDBRANCH  18  20
ENDBRANCH   8  14
TORSDOF 2
ENDMDL
MODEL 4
REMARK VINA RESULT:      -6.3      1.532      2.242
REMARK  Name = 
REMARK  4 active torsions:
REMARK  status: ('A' for Active; 'I' for Inactive)
REMARK    1  A    between atoms: C_1  and  C_2
REMARK    2  A    between atoms: N_4  and  C_5
REMARK    3  A    between atoms: C_8  and  C_9
REMARK    4  A    between atoms: C_13  and  C_14
REMARK                            x       y       z     vdW  Elec       q    Type
REMARK                         _______ _______ _______ _____ _____    ______ ____
ROOT
ATOM      1  C   UNL     1       3.423   7.654  17.483  0.00  0.00    +0.000 C 
ATOM      2  C   UNL     1       2.729   7.014  18.633  0.00  0.00    +0.000 A 
ATOM      3  N   UNL     1       2.162   7.800  19.554  0.00  0.00    +0.000 NA
ATOM      4  N   UNL     1       1.542   6.941  20.380  0.00  0.00    +0.000 N 
ATOM      5  C   UNL     1       0.701   7.464  21.430  0.00  0.00    +0.000 C 
ATOM      6  C   UNL     1       1.714   5.623  20.036  0.00  0.00    +0.000 A 
ATOM      7  C   UNL     1       2.533   5.623  18.919  0.00  0.00    +0.000 A 
ATOM      8  C   UNL     1       3.044   4.445  18.228  0.00  0.00    +0.000 C 
ATOM      9  N   UNL     1       2.375   3.349  18.091  0.00  0.00    +0.000 NA
ATOM     10  C   UNL     1       1.014   3.236  18.625  0.00  0.00    +0.000 C 
ATOM     11  C   UNL     1       0.997   3.269  20.159  0.00  0.00    +0.000 C 
ATOM     12  N   UNL     1       1.112   4.615  20.713  0.00  0.00    +0.000 N 
ATOM     13  H   UNL     1       0.807   4.712  21.678  0.00  0.00    +0.000 HD
ENDROOT
BRANCH   8  14
ATOM     14  C   UNL     1       4.419   4.494  17.646  0.00  0.00    +0.000 A 
ATOM     15  C   UNL     1       4.653   4.251  16.286  0.00  0.00    +0.000 A 
ATOM     16  C   UNL     1       5.960   4.200  15.796  0.00  0.00    +0.000 A 
ATOM     17  C   UNL     1       7.033   4.445  16.652  0.00  0.00    +0.000 A 
ATOM     18  C   UNL     1       6.805   4.760  17.996  0.00  0.00    +0.000 A 
ATOM     19  C   UNL     1       5.496   4.785  18.493  0.00  0.00    +0.000 A 
BRANCH  18  20
ATOM     20  C   UNL     1       7.906   5.042  18.868  0.00  0.00    +0.000 C 
ATOM     21  N   UNL     1       8.792   5.261  19.584  0.00  0.00    +0.000 NA
ENDBRANCH  18  20
ENDBRANCH   8  14
TORSDOF 2
ENDMDL
MODEL 5
REMARK VINA RESULT:      -6.1      1.986      5.977
REMARK  Name = 
REMARK  4 active torsions:
REMARK  status: ('A' for Active; 'I' for Inactive)
REMARK    1  A    between atoms: C_1  and  C_2
REMARK    2  A    between atoms: N_4  and  C_5
REMARK    3  A    between atoms: C_8  and  C_9
REMARK    4  A    between atoms: C_13  and  C_14
REMARK                            x       y       z     vdW  Elec       q    Type
REMARK                         _______ _______ _______ _____ _____    ______ ____
ROOT
ATOM      1  C   UNL     1       5.474   7.844  17.450  0.00  0.00    +0.000 C 
ATOM      2  C   UNL     1       5.244   6.430  17.046  0.00  0.00    +0.000 A 
ATOM      3  N   UNL     1       5.930   5.944  16.006  0.00  0.00    +0.000 NA
ATOM      4  N   UNL     1       5.585   4.646  15.966  0.00  0.00    +0.000 N 
ATOM      5  C   UNL     1       6.256   3.774  15.032  0.00  0.00    +0.000 C 
ATOM      6  C   UNL     1       4.678   4.286  16.931  0.00  0.00    +0.000 A 
ATOM      7  C   UNL     1       4.386   5.444  17.633  0.00  0.00    +0.000 A 
ATOM      8  C   UNL     1       3.422   5.570  18.720  0.00  0.00    +0.000 C 
ATOM      9  N   UNL     1       3.201   4.644  19.592  0.00  0.00    +0.000 NA
ATOM     10  C   UNL     1       3.947   3.382  19.544  0.00  0.00    +0.000 C 
ATOM     11  C   UNL     1       3.589   2.553  18.303  0.00  0.00    +0.000 C 
ATOM     12  N   UNL     1       4.260   3.006  17.087  0.00  0.00    +0.000 N 
ATOM     13  H   UNL     1       4.293   2.326  16.334  0.00  0.00    +0.000 HD
ENDROOT
BRANCH   8  14
ATOM     14  C   UNL     1       2.635   6.834  18.839  0.00  0.00    +0.000 A 
ATOM     15  C   UNL     1       2.270   7.583  17.712  0.00  0.00    +0.000 A 
ATOM     16  C   UNL     1       1.628   8.814  17.865  0.00  0.00    +0.000 A 
ATOM     17  C   UNL     1       1.299   9.273  19.141  0.00  0.00    +0.000 A 
ATOM     18  C   UNL     1       1.595   8.497  20.267  0.00  0.00    +0.000 A 
ATOM     19  C   UNL     1       2.263   7.276  20.115  0.00  0.00    +0.000 A 
BRANCH  18  20
ATOM     20  C   UNL     1       1.230   8.955  21.574  0.00  0.00    +0.000 C 
ATOM     21  N   UNL     1       0.944   9.337  22.632  0.00  0.00    +0.000 NA
ENDBRANCH  18  20
ENDBRANCH   8  14
TORSDOF 2
ENDMDL
MODEL 6
REMARK VINA RESULT:      -6.0      2.239      5.685
REMARK  Name = 
REMARK  4 active torsions:
REMARK  status: ('A' for Active; 'I' for Inactive)
REMARK    1  A    between atoms: C_1  and  C_2
REMARK    2  A    between atoms: N_4  and  C_5
REMARK    3  A    between atoms: C_8  and  C_9
REMARK    4  A    between atoms: C_13  and  C_14
REMARK                            x       y       z     vdW  Elec       q    Type
REMARK                         _______ _______ _______ _____ _____    ______ ____
ROOT
ATOM      1  C   UNL     1       3.622   7.241  16.573  0.00  0.00    +0.000 C 
ATOM      2  C   UNL     1       4.814   6.373  16.374  0.00  0.00    +0.000 A 
ATOM      3  N   UNL     1       5.323   6.260  15.143  0.00  0.00    +0.000 NA
ATOM      4  N   UNL     1       6.428   5.514  15.313  0.00  0.00    +0.000 N 
ATOM      5  C   UNL     1       7.310   5.307  14.190  0.00  0.00    +0.000 C 
ATOM      6  C   UNL     1       6.632   5.121  16.612  0.00  0.00    +0.000 A 
ATOM      7  C   UNL     1       5.564   5.622  17.337  0.00  0.00    +0.000 A 
ATOM      8  C   UNL     1       5.314   5.409  18.758  0.00  0.00    +0.000 C 
ATOM      9  N   UNL     1       6.248   5.328  19.646  0.00  0.00    +0.000 NA
ATOM     10  C   UNL     1       7.656   5.471  19.260  0.00  0.00    +0.000 C 
ATOM     11  C   UNL     1       8.131   4.301  18.388  0.00  0.00    +0.000 C 
ATOM     12  N   UNL     1       7.727   4.416  16.989  0.00  0.00    +0.000 N 
ATOM     13  H   UNL     1       8.260   3.846  16.338  0.00  0.00    +0.000 HD
ENDROOT
BRANCH   8  14
ATOM     14  C   UNL     1       3.902   5.268  19.225  0.00  0.00    +0.000 A 
ATOM     15  C   UNL     1       3.316   6.200  20.092  0.00  0.00    +0.000 A 
ATOM     16  C   UNL     1       2.030   5.982  20.593  0.00  0.00    +0.000 A 
ATOM     17  C   UNL     1       1.306   4.861  20.186  0.00  0.00    +0.000 A 
ATOM     18  C   UNL     1       1.856   3.964  19.264  0.00  0.00    +0.000 A 
ATOM     19  C   UNL     1       3.155   4.168  18.783  0.00  0.00    +0.000 A 
BRANCH  18  20
ATOM     20  C   UNL     1       1.101   2.829  18.823  0.00  0.00    +0.000 C 
ATOM     21  N   UNL     1       0.480   1.919  18.460  0.00  0.00    +0.000 NA
ENDBRANCH  18  20
ENDBRANCH   8  14
TORSDOF 2
ENDMDL
MODEL 7
REMARK VINA RESULT:      -5.9      9.739     11.663
REMARK  Name = 
REMARK  4 active torsions:
REMARK  status: ('A' for Active; 'I' for Inactive)
REMARK    1  A    between atoms: C_1  and  C_2
REMARK    2  A    between atoms: N_4  and  C_5
REMARK    3  A    between atoms: C_8  and  C_9
REMARK    4  A    between atoms: C_13  and  C_14
REMARK                            x       y       z     vdW  Elec       q    Type
REMARK                         _______ _______ _______ _____ _____    ______ ____
ROOT
ATOM      1  C   UNL     1      11.809  13.467  16.799  0.00  0.00    +0.000 C 
ATOM      2  C   UNL     1      11.437  14.803  17.338  0.00  0.00    +0.000 A 
ATOM      3  N   UNL     1      12.292  15.818  17.174  0.00  0.00    +0.000 NA
ATOM      4  N   UNL     1      11.634  16.882  17.663  0.00  0.00    +0.000 N 
ATOM      5  C   UNL     1      12.220  18.193  17.518  0.00  0.00    +0.000 C 
ATOM      6  C   UNL     1      10.391  16.581  18.162  0.00  0.00    +0.000 A 
ATOM      7  C   UNL     1      10.242  15.212  18.015  0.00  0.00    +0.000 A 
ATOM      8  C   UNL     1       9.101  14.419  18.460  0.00  0.00    +0.000 C 
ATOM      9  N   UNL     1       7.882  14.844  18.438  0.00  0.00    +0.000 NA
ATOM     10  C   UNL     1       7.569  16.183  17.929  0.00  0.00    +0.000 C 
ATOM     11  C   UNL     1       8.129  17.285  18.838  0.00  0.00    +0.000 C 
ATOM     12  N   UNL     1       9.554  17.534  18.640  0.00  0.00    +0.000 N 
ATOM     13  H   UNL     1       9.887  18.429  18.985  0.00  0.00    +0.000 HD
ENDROOT
BRANCH   8  14
ATOM     14  C   UNL     1       9.344  13.039  18.978  0.00  0.00    +0.000 A 
ATOM     15  C   UNL     1      10.158  12.804  20.095  0.00  0.00    +0.000 A 
ATOM     16  C   UNL     1      10.449  11.496  20.488  0.00  0.00    +0.000 A 
ATOM     17  C   UNL     1       9.885  10.421  19.802  0.00  0.00    +0.000 A 
ATOM     18  C   UNL     1       9.013  10.649  18.731  0.00  0.00    +0.000 A 
ATOM     19  C   UNL     1       8.742  11.959  18.320  0.00  0.00    +0.000 A 
BRANCH  18  20
ATOM     20  C   UNL     1       8.410   9.545  18.045  0.00  0.00    +0.000 C 
ATOM     21  N   UNL     1       7.922   8.658  17.478  0.00  0.00    +0.000 NA
ENDBRANCH  18  20
ENDBRANCH   8  14
TORSDOF 2
ENDMDL
MODEL 8
REMARK VINA RESULT:      -5.9      2.047      6.101
REMARK  Name = 
REMARK  4 active torsions:
REMARK  status: ('A' for Active; 'I' for Inactive)
REMARK    1  A    between atoms: C_1  and  C_2
REMARK    2  A    between atoms: N_4  and  C_5
REMARK    3  A    between atoms: C_8  and  C_9
REMARK    4  A    between atoms: C_13  and  C_14
REMARK                            x       y       z     vdW  Elec       q    Type
REMARK                         _______ _______ _______ _____ _____    ______ ____
ROOT
ATOM      1  C   UNL     1       3.613   7.026  16.743  0.00  0.00    +0.000 C 
ATOM      2  C   UNL     1       4.830   6.206  16.501  0.00  0.00    +0.000 A 
ATOM      3  N   UNL     1       5.274   6.079  15.246  0.00  0.00    +0.000 NA
ATOM      4  N   UNL     1       6.419   5.387  15.373  0.00  0.00    +0.000 N 
ATOM      5  C   UNL     1       7.246   5.185  14.208  0.00  0.00    +0.000 C 
ATOM      6  C   UNL     1       6.713   5.040  16.668  0.00  0.00    +0.000 A 
ATOM      7  C   UNL     1       5.665   5.516  17.439  0.00  0.00    +0.000 A 
ATOM      8  C   UNL     1       5.505   5.333  18.877  0.00  0.00    +0.000 C 
ATOM      9  N   UNL     1       6.490   5.319  19.712  0.00  0.00    +0.000 NA
ATOM     10  C   UNL     1       7.866   5.511  19.243  0.00  0.00    +0.000 C 
ATOM     11  C   UNL     1       8.344   4.338  18.377  0.00  0.00    +0.000 C 
ATOM     12  N   UNL     1       7.858   4.395  17.001  0.00  0.00    +0.000 N 
ATOM     13  H   UNL     1       8.379   3.830  16.336  0.00  0.00    +0.000 HD
ENDROOT
BRANCH   8  14
ATOM     14  C   UNL     1       4.128   5.145  19.428  0.00  0.00    +0.000 A 
ATOM     15  C   UNL     1       3.519   3.885  19.473  0.00  0.00    +0.000 A 
ATOM     16  C   UNL     1       2.193   3.760  19.894  0.00  0.00    +0.000 A 
ATOM     17  C   UNL     1       1.491   4.886  20.324  0.00  0.00    +0.000 A 
ATOM     18  C   UNL     1       2.116   6.138  20.350  0.00  0.00    +0.000 A 
ATOM     19  C   UNL     1       3.437   6.267  19.903  0.00  0.00    +0.000 A 
BRANCH  18  20
ATOM     20  C   UNL     1       1.405   7.289  20.820  0.00  0.00    +0.000 C 
ATOM     21  N   UNL     1       0.837   8.230  21.193  0.00  0.00    +0.000 NA
ENDBRANCH  18  20
ENDBRANCH   8  14
TORSDOF 2
ENDMDL
MODEL 9
REMARK VINA RESULT:      -5.9      2.348      6.034
REMARK  Name = 
REMARK  4 active torsions:
REMARK  status: ('A' for Active; 'I' for Inactive)
REMARK    1  A    between atoms: C_1  and  C_2
REMARK    2  A    between atoms: N_4  and  C_5
REMARK    3  A    between atoms: C_8  and  C_9
REMARK    4  A    between atoms: C_13  and  C_14
REMARK                            x       y       z     vdW  Elec       q    Type
REMARK                         _______ _______ _______ _____ _____    ______ ____
ROOT
ATOM      1  C   UNL     1       3.764   7.328  16.650  0.00  0.00    +0.000 C 
ATOM      2  C   UNL     1       4.897   6.388  16.432  0.00  0.00    +0.000 A 
ATOM      3  N   UNL     1       5.299   6.154  15.178  0.00  0.00    +0.000 NA
ATOM      4  N   UNL     1       6.380   5.368  15.324  0.00  0.00    +0.000 N 
ATOM      5  C   UNL     1       7.159   5.029  14.157  0.00  0.00    +0.000 C 
ATOM      6  C   UNL     1       6.671   5.066  16.631  0.00  0.00    +0.000 A 
ATOM      7  C   UNL     1       5.687   5.676  17.392  0.00  0.00    +0.000 A 
ATOM      8  C   UNL     1       5.543   5.587  18.841  0.00  0.00    +0.000 C 
ATOM      9  N   UNL     1       6.541   5.527  19.658  0.00  0.00    +0.000 NA
ATOM     10  C   UNL     1       7.918   5.568  19.155  0.00  0.00    +0.000 C 
ATOM     11  C   UNL     1       8.269   4.311  18.347  0.00  0.00    +0.000 C 
ATOM     12  N   UNL     1       7.759   4.338  16.979  0.00  0.00    +0.000 N 
ATOM     13  H   UNL     1       8.212   3.693  16.337  0.00  0.00    +0.000 HD
ENDROOT
BRANCH   8  14
ATOM     14  C   UNL     1       4.168   5.554  19.425  0.00  0.00    +0.000 A 
ATOM     15  C   UNL     1       3.298   6.647  19.320  0.00  0.00    +0.000 A 
ATOM     16  C   UNL     1       2.060   6.624  19.968  0.00  0.00    +0.000 A 
ATOM     17  C   UNL     1       1.667   5.489  20.675  0.00  0.00    +0.000 A 
ATOM     18  C   UNL     1       2.500   4.365  20.724  0.00  0.00    +0.000 A 
ATOM     19  C   UNL     1       3.751   4.398  20.096  0.00  0.00    +0.000 A 
BRANCH  18  20
ATOM     20  C   UNL     1       2.082   3.187  21.424  0.00  0.00    +0.000 C 
ATOM     21  N   UNL     1       1.736   2.230  21.981  0.00  0.00    +0.000 NA
ENDBRANCH  18  20
ENDBRANCH   8  14
TORSDOF 2
ENDMDL
