MODEL 1
REMARK VINA RESULT:      -8.2      0.000      0.000
REMARK  Name = 
REMARK  4 active torsions:
REMARK  status: ('A' for Active; 'I' for Inactive)
REMARK    1  A    between atoms: C_2  and  C_11
REMARK    2  A    between atoms: N_3  and  C_4
REMARK    3  A    between atoms: C_4  and  C_5
REMARK    4  A    between atoms: C_16  and  C_17
REMARK                            x       y       z     vdW  Elec       q    Type
REMARK                         _______ _______ _______ _____ _____    ______ ____
ROOT
ATOM      1  C   UNL     1       1.520   8.695  19.548  0.00  0.00    +0.000 A 
ATOM      2  C   UNL     1       1.285   8.184  20.811  0.00  0.00    +0.000 A 
ATOM      3  C   UNL     1       0.510   9.117  21.543  0.00  0.00    +0.000 A 
ATOM      4  C   UNL     1      -0.006   9.123  22.850  0.00  0.00    +0.000 A 
ATOM      5  C   UNL     1      -0.747  10.223  23.283  0.00  0.00    +0.000 A 
ATOM      6  C   UNL     1      -0.985  11.314  22.439  0.00  0.00    +0.000 A 
ATOM      7  C   UNL     1      -0.481  11.322  21.126  0.00  0.00    +0.000 A 
ATOM      8  C   UNL     1       0.269  10.207  20.709  0.00  0.00    +0.000 A 
ATOM      9  N   UNL     1       0.895   9.929  19.511  0.00  0.00    +0.000 N 
ATOM     10  H   UNL     1       0.909  10.537  18.701  0.00  0.00    +0.000 HD
ENDROOT
BRANCH   6  11
ATOM     11  C   UNL     1      -1.788  12.419  22.975  0.00  0.00    +0.000 C 
ATOM     12  C   UNL     1      -3.061  12.223  23.364  0.00  0.00    +0.000 C 
ATOM     13  C   UNL     1      -3.845  13.272  24.098  0.00  0.00    +0.000 C 
ATOM     14  O   UNL     1      -3.010  14.314  24.614  0.00  0.00    +0.000 OA
ATOM     15  C   UNL     1      -2.112  14.814  23.621  0.00  0.00    +0.000 C 
ATOM     16  C   UNL     1      -1.102  13.735  23.224  0.00  0.00    +0.000 C 
ENDBRANCH   6  11
BRANCH   1  18
ATOM     17  O   UNL     1       2.350   8.755  17.353  0.00  0.00    +0.000 OA
ATOM     18  C   UNL     1       2.263   8.160  18.422  0.00  0.00    +0.000 C 
ATOM     19  N   UNL     1       2.863   6.943  18.658  0.00  0.00    +0.000 N 
ATOM     20  H   UNL     1       2.705   6.489  19.544  0.00  0.00    +0.000 HD
BRANCH  19  21
ATOM     21  C   UNL     1       3.697   6.250  17.694  0.00  0.00    +0.000 C 
BRANCH  21  22
ATOM     22  C   UNL     1       4.237   4.926  18.270  0.00  0.00    +0.000 C 
ATOM     23  C   UNL     1       5.543   5.115  19.062  0.00  0.00    +0.000 C 
ATOM     24  C   UNL     1       6.739   5.374  18.146  0.00  0.00    +0.000 C 
ATOM     25  N   UNL     1       6.901   4.298  17.166  0.00  0.00    +0.000 NA
ATOM     26  C   UNL     1       5.708   4.161  16.330  0.00  0.00    +0.000 C 
ATOM     27  C   UNL     1       4.458   3.880  17.164  0.00  0.00    +0.000 C 
ATOM     28  H   UNL     1       7.065   3.422  17.662  0.00  0.00    +0.000 HD
ENDBRANCH  21  22
ENDBRANCH  19  21
ENDBRANCH   1  18
TORSDOF 4
ENDMDL
MODEL 2
REMARK VINA RESULT:      -8.1      1.859      2.397
REMARK  Name = 
REMARK  4 active torsions:
REMARK  status: ('A' for Active; 'I' for Inactive)
REMARK    1  A    between atoms: C_2  and  C_11
REMARK    2  A    between atoms: N_3  and  C_4
REMARK    3  A    between atoms: C_4  and  C_5
REMARK    4  A    between atoms: C_16  and  C_17
REMARK                            x       y       z     vdW  Elec       q    Type
REMARK                         _______ _______ _______ _____ _____    ______ ____
ROOT
ATOM      1  C   UNL     1       1.553   8.270  20.108  0.00  0.00    +0.000 A 
ATOM      2  C   UNL     1       1.258   8.120  21.451  0.00  0.00    +0.000 A 
ATOM      3  C   UNL     1       0.390   9.168  21.847  0.00  0.00    +0.000 A 
ATOM      4  C   UNL     1      -0.213   9.507  23.069  0.00  0.00    +0.000 A 
ATOM      5  C   UNL     1      -1.036  10.632  23.132  0.00  0.00    +0.000 A 
ATOM      6  C   UNL     1      -1.269  11.423  22.002  0.00  0.00    +0.000 A 
ATOM      7  C   UNL     1      -0.679  11.096  20.768  0.00  0.00    +0.000 A 
ATOM      8  C   UNL     1       0.153   9.961  20.725  0.00  0.00    +0.000 A 
ATOM      9  N   UNL     1       0.871   9.400  19.689  0.00  0.00    +0.000 N 
ATOM     10  H   UNL     1       0.910   9.755  18.742  0.00  0.00    +0.000 HD
ENDROOT
BRANCH   6  11
ATOM     11  C   UNL     1      -2.161  12.578  22.159  0.00  0.00    +0.000 C 
ATOM     12  C   UNL     1      -2.220  13.539  21.220  0.00  0.00    +0.000 C 
ATOM     13  C   UNL     1      -3.256  14.625  21.248  0.00  0.00    +0.000 C 
ATOM     14  O   UNL     1      -4.329  14.330  22.149  0.00  0.00    +0.000 OA
ATOM     15  C   UNL     1      -3.848  13.919  23.430  0.00  0.00    +0.000 C 
ATOM     16  C   UNL     1      -3.118  12.578  23.321  0.00  0.00    +0.000 C 
ENDBRANCH   6  11
BRANCH   1  18
ATOM     17  O   UNL     1       2.879   7.962  18.196  0.00  0.00    +0.000 OA
ATOM     18  C   UNL     1       2.396   7.492  19.221  0.00  0.00    +0.000 C 
ATOM     19  N   UNL     1       2.614   6.194  19.629  0.00  0.00    +0.000 N 
ATOM     20  H   UNL     1       2.142   5.862  20.457  0.00  0.00    +0.000 HD
BRANCH  19  21
ATOM     21  C   UNL     1       3.466   5.254  18.925  0.00  0.00    +0.000 C 
BRANCH  21  22
ATOM     22  C   UNL     1       2.726   4.608  17.738  0.00  0.00    +0.000 C 
ATOM     23  C   UNL     1       1.347   4.053  18.132  0.00  0.00    +0.000 C 
ATOM     24  C   UNL     1       1.456   2.768  18.952  0.00  0.00    +0.000 C 
ATOM     25  N   UNL     1       2.221   1.744  18.236  0.00  0.00    +0.000 NA
ATOM     26  C   UNL     1       3.574   2.209  17.934  0.00  0.00    +0.000 C 
ATOM     27  C   UNL     1       3.562   3.488  17.096  0.00  0.00    +0.000 C 
ATOM     28  H   UNL     1       1.739   1.523  17.364  0.00  0.00    +0.000 HD
ENDBRANCH  21  22
ENDBRANCH  19  21
ENDBRANCH   1  18
TORSDOF 4
ENDMDL
MODEL 3
REMARK VINA RESULT:      -8.1      2.648     10.275
REMARK  Name = 
REMARK  4 active torsions:
REMARK  status: ('A' for Active; 'I' for Inactive)
REMARK    1  A    between atoms: C_2  and  C_11
REMARK    2  A    between atoms: N_3  and  C_4
REMARK    3  A    between atoms: C_4  and  C_5
REMARK    4  A    between atoms: C_16  and  C_17
REMARK                            x       y       z     vdW  Elec       q    Type
REMARK                         _______ _______ _______ _____ _____    ______ ____
ROOT
ATOM      1  C   UNL     1       0.356   9.735  21.360  0.00  0.00    +0.000 A 
ATOM      2  C   UNL     1       0.518  10.230  20.080  0.00  0.00    +0.000 A 
ATOM      3  C   UNL     1       1.278   9.303  19.324  0.00  0.00    +0.000 A 
ATOM      4  C   UNL     1       1.737   9.291  17.997  0.00  0.00    +0.000 A 
ATOM      5  C   UNL     1       2.483   8.202  17.546  0.00  0.00    +0.000 A 
ATOM      6  C   UNL     1       2.779   7.126  18.390  0.00  0.00    +0.000 A 
ATOM      7  C   UNL     1       2.322   7.118  19.721  0.00  0.00    +0.000 A 
ATOM      8  C   UNL     1       1.576   8.228  20.160  0.00  0.00    +0.000 A 
ATOM      9  N   UNL     1       1.012   8.516  21.386  0.00  0.00    +0.000 N 
ATOM     10  H   UNL     1       1.064   7.928  22.208  0.00  0.00    +0.000 HD
ENDROOT
BRANCH   6  11
ATOM     11  C   UNL     1       3.557   6.018  17.824  0.00  0.00    +0.000 C 
ATOM     12  C   UNL     1       3.072   4.764  17.822  0.00  0.00    +0.000 C 
ATOM     13  C   UNL     1       3.744   3.646  17.079  0.00  0.00    +0.000 C 
ATOM     14  O   UNL     1       4.714   4.123  16.140  0.00  0.00    +0.000 OA
ATOM     15  C   UNL     1       5.600   5.076  16.731  0.00  0.00    +0.000 C 
ATOM     16  C   UNL     1       4.839   6.349  17.109  0.00  0.00    +0.000 C 
ENDBRANCH   6  11
BRANCH   1  18
ATOM     17  O   UNL     1       0.018  10.003  23.667  0.00  0.00    +0.000 OA
ATOM     18  C   UNL     1      -0.316  10.286  22.522  0.00  0.00    +0.000 C 
ATOM     19  N   UNL     1      -1.347  11.151  22.230  0.00  0.00    +0.000 N 
ATOM     20  H   UNL     1      -1.600  11.296  21.264  0.00  0.00    +0.000 HD
BRANCH  19  21
ATOM     21  C   UNL     1      -2.122  11.858  23.234  0.00  0.00    +0.000 C 
BRANCH  21  22
ATOM     22  C   UNL     1      -2.786  13.117  22.644  0.00  0.00    +0.000 C 
ATOM     23  C   UNL     1      -2.500  14.381  23.473  0.00  0.00    +0.000 C 
ATOM     24  C   UNL     1      -3.286  14.401  24.782  0.00  0.00    +0.000 C 
ATOM     25  N   UNL     1      -4.725  14.279  24.541  0.00  0.00    +0.000 NA
ATOM     26  C   UNL     1      -5.040  13.035  23.839  0.00  0.00    +0.000 C 
ATOM     27  C   UNL     1      -4.307  12.935  22.500  0.00  0.00    +0.000 C 
ATOM     28  H   UNL     1      -5.032  15.070  23.975  0.00  0.00    +0.000 HD
ENDBRANCH  21  22
ENDBRANCH  19  21
ENDBRANCH   1  18
TORSDOF 4
ENDMDL
MODEL 4
REMARK VINA RESULT:      -8.0      0.795      1.254
REMARK  Name = 
REMARK  4 active torsions:
REMARK  status: ('A' for Active; 'I' for Inactive)
REMARK    1  A    between atoms: C_2  and  C_11
REMARK    2  A    between atoms: N_3  and  C_4
REMARK    3  A    between atoms: C_4  and  C_5
REMARK    4  A    between atoms: C_16  and  C_17
REMARK                            x       y       z     vdW  Elec       q    Type
REMARK                         _______ _______ _______ _____ _____    ______ ____
ROOT
ATOM      1  C   UNL     1       1.424   8.953  19.459  0.00  0.00    +0.000 A 
ATOM      2  C   UNL     1       1.221   8.383  20.702  0.00  0.00    +0.000 A 
ATOM      3  C   UNL     1       0.436   9.266  21.485  0.00  0.00    +0.000 A 
ATOM      4  C   UNL     1      -0.060   9.204  22.798  0.00  0.00    +0.000 A 
ATOM      5  C   UNL     1      -0.819  10.266  23.288  0.00  0.00    +0.000 A 
ATOM      6  C   UNL     1      -1.094  11.387  22.496  0.00  0.00    +0.000 A 
ATOM      7  C   UNL     1      -0.611  11.463  21.177  0.00  0.00    +0.000 A 
ATOM      8  C   UNL     1       0.158  10.384  20.702  0.00  0.00    +0.000 A 
ATOM      9  N   UNL     1       0.771  10.173  19.484  0.00  0.00    +0.000 N 
ATOM     10  H   UNL     1       0.759  10.814  18.701  0.00  0.00    +0.000 HD
ENDROOT
BRANCH   6  11
ATOM     11  C   UNL     1      -1.914  12.449  23.091  0.00  0.00    +0.000 C 
ATOM     12  C   UNL     1      -3.172  12.204  23.499  0.00  0.00    +0.000 C 
ATOM     13  C   UNL     1      -3.967  13.203  24.289  0.00  0.00    +0.000 C 
ATOM     14  O   UNL     1      -3.148  14.248  24.826  0.00  0.00    +0.000 OA
ATOM     15  C   UNL     1      -2.286  14.808  23.834  0.00  0.00    +0.000 C 
ATOM     16  C   UNL     1      -1.257  13.773  23.374  0.00  0.00    +0.000 C 
ENDBRANCH   6  11
BRANCH   1  18
ATOM     17  O   UNL     1       2.164   9.092  17.236  0.00  0.00    +0.000 OA
ATOM     18  C   UNL     1       2.162   8.484  18.301  0.00  0.00    +0.000 C 
ATOM     19  N   UNL     1       2.860   7.314  18.501  0.00  0.00    +0.000 N 
ATOM     20  H   UNL     1       2.770   6.842  19.388  0.00  0.00    +0.000 HD
BRANCH  19  21
ATOM     21  C   UNL     1       3.706   6.692  17.499  0.00  0.00    +0.000 C 
BRANCH  21  22
ATOM     22  C   UNL     1       4.870   5.921  18.150  0.00  0.00    +0.000 C 
ATOM     23  C   UNL     1       5.635   5.043  17.144  0.00  0.00    +0.000 C 
ATOM     24  C   UNL     1       4.842   3.800  16.744  0.00  0.00    +0.000 C 
ATOM     25  N   UNL     1       4.471   3.006  17.918  0.00  0.00    +0.000 NA
ATOM     26  C   UNL     1       3.658   3.787  18.849  0.00  0.00    +0.000 C 
ATOM     27  C   UNL     1       4.383   5.048  19.319  0.00  0.00    +0.000 C 
ATOM     28  H   UNL     1       5.322   2.701  18.390  0.00  0.00    +0.000 HD
ENDBRANCH  21  22
ENDBRANCH  19  21
ENDBRANCH   1  18
TORSDOF 4
ENDMDL
MODEL 5
REMARK VINA RESULT:      -8.0      2.653     10.194
REMARK  Name = 
REMARK  4 active torsions:
REMARK  status: ('A' for Active; 'I' for Inactive)
REMARK    1  A    between atoms: C_2  and  C_11
REMARK    2  A    between atoms: N_3  and  C_4
REMARK    3  A    between atoms: C_4  and  C_5
REMARK    4  A    between atoms: C_16  and  C_17
REMARK                            x       y       z     vdW  Elec       q    Type
REMARK                         _______ _______ _______ _____ _____    ______ ____
ROOT
ATOM      1  C   UNL     1       0.419  10.199  21.258  0.00  0.00    +0.000 A 
ATOM      2  C   UNL     1       0.609  10.572  19.940  0.00  0.00    +0.000 A 
ATOM      3  C   UNL     1       1.266   9.517  19.258  0.00  0.00    +0.000 A 
ATOM      4  C   UNL     1       1.703   9.353  17.934  0.00  0.00    +0.000 A 
ATOM      5  C   UNL     1       2.335   8.165  17.568  0.00  0.00    +0.000 A 
ATOM      6  C   UNL     1       2.538   7.137  18.496  0.00  0.00    +0.000 A 
ATOM      7  C   UNL     1       2.102   7.281  19.825  0.00  0.00    +0.000 A 
ATOM      8  C   UNL     1       1.472   8.490  20.177  0.00  0.00    +0.000 A 
ATOM      9  N   UNL     1       0.955   8.929  21.379  0.00  0.00    +0.000 N 
ATOM     10  H   UNL     1       0.962   8.407  22.246  0.00  0.00    +0.000 HD
ENDROOT
BRANCH   6  11
ATOM     11  C   UNL     1       3.197   5.917  18.017  0.00  0.00    +0.000 C 
ATOM     12  C   UNL     1       4.524   5.889  17.798  0.00  0.00    +0.000 C 
ATOM     13  C   UNL     1       5.261   4.614  17.503  0.00  0.00    +0.000 C 
ATOM     14  O   UNL     1       4.483   3.453  17.811  0.00  0.00    +0.000 OA
ATOM     15  C   UNL     1       3.168   3.533  17.259  0.00  0.00    +0.000 C 
ATOM     16  C   UNL     1       2.376   4.659  17.928  0.00  0.00    +0.000 C 
ENDBRANCH   6  11
BRANCH   1  18
ATOM     17  O   UNL     1      -0.321  10.386  23.477  0.00  0.00    +0.000 OA
ATOM     18  C   UNL     1      -0.181  10.904  22.375  0.00  0.00    +0.000 C 
ATOM     19  N   UNL     1      -0.569  12.196  22.095  0.00  0.00    +0.000 N 
ATOM     20  H   UNL     1      -0.469  12.538  21.151  0.00  0.00    +0.000 HD
BRANCH  19  21
ATOM     21  C   UNL     1      -1.141  13.101  23.074  0.00  0.00    +0.000 C 
BRANCH  21  22
ATOM     22  C   UNL     1      -2.508  13.639  22.608  0.00  0.00    +0.000 C 
ATOM     23  C   UNL     1      -2.886  14.966  23.288  0.00  0.00    +0.000 C 
ATOM     24  C   UNL     1      -3.297  14.769  24.747  0.00  0.00    +0.000 C 
ATOM     25  N   UNL     1      -4.403  13.816  24.863  0.00  0.00    +0.000 NA
ATOM     26  C   UNL     1      -4.038  12.511  24.312  0.00  0.00    +0.000 C 
ATOM     27  C   UNL     1      -3.627  12.609  22.842  0.00  0.00    +0.000 C 
ATOM     28  H   UNL     1      -5.208  14.182  24.354  0.00  0.00    +0.000 HD
ENDBRANCH  21  22
ENDBRANCH  19  21
ENDBRANCH   1  18
TORSDOF 4
ENDMDL
MODEL 6
REMARK VINA RESULT:      -7.9      2.655     10.198
REMARK  Name = 
REMARK  4 active torsions:
REMARK  status: ('A' for Active; 'I' for Inactive)
REMARK    1  A    between atoms: C_2  and  C_11
REMARK    2  A    between atoms: N_3  and  C_4
REMARK    3  A    between atoms: C_4  and  C_5
REMARK    4  A    between atoms: C_16  and  C_17
REMARK                            x       y       z     vdW  Elec       q    Type
REMARK                         _______ _______ _______ _____ _____    ______ ____
ROOT
ATOM      1  C   UNL     1       0.349   9.819  21.437  0.00  0.00    +0.000 A 
ATOM      2  C   UNL     1       0.468  10.279  20.138  0.00  0.00    +0.000 A 
ATOM      3  C   UNL     1       1.205   9.332  19.385  0.00  0.00    +0.000 A 
ATOM      4  C   UNL     1       1.620   9.283  18.044  0.00  0.00    +0.000 A 
ATOM      5  C   UNL     1       2.354   8.183  17.599  0.00  0.00    +0.000 A 
ATOM      6  C   UNL     1       2.680   7.132  18.463  0.00  0.00    +0.000 A 
ATOM      7  C   UNL     1       2.268   7.161  19.808  0.00  0.00    +0.000 A 
ATOM      8  C   UNL     1       1.533   8.282  20.240  0.00  0.00    +0.000 A 
ATOM      9  N   UNL     1       1.010   8.603  21.475  0.00  0.00    +0.000 N 
ATOM     10  H   UNL     1       1.090   8.039  22.311  0.00  0.00    +0.000 HD
ENDROOT
BRANCH   6  11
ATOM     11  C   UNL     1       3.441   6.010  17.903  0.00  0.00    +0.000 C 
ATOM     12  C   UNL     1       2.930   4.766  17.890  0.00  0.00    +0.000 C 
ATOM     13  C   UNL     1       3.589   3.637  17.151  0.00  0.00    +0.000 C 
ATOM     14  O   UNL     1       4.580   4.096  16.227  0.00  0.00    +0.000 OA
ATOM     15  C   UNL     1       5.478   5.028  16.832  0.00  0.00    +0.000 C 
ATOM     16  C   UNL     1       4.739   6.316  17.205  0.00  0.00    +0.000 C 
ENDBRANCH   6  11
BRANCH   1  18
ATOM     17  O   UNL     1      -0.069   9.993  23.740  0.00  0.00    +0.000 OA
ATOM     18  C   UNL     1      -0.286  10.401  22.604  0.00  0.00    +0.000 C 
ATOM     19  N   UNL     1      -1.138  11.448  22.330  0.00  0.00    +0.000 N 
ATOM     20  H   UNL     1      -1.307  11.696  21.367  0.00  0.00    +0.000 HD
BRANCH  19  21
ATOM     21  C   UNL     1      -1.839  12.211  23.347  0.00  0.00    +0.000 C 
BRANCH  21  22
ATOM     22  C   UNL     1      -3.340  12.334  23.019  0.00  0.00    +0.000 C 
ATOM     23  C   UNL     1      -3.599  13.107  21.714  0.00  0.00    +0.000 C 
ATOM     24  C   UNL     1      -3.361  14.607  21.876  0.00  0.00    +0.000 C 
ATOM     25  N   UNL     1      -4.181  15.162  22.955  0.00  0.00    +0.000 NA
ATOM     26  C   UNL     1      -3.885  14.513  24.232  0.00  0.00    +0.000 C 
ATOM     27  C   UNL     1      -4.113  13.002  24.169  0.00  0.00    +0.000 C 
ATOM     28  H   UNL     1      -5.165  15.020  22.727  0.00  0.00    +0.000 HD
ENDBRANCH  21  22
ENDBRANCH  19  21
ENDBRANCH   1  18
TORSDOF 4
ENDMDL
MODEL 7
REMARK VINA RESULT:      -7.9      0.814      1.590
REMARK  Name = 
REMARK  4 active torsions:
REMARK  status: ('A' for Active; 'I' for Inactive)
REMARK    1  A    between atoms: C_2  and  C_11
REMARK    2  A    between atoms: N_3  and  C_4
REMARK    3  A    between atoms: C_4  and  C_5
REMARK    4  A    between atoms: C_16  and  C_17
REMARK                            x       y       z     vdW  Elec       q    Type
REMARK                         _______ _______ _______ _____ _____    ______ ____
ROOT
ATOM      1  C   UNL     1       1.460   8.933  19.456  0.00  0.00    +0.000 A 
ATOM      2  C   UNL     1       1.201   8.339  20.677  0.00  0.00    +0.000 A 
ATOM      3  C   UNL     1       0.453   9.241  21.474  0.00  0.00    +0.000 A 
ATOM      4  C   UNL     1      -0.070   9.168  22.775  0.00  0.00    +0.000 A 
ATOM      5  C   UNL     1      -0.778  10.257  23.285  0.00  0.00    +0.000 A 
ATOM      6  C   UNL     1      -0.975  11.414  22.523  0.00  0.00    +0.000 A 
ATOM      7  C   UNL     1      -0.464  11.502  21.216  0.00  0.00    +0.000 A 
ATOM      8  C   UNL     1       0.253  10.396  20.721  0.00  0.00    +0.000 A 
ATOM      9  N   UNL     1       0.876  10.187  19.508  0.00  0.00    +0.000 N 
ATOM     10  H   UNL     1       0.914  10.851  18.745  0.00  0.00    +0.000 HD
ENDROOT
BRANCH   6  11
ATOM     11  C   UNL     1      -1.745  12.503  23.136  0.00  0.00    +0.000 C 
ATOM     12  C   UNL     1      -1.227  13.739  23.245  0.00  0.00    +0.000 C 
ATOM     13  C   UNL     1      -2.050  14.917  23.680  0.00  0.00    +0.000 C 
ATOM     14  O   UNL     1      -3.455  14.647  23.631  0.00  0.00    +0.000 OA
ATOM     15  C   UNL     1      -3.781  13.412  24.271  0.00  0.00    +0.000 C 
ATOM     16  C   UNL     1      -3.181  12.236  23.496  0.00  0.00    +0.000 C 
ENDBRANCH   6  11
BRANCH   1  18
ATOM     17  O   UNL     1       2.195   9.064  17.231  0.00  0.00    +0.000 OA
ATOM     18  C   UNL     1       2.192   8.458  18.297  0.00  0.00    +0.000 C 
ATOM     19  N   UNL     1       2.883   7.283  18.497  0.00  0.00    +0.000 N 
ATOM     20  H   UNL     1       2.792   6.813  19.385  0.00  0.00    +0.000 HD
BRANCH  19  21
ATOM     21  C   UNL     1       3.723   6.655  17.494  0.00  0.00    +0.000 C 
BRANCH  21  22
ATOM     22  C   UNL     1       4.895   5.894  18.143  0.00  0.00    +0.000 C 
ATOM     23  C   UNL     1       5.669   5.027  17.134  0.00  0.00    +0.000 C 
ATOM     24  C   UNL     1       4.888   3.777  16.732  0.00  0.00    +0.000 C 
ATOM     25  N   UNL     1       4.526   2.976  17.903  0.00  0.00    +0.000 NA
ATOM     26  C   UNL     1       3.705   3.746  18.837  0.00  0.00    +0.000 C 
ATOM     27  C   UNL     1       4.417   5.014  19.310  0.00  0.00    +0.000 C 
ATOM     28  H   UNL     1       5.380   2.678  18.375  0.00  0.00    +0.000 HD
ENDBRANCH  21  22
ENDBRANCH  19  21
ENDBRANCH   1  18
TORSDOF 4
ENDMDL
MODEL 8
REMARK VINA RESULT:      -7.9      1.169      1.571
REMARK  Name = 
REMARK  4 active torsions:
REMARK  status: ('A' for Active; 'I' for Inactive)
REMARK    1  A    between atoms: C_2  and  C_11
REMARK    2  A    between atoms: N_3  and  C_4
REMARK    3  A    between atoms: C_4  and  C_5
REMARK    4  A    between atoms: C_16  and  C_17
REMARK                            x       y       z     vdW  Elec       q    Type
REMARK                         _______ _______ _______ _____ _____    ______ ____
ROOT
ATOM      1  C   UNL     1       1.411   8.795  19.587  0.00  0.00    +0.000 A 
ATOM      2  C   UNL     1       1.185   8.308  20.861  0.00  0.00    +0.000 A 
ATOM      3  C   UNL     1       0.385   9.239  21.570  0.00  0.00    +0.000 A 
ATOM      4  C   UNL     1      -0.134   9.264  22.874  0.00  0.00    +0.000 A 
ATOM      5  C   UNL     1      -0.904  10.354  23.280  0.00  0.00    +0.000 A 
ATOM      6  C   UNL     1      -1.166  11.419  22.410  0.00  0.00    +0.000 A 
ATOM      7  C   UNL     1      -0.659  11.409  21.098  0.00  0.00    +0.000 A 
ATOM      8  C   UNL     1       0.120  10.303  20.710  0.00  0.00    +0.000 A 
ATOM      9  N   UNL     1       0.756  10.013  19.520  0.00  0.00    +0.000 N 
ATOM     10  H   UNL     1       0.757  10.601  18.696  0.00  0.00    +0.000 HD
ENDROOT
BRANCH   6  11
ATOM     11  C   UNL     1      -1.998  12.516  22.918  0.00  0.00    +0.000 C 
ATOM     12  C   UNL     1      -3.324  12.361  23.078  0.00  0.00    +0.000 C 
ATOM     13  C   UNL     1      -4.172  13.383  23.778  0.00  0.00    +0.000 C 
ATOM     14  O   UNL     1      -3.389  14.323  24.521  0.00  0.00    +0.000 OA
ATOM     15  C   UNL     1      -2.319  14.857  23.739  0.00  0.00    +0.000 C 
ATOM     16  C   UNL     1      -1.305  13.761  23.402  0.00  0.00    +0.000 C 
ENDBRANCH   6  11
BRANCH   1  18
ATOM     17  O   UNL     1       2.239   8.820  17.391  0.00  0.00    +0.000 OA
ATOM     18  C   UNL     1       2.170   8.253  18.476  0.00  0.00    +0.000 C 
ATOM     19  N   UNL     1       2.808   7.062  18.745  0.00  0.00    +0.000 N 
ATOM     20  H   UNL     1       2.665   6.628  19.644  0.00  0.00    +0.000 HD
BRANCH  19  21
ATOM     21  C   UNL     1       3.664   6.368  17.800  0.00  0.00    +0.000 C 
BRANCH  21  22
ATOM     22  C   UNL     1       3.163   4.934  17.540  0.00  0.00    +0.000 C 
ATOM     23  C   UNL     1       2.114   4.479  18.569  0.00  0.00    +0.000 C 
ATOM     24  C   UNL     1       2.737   4.171  19.929  0.00  0.00    +0.000 C 
ATOM     25  N   UNL     1       3.794   3.163  19.814  0.00  0.00    +0.000 NA
ATOM     26  C   UNL     1       4.857   3.612  18.917  0.00  0.00    +0.000 C 
ATOM     27  C   UNL     1       4.326   3.928  17.518  0.00  0.00    +0.000 C 
ATOM     28  H   UNL     1       3.388   2.301  19.450  0.00  0.00    +0.000 HD
ENDBRANCH  21  22
ENDBRANCH  19  21
ENDBRANCH   1  18
TORSDOF 4
ENDMDL
MODEL 9
REMARK VINA RESULT:      -7.8      2.677     10.128
REMARK  Name = 
REMARK  4 active torsions:
REMARK  status: ('A' for Active; 'I' for Inactive)
REMARK    1  A    between atoms: C_2  and  C_11
REMARK    2  A    between atoms: N_3  and  C_4
REMARK    3  A    between atoms: C_4  and  C_5
REMARK    4  A    between atoms: C_16  and  C_17
REMARK                            x       y       z     vdW  Elec       q    Type
REMARK                         _______ _______ _______ _____ _____    ______ ____
ROOT
ATOM      1  C   UNL     1       0.287   9.812  21.459  0.00  0.00    +0.000 A 
ATOM      2  C   UNL     1       0.387  10.323  20.178  0.00  0.00    +0.000 A 
ATOM      3  C   UNL     1       1.150   9.427  19.388  0.00  0.00    +0.000 A 
ATOM      4  C   UNL     1       1.562   9.441  18.046  0.00  0.00    +0.000 A 
ATOM      5  C   UNL     1       2.328   8.381  17.559  0.00  0.00    +0.000 A 
ATOM      6  C   UNL     1       2.689   7.310  18.383  0.00  0.00    +0.000 A 
ATOM      7  C   UNL     1       2.281   7.276  19.729  0.00  0.00    +0.000 A 
ATOM      8  C   UNL     1       1.514   8.357  20.203  0.00  0.00    +0.000 A 
ATOM      9  N   UNL     1       0.984   8.616  21.451  0.00  0.00    +0.000 N 
ATOM     10  H   UNL     1       1.085   8.024  22.266  0.00  0.00    +0.000 HD
ENDROOT
BRANCH   6  11
ATOM     11  C   UNL     1       3.483   6.233  17.780  0.00  0.00    +0.000 C 
ATOM     12  C   UNL     1       4.577   6.508  17.048  0.00  0.00    +0.000 C 
ATOM     13  C   UNL     1       5.522   5.437  16.585  0.00  0.00    +0.000 C 
ATOM     14  O   UNL     1       5.320   4.198  17.274  0.00  0.00    +0.000 OA
ATOM     15  C   UNL     1       3.941   3.822  17.295  0.00  0.00    +0.000 C 
ATOM     16  C   UNL     1       3.130   4.813  18.133  0.00  0.00    +0.000 C 
ENDBRANCH   6  11
BRANCH   1  18
ATOM     17  O   UNL     1      -0.041   9.976  23.777  0.00  0.00    +0.000 OA
ATOM     18  C   UNL     1      -0.362  10.330  22.649  0.00  0.00    +0.000 C 
ATOM     19  N   UNL     1      -1.355  11.253  22.403  0.00  0.00    +0.000 N 
ATOM     20  H   UNL     1      -1.600  11.458  21.447  0.00  0.00    +0.000 HD
BRANCH  19  21
ATOM     21  C   UNL     1      -2.099  11.940  23.443  0.00  0.00    +0.000 C 
BRANCH  21  22
ATOM     22  C   UNL     1      -2.546  13.340  22.980  0.00  0.00    +0.000 C 
ATOM     23  C   UNL     1      -3.571  13.979  23.932  0.00  0.00    +0.000 C 
ATOM     24  C   UNL     1      -4.952  13.336  23.806  0.00  0.00    +0.000 C 
ATOM     25  N   UNL     1      -5.444  13.399  22.428  0.00  0.00    +0.000 NA
ATOM     26  C   UNL     1      -4.536  12.711  21.511  0.00  0.00    +0.000 C 
ATOM     27  C   UNL     1      -3.126  13.302  21.556  0.00  0.00    +0.000 C 
ATOM     28  H   UNL     1      -5.524  14.377  22.151  0.00  0.00    +0.000 HD
ENDBRANCH  21  22
ENDBRANCH  19  21
ENDBRANCH   1  18
TORSDOF 4
ENDMDL
