MODEL 1
REMARK VINA RESULT:      -9.0      0.000      0.000
REMARK  Name = 
REMARK  7 active torsions:
REMARK  status: ('A' for Active; 'I' for Inactive)
REMARK    1  A    between atoms: C_1  and  C_2
REMARK    2  A    between atoms: C_2  and  O_3
REMARK    3  A    between atoms: O_3  and  C_4
REMARK    4  A    between atoms: C_4  and  C_6
REMARK    5  A    between atoms: C_10  and  C_11
REMARK    6  A    between atoms: C_15  and  N_16
REMARK    7  A    between atoms: N_19  and  C_20
REMARK                            x       y       z     vdW  Elec       q    Type
REMARK                         _______ _______ _______ _____ _____    ______ ____
ROOT
ATOM      1  C   UNL     1       2.223   7.651  19.032  0.00  0.00    +0.000 A 
ATOM      2  C   UNL     1       1.951   8.280  17.815  0.00  0.00    +0.000 A 
ATOM      3  C   UNL     1       1.175   9.435  17.789  0.00  0.00    +0.000 A 
ATOM      4  C   UNL     1       0.646   9.944  18.979  0.00  0.00    +0.000 A 
ATOM      5  C   UNL     1       0.883   9.308  20.204  0.00  0.00    +0.000 A 
ATOM      6  C   UNL     1       1.695   8.173  20.225  0.00  0.00    +0.000 A 
ENDROOT
BRANCH   1  11
ATOM      7  C   UNL     1       6.160   5.496  17.583  0.00  0.00    +0.000 A 
ATOM      8  C   UNL     1       5.942   6.802  17.111  0.00  0.00    +0.000 A 
ATOM      9  N   UNL     1       4.821   7.349  17.571  0.00  0.00    +0.000 NA
ATOM     10  N   UNL     1       4.272   6.389  18.361  0.00  0.00    +0.000 N 
ATOM     11  C   UNL     1       3.064   6.448  19.075  0.00  0.00    +0.000 A 
ATOM     12  C   UNL     1       2.679   5.395  19.821  0.00  0.00    +0.000 A 
ATOM     13  C   UNL     1       3.604   4.236  19.817  0.00  0.00    +0.000 A 
ATOM     14  N   UNL     1       4.721   4.147  19.164  0.00  0.00    +0.000 NA
ATOM     15  C   UNL     1       5.076   5.239  18.409  0.00  0.00    +0.000 A 
BRANCH   7  16
ATOM     16  C   UNL     1       7.251   4.630  17.205  0.00  0.00    +0.000 C 
ATOM     17  O   UNL     1       8.061   4.211  18.023  0.00  0.00    +0.000 OA
BRANCH  16  18
ATOM     18  O   UNL     1       7.348   4.440  15.861  0.00  0.00    +0.000 OA
BRANCH  18  20
ATOM     19  C   UNL     1       6.294   3.999  13.768  0.00  0.00    +0.000 C 
ATOM     20  C   UNL     1       6.258   3.731  15.264  0.00  0.00    +0.000 C 
ENDBRANCH  18  20
ENDBRANCH  16  18
ENDBRANCH   7  16
ENDBRANCH   1  11
BRANCH   5  21
ATOM     21  N   UNL     1       0.356   9.785  21.424  0.00  0.00    +0.000 N 
ATOM     22  C   UNL     1      -0.552  10.821  21.532  0.00  0.00    +0.000 C 
ATOM     23  O   UNL     1      -1.132  11.344  20.587  0.00  0.00    +0.000 OA
ATOM     24  N   UNL     1      -0.713  11.218  22.853  0.00  0.00    +0.000 N 
ATOM     25  H   UNL     1       0.425   9.177  22.226  0.00  0.00    +0.000 HD
ATOM     26  H   UNL     1       0.132  11.153  23.404  0.00  0.00    +0.000 HD
BRANCH  24  27
ATOM     27  C   UNL     1      -1.617  12.249  23.195  0.00  0.00    +0.000 A 
ATOM     28  C   UNL     1      -1.207  13.588  23.250  0.00  0.00    +0.000 A 
ATOM     29  C   UNL     1      -2.096  14.585  23.655  0.00  0.00    +0.000 A 
ATOM     30  C   UNL     1      -3.398  14.246  24.016  0.00  0.00    +0.000 A 
ATOM     31  C   UNL     1      -3.809  12.916  23.945  0.00  0.00    +0.000 A 
ATOM     32 CL   UNL     1      -5.403  12.493  24.439  0.00  0.00    +0.000 Cl
ATOM     33  C   UNL     1      -2.935  11.917  23.509  0.00  0.00    +0.000 A 
ENDBRANCH  24  27
ENDBRANCH   5  21
TORSDOF 6
ENDMDL
MODEL 2
REMARK VINA RESULT:      -9.0      3.218      4.285
REMARK  Name = 
REMARK  7 active torsions:
REMARK  status: ('A' for Active; 'I' for Inactive)
REMARK    1  A    between atoms: C_1  and  C_2
REMARK    2  A    between atoms: C_2  and  O_3
REMARK    3  A    between atoms: O_3  and  C_4
REMARK    4  A    between atoms: C_4  and  C_6
REMARK    5  A    between atoms: C_10  and  C_11
REMARK    6  A    between atoms: C_15  and  N_16
REMARK    7  A    between atoms: N_19  and  C_20
REMARK                            x       y       z     vdW  Elec       q    Type
REMARK                         _______ _______ _______ _____ _____    ______ ____
ROOT
ATOM      1  C   UNL     1       4.109   4.778  19.526  0.00  0.00    +0.000 A 
ATOM      2  C   UNL     1       3.699   3.501  19.915  0.00  0.00    +0.000 A 
ATOM      3  C   UNL     1       2.514   3.340  20.630  0.00  0.00    +0.000 A 
ATOM      4  C   UNL     1       1.757   4.461  20.981  0.00  0.00    +0.000 A 
ATOM      5  C   UNL     1       2.170   5.751  20.626  0.00  0.00    +0.000 A 
ATOM      6  C   UNL     1       3.338   5.899  19.876  0.00  0.00    +0.000 A 
ENDROOT
BRANCH   1  11
ATOM      7  C   UNL     1       6.198   4.659  15.299  0.00  0.00    +0.000 A 
ATOM      8  C   UNL     1       4.827   4.347  15.338  0.00  0.00    +0.000 A 
ATOM      9  N   UNL     1       4.305   4.414  16.559  0.00  0.00    +0.000 NA
ATOM     10  N   UNL     1       5.347   4.769  17.356  0.00  0.00    +0.000 N 
ATOM     11  C   UNL     1       5.341   4.957  18.749  0.00  0.00    +0.000 A 
ATOM     12  C   UNL     1       6.475   5.323  19.376  0.00  0.00    +0.000 A 
ATOM     13  C   UNL     1       7.661   5.499  18.503  0.00  0.00    +0.000 A 
ATOM     14  N   UNL     1       7.701   5.328  17.218  0.00  0.00    +0.000 NA
ATOM     15  C   UNL     1       6.526   4.948  16.616  0.00  0.00    +0.000 A 
BRANCH   7  16
ATOM     16  C   UNL     1       7.045   4.605  14.133  0.00  0.00    +0.000 C 
ATOM     17  O   UNL     1       7.774   5.538  13.816  0.00  0.00    +0.000 OA
BRANCH  16  18
ATOM     18  O   UNL     1       6.856   3.488  13.379  0.00  0.00    +0.000 OA
BRANCH  18  20
ATOM     19  C   UNL     1       5.089   3.208  11.802  0.00  0.00    +0.000 C 
ATOM     20  C   UNL     1       6.501   3.727  12.013  0.00  0.00    +0.000 C 
ENDBRANCH  18  20
ENDBRANCH  16  18
ENDBRANCH   7  16
ENDBRANCH   1  11
BRANCH   5  21
ATOM     21  N   UNL     1       1.438   6.907  20.974  0.00  0.00    +0.000 N 
ATOM     22  C   UNL     1       1.355   8.045  20.193  0.00  0.00    +0.000 C 
ATOM     23  O   UNL     1       1.767   8.135  19.043  0.00  0.00    +0.000 OA
ATOM     24  N   UNL     1       0.762   9.092  20.887  0.00  0.00    +0.000 N 
ATOM     25  H   UNL     1       0.725   6.807  21.680  0.00  0.00    +0.000 HD
ATOM     26  H   UNL     1       0.981   9.103  21.874  0.00  0.00    +0.000 HD
BRANCH  24  27
ATOM     27  C   UNL     1       0.555  10.346  20.268  0.00  0.00    +0.000 A 
ATOM     28  C   UNL     1       1.277  11.480  20.660  0.00  0.00    +0.000 A 
ATOM     29  C   UNL     1       1.013  12.723  20.085  0.00  0.00    +0.000 A 
ATOM     30  C   UNL     1       0.015  12.840  19.119  0.00  0.00    +0.000 A 
ATOM     31  C   UNL     1      -0.691  11.707  18.718  0.00  0.00    +0.000 A 
ATOM     32 CL   UNL     1      -1.956  11.863  17.560  0.00  0.00    +0.000 Cl
ATOM     33  C   UNL     1      -0.409  10.454  19.265  0.00  0.00    +0.000 A 
ENDBRANCH  24  27
ENDBRANCH   5  21
TORSDOF 6
ENDMDL
MODEL 3
REMARK VINA RESULT:      -8.9      3.376      4.422
REMARK  Name = 
REMARK  7 active torsions:
REMARK  status: ('A' for Active; 'I' for Inactive)
REMARK    1  A    between atoms: C_1  and  C_2
REMARK    2  A    between atoms: C_2  and  O_3
REMARK    3  A    between atoms: O_3  and  C_4
REMARK    4  A    between atoms: C_4  and  C_6
REMARK    5  A    between atoms: C_10  and  C_11
REMARK    6  A    between atoms: C_15  and  N_16
REMARK    7  A    between atoms: N_19  and  C_20
REMARK                            x       y       z     vdW  Elec       q    Type
REMARK                         _______ _______ _______ _____ _____    ______ ____
ROOT
ATOM      1  C   UNL     1       4.063   4.805  19.509  0.00  0.00    +0.000 A 
ATOM      2  C   UNL     1       3.617   3.527  19.853  0.00  0.00    +0.000 A 
ATOM      3  C   UNL     1       2.418   3.374  20.546  0.00  0.00    +0.000 A 
ATOM      4  C   UNL     1       1.683   4.502  20.920  0.00  0.00    +0.000 A 
ATOM      5  C   UNL     1       2.133   5.792  20.609  0.00  0.00    +0.000 A 
ATOM      6  C   UNL     1       3.314   5.934  19.881  0.00  0.00    +0.000 A 
ENDROOT
BRANCH   1  11
ATOM      7  C   UNL     1       6.221   4.713  15.316  0.00  0.00    +0.000 A 
ATOM      8  C   UNL     1       4.846   4.422  15.328  0.00  0.00    +0.000 A 
ATOM      9  N   UNL     1       4.304   4.479  16.541  0.00  0.00    +0.000 NA
ATOM     10  N   UNL     1       5.338   4.808  17.360  0.00  0.00    +0.000 N 
ATOM     11  C   UNL     1       5.311   4.977  18.754  0.00  0.00    +0.000 A 
ATOM     12  C   UNL     1       6.439   5.317  19.406  0.00  0.00    +0.000 A 
ATOM     13  C   UNL     1       7.642   5.488  18.555  0.00  0.00    +0.000 A 
ATOM     14  N   UNL     1       7.702   5.333  17.269  0.00  0.00    +0.000 NA
ATOM     15  C   UNL     1       6.532   4.980  16.642  0.00  0.00    +0.000 A 
BRANCH   7  16
ATOM     16  C   UNL     1       7.087   4.664  14.163  0.00  0.00    +0.000 C 
ATOM     17  O   UNL     1       7.802   5.608  13.846  0.00  0.00    +0.000 OA
BRANCH  16  18
ATOM     18  O   UNL     1       6.933   3.534  13.420  0.00  0.00    +0.000 OA
BRANCH  18  20
ATOM     19  C   UNL     1       5.157   3.252  11.853  0.00  0.00    +0.000 C 
ATOM     20  C   UNL     1       6.579   3.750  12.050  0.00  0.00    +0.000 C 
ENDBRANCH  18  20
ENDBRANCH  16  18
ENDBRANCH   7  16
ENDBRANCH   1  11
BRANCH   5  21
ATOM     21  N   UNL     1       1.423   6.955  20.981  0.00  0.00    +0.000 N 
ATOM     22  C   UNL     1       1.314   8.088  20.198  0.00  0.00    +0.000 C 
ATOM     23  O   UNL     1       1.677   8.169  19.030  0.00  0.00    +0.000 OA
ATOM     24  N   UNL     1       0.758   9.144  20.910  0.00  0.00    +0.000 N 
ATOM     25  H   UNL     1       0.740   6.863  21.717  0.00  0.00    +0.000 HD
ATOM     26  H   UNL     1       1.019   9.159  21.886  0.00  0.00    +0.000 HD
BRANCH  24  27
ATOM     27  C   UNL     1       0.532  10.395  20.292  0.00  0.00    +0.000 A 
ATOM     28  C   UNL     1      -0.565  10.603  19.447  0.00  0.00    +0.000 A 
ATOM     29  C   UNL     1      -0.735  11.824  18.793  0.00  0.00    +0.000 A 
ATOM     30  C   UNL     1       0.198  12.842  18.976  0.00  0.00    +0.000 A 
ATOM     31  C   UNL     1       1.280  12.640  19.831  0.00  0.00    +0.000 A 
ATOM     32 CL   UNL     1       2.459  13.881  20.016  0.00  0.00    +0.000 Cl
ATOM     33  C   UNL     1       1.439  11.432  20.514  0.00  0.00    +0.000 A 
ENDBRANCH  24  27
ENDBRANCH   5  21
TORSDOF 6
ENDMDL
MODEL 4
REMARK VINA RESULT:      -8.9      3.632      4.135
REMARK  Name = 
REMARK  7 active torsions:
REMARK  status: ('A' for Active; 'I' for Inactive)
REMARK    1  A    between atoms: C_1  and  C_2
REMARK    2  A    between atoms: C_2  and  O_3
REMARK    3  A    between atoms: O_3  and  C_4
REMARK    4  A    between atoms: C_4  and  C_6
REMARK    5  A    between atoms: C_10  and  C_11
REMARK    6  A    between atoms: C_15  and  N_16
REMARK    7  A    between atoms: N_19  and  C_20
REMARK                            x       y       z     vdW  Elec       q    Type
REMARK                         _______ _______ _______ _____ _____    ______ ____
ROOT
ATOM      1  C   UNL     1       2.187   7.055  18.939  0.00  0.00    +0.000 A 
ATOM      2  C   UNL     1       1.831   6.878  20.279  0.00  0.00    +0.000 A 
ATOM      3  C   UNL     1       1.211   7.913  20.974  0.00  0.00    +0.000 A 
ATOM      4  C   UNL     1       0.976   9.135  20.338  0.00  0.00    +0.000 A 
ATOM      5  C   UNL     1       1.355   9.339  19.005  0.00  0.00    +0.000 A 
ATOM      6  C   UNL     1       1.940   8.283  18.304  0.00  0.00    +0.000 A 
ENDROOT
BRANCH   1  11
ATOM      7  C   UNL     1       5.910   5.555  16.462  0.00  0.00    +0.000 A 
ATOM      8  C   UNL     1       5.968   6.868  16.963  0.00  0.00    +0.000 A 
ATOM      9  N   UNL     1       4.891   7.216  17.660  0.00  0.00    +0.000 NA
ATOM     10  N   UNL     1       4.091   6.118  17.620  0.00  0.00    +0.000 N 
ATOM     11  C   UNL     1       2.815   5.961  18.188  0.00  0.00    +0.000 A 
ATOM     12  C   UNL     1       2.167   4.789  18.056  0.00  0.00    +0.000 A 
ATOM     13  C   UNL     1       2.892   3.739  17.299  0.00  0.00    +0.000 A 
ATOM     14  N   UNL     1       4.065   3.853  16.758  0.00  0.00    +0.000 NA
ATOM     15  C   UNL     1       4.690   5.067  16.908  0.00  0.00    +0.000 A 
BRANCH   7  16
ATOM     16  C   UNL     1       6.896   4.927  15.618  0.00  0.00    +0.000 C 
ATOM     17  O   UNL     1       7.908   4.408  16.075  0.00  0.00    +0.000 OA
BRANCH  16  18
ATOM     18  O   UNL     1       6.647   5.082  14.289  0.00  0.00    +0.000 OA
BRANCH  18  20
ATOM     19  C   UNL     1       6.663   3.709  12.339  0.00  0.00    +0.000 C 
ATOM     20  C   UNL     1       5.971   3.986  13.663  0.00  0.00    +0.000 C 
ENDBRANCH  18  20
ENDBRANCH  16  18
ENDBRANCH   7  16
ENDBRANCH   1  11
BRANCH   5  21
ATOM     21  N   UNL     1       1.145  10.563  18.332  0.00  0.00    +0.000 N 
ATOM     22  C   UNL     1       1.307  11.809  18.907  0.00  0.00    +0.000 C 
ATOM     23  O   UNL     1       1.805  12.012  20.009  0.00  0.00    +0.000 OA
ATOM     24  N   UNL     1       0.813  12.814  18.085  0.00  0.00    +0.000 N 
ATOM     25  H   UNL     1       1.145  10.542  17.324  0.00  0.00    +0.000 HD
ATOM     26  H   UNL     1      -0.004  12.543  17.556  0.00  0.00    +0.000 HD
BRANCH  24  27
ATOM     27  C   UNL     1       0.900  14.172  18.468  0.00  0.00    +0.000 A 
ATOM     28  C   UNL     1      -0.241  14.903  18.824  0.00  0.00    +0.000 A 
ATOM     29  C   UNL     1      -0.145  16.260  19.135  0.00  0.00    +0.000 A 
ATOM     30  C   UNL     1       1.093  16.895  19.081  0.00  0.00    +0.000 A 
ATOM     31  C   UNL     1       2.230  16.163  18.744  0.00  0.00    +0.000 A 
ATOM     32 CL   UNL     1       3.751  16.962  18.630  0.00  0.00    +0.000 Cl
ATOM     33  C   UNL     1       2.147  14.798  18.464  0.00  0.00    +0.000 A 
ENDBRANCH  24  27
ENDBRANCH   5  21
TORSDOF 6
ENDMDL
MODEL 5
REMARK VINA RESULT:      -8.9      3.186      3.654
REMARK  Name = 
REMARK  7 active torsions:
REMARK  status: ('A' for Active; 'I' for Inactive)
REMARK    1  A    between atoms: C_1  and  C_2
REMARK    2  A    between atoms: C_2  and  O_3
REMARK    3  A    between atoms: O_3  and  C_4
REMARK    4  A    between atoms: C_4  and  C_6
REMARK    5  A    between atoms: C_10  and  C_11
REMARK    6  A    between atoms: C_15  and  N_16
REMARK    7  A    between atoms: N_19  and  C_20
REMARK                            x       y       z     vdW  Elec       q    Type
REMARK                         _______ _______ _______ _____ _____    ______ ____
ROOT
ATOM      1  C   UNL     1       2.192   7.125  18.945  0.00  0.00    +0.000 A 
ATOM      2  C   UNL     1       1.829   6.955  20.284  0.00  0.00    +0.000 A 
ATOM      3  C   UNL     1       1.228   8.003  20.977  0.00  0.00    +0.000 A 
ATOM      4  C   UNL     1       1.019   9.229  20.339  0.00  0.00    +0.000 A 
ATOM      5  C   UNL     1       1.405   9.424  19.007  0.00  0.00    +0.000 A 
ATOM      6  C   UNL     1       1.971   8.357  18.309  0.00  0.00    +0.000 A 
ENDROOT
BRANCH   1  11
ATOM      7  C   UNL     1       5.899   5.545  16.493  0.00  0.00    +0.000 A 
ATOM      8  C   UNL     1       5.983   6.855  16.997  0.00  0.00    +0.000 A 
ATOM      9  N   UNL     1       4.909   7.226  17.687  0.00  0.00    +0.000 NA
ATOM     10  N   UNL     1       4.084   6.147  17.639  0.00  0.00    +0.000 N 
ATOM     11  C   UNL     1       2.801   6.019  18.196  0.00  0.00    +0.000 A 
ATOM     12  C   UNL     1       2.127   4.861  18.057  0.00  0.00    +0.000 A 
ATOM     13  C   UNL     1       2.833   3.797  17.303  0.00  0.00    +0.000 A 
ATOM     14  N   UNL     1       4.012   3.885  16.771  0.00  0.00    +0.000 NA
ATOM     15  C   UNL     1       4.665   5.084  16.928  0.00  0.00    +0.000 A 
BRANCH   7  16
ATOM     16  C   UNL     1       6.876   4.896  15.654  0.00  0.00    +0.000 C 
ATOM     17  O   UNL     1       7.906   4.412  16.111  0.00  0.00    +0.000 OA
BRANCH  16  18
ATOM     18  O   UNL     1       6.596   4.990  14.326  0.00  0.00    +0.000 OA
BRANCH  18  20
ATOM     19  C   UNL     1       6.567   3.732  12.300  0.00  0.00    +0.000 C 
ATOM     20  C   UNL     1       6.058   3.805  13.730  0.00  0.00    +0.000 C 
ENDBRANCH  18  20
ENDBRANCH  16  18
ENDBRANCH   7  16
ENDBRANCH   1  11
BRANCH   5  21
ATOM     21  N   UNL     1       1.221  10.652  18.334  0.00  0.00    +0.000 N 
ATOM     22  C   UNL     1       1.309  11.894  18.934  0.00  0.00    +0.000 C 
ATOM     23  O   UNL     1       1.712  12.094  20.074  0.00  0.00    +0.000 OA
ATOM     24  N   UNL     1       0.858  12.898  18.086  0.00  0.00    +0.000 N 
ATOM     25  H   UNL     1       1.301  10.644  17.329  0.00  0.00    +0.000 HD
ATOM     26  H   UNL     1       0.092  12.616  17.490  0.00  0.00    +0.000 HD
BRANCH  24  27
ATOM     27  C   UNL     1       0.883  14.253  18.489  0.00  0.00    +0.000 A 
ATOM     28  C   UNL     1       2.076  14.986  18.504  0.00  0.00    +0.000 A 
ATOM     29  C   UNL     1       2.094  16.302  18.969  0.00  0.00    +0.000 A 
ATOM     30  C   UNL     1       0.917  16.888  19.430  0.00  0.00    +0.000 A 
ATOM     31  C   UNL     1      -0.273  16.162  19.398  0.00  0.00    +0.000 A 
ATOM     32 CL   UNL     1      -1.715  16.872  20.015  0.00  0.00    +0.000 Cl
ATOM     33  C   UNL     1      -0.304  14.857  18.905  0.00  0.00    +0.000 A 
ENDBRANCH  24  27
ENDBRANCH   5  21
TORSDOF 6
ENDMDL
MODEL 6
REMARK VINA RESULT:      -8.7      1.062      1.370
REMARK  Name = 
REMARK  7 active torsions:
REMARK  status: ('A' for Active; 'I' for Inactive)
REMARK    1  A    between atoms: C_1  and  C_2
REMARK    2  A    between atoms: C_2  and  O_3
REMARK    3  A    between atoms: O_3  and  C_4
REMARK    4  A    between atoms: C_4  and  C_6
REMARK    5  A    between atoms: C_10  and  C_11
REMARK    6  A    between atoms: C_15  and  N_16
REMARK    7  A    between atoms: N_19  and  C_20
REMARK                            x       y       z     vdW  Elec       q    Type
REMARK                         _______ _______ _______ _____ _____    ______ ____
ROOT
ATOM      1  C   UNL     1       2.188   7.734  18.949  0.00  0.00    +0.000 A 
ATOM      2  C   UNL     1       1.983   8.442  17.763  0.00  0.00    +0.000 A 
ATOM      3  C   UNL     1       1.260   9.632  17.781  0.00  0.00    +0.000 A 
ATOM      4  C   UNL     1       0.717  10.097  18.982  0.00  0.00    +0.000 A 
ATOM      5  C   UNL     1       0.887   9.383  20.175  0.00  0.00    +0.000 A 
ATOM      6  C   UNL     1       1.647   8.212  20.154  0.00  0.00    +0.000 A 
ENDROOT
BRANCH   1  11
ATOM      7  C   UNL     1       5.867   5.357  17.199  0.00  0.00    +0.000 A 
ATOM      8  C   UNL     1       5.665   6.660  16.713  0.00  0.00    +0.000 A 
ATOM      9  N   UNL     1       4.619   7.272  17.261  0.00  0.00    +0.000 NA
ATOM     10  N   UNL     1       4.104   6.358  18.125  0.00  0.00    +0.000 N 
ATOM     11  C   UNL     1       2.973   6.493  18.947  0.00  0.00    +0.000 A 
ATOM     12  C   UNL     1       2.612   5.479  19.755  0.00  0.00    +0.000 A 
ATOM     13  C   UNL     1       3.479   4.276  19.698  0.00  0.00    +0.000 A 
ATOM     14  N   UNL     1       4.524   4.117  18.946  0.00  0.00    +0.000 NA
ATOM     15  C   UNL     1       4.855   5.172  18.131  0.00  0.00    +0.000 A 
BRANCH   7  16
ATOM     16  C   UNL     1       6.876   4.431  16.746  0.00  0.00    +0.000 C 
ATOM     17  O   UNL     1       7.980   4.363  17.273  0.00  0.00    +0.000 OA
BRANCH  16  18
ATOM     18  O   UNL     1       6.519   3.751  15.622  0.00  0.00    +0.000 OA
BRANCH  18  20
ATOM     19  C   UNL     1       5.983   3.708  13.299  0.00  0.00    +0.000 C 
ATOM     20  C   UNL     1       6.734   4.450  14.392  0.00  0.00    +0.000 C 
ENDBRANCH  18  20
ENDBRANCH  16  18
ENDBRANCH   7  16
ENDBRANCH   1  11
BRANCH   5  21
ATOM     21  N   UNL     1       0.344   9.815  21.404  0.00  0.00    +0.000 N 
ATOM     22  C   UNL     1      -0.557  10.855  21.539  0.00  0.00    +0.000 C 
ATOM     23  O   UNL     1      -1.115  11.422  20.607  0.00  0.00    +0.000 OA
ATOM     24  N   UNL     1      -0.737  11.199  22.873  0.00  0.00    +0.000 N 
ATOM     25  H   UNL     1       0.393   9.174  22.181  0.00  0.00    +0.000 HD
ATOM     26  H   UNL     1       0.098  11.102  23.435  0.00  0.00    +0.000 HD
BRANCH  24  27
ATOM     27  C   UNL     1      -1.636  12.224  23.242  0.00  0.00    +0.000 A 
ATOM     28  C   UNL     1      -2.980  11.948  23.523  0.00  0.00    +0.000 A 
ATOM     29  C   UNL     1      -3.869  12.982  23.820  0.00  0.00    +0.000 A 
ATOM     30  C   UNL     1      -3.419  14.300  23.829  0.00  0.00    +0.000 A 
ATOM     31  C   UNL     1      -2.078  14.572  23.567  0.00  0.00    +0.000 A 
ATOM     32 CL   UNL     1      -1.535  16.205  23.529  0.00  0.00    +0.000 Cl
ATOM     33  C   UNL     1      -1.175  13.540  23.300  0.00  0.00    +0.000 A 
ENDBRANCH  24  27
ENDBRANCH   5  21
TORSDOF 6
ENDMDL
MODEL 7
REMARK VINA RESULT:      -8.7      4.634     11.425
REMARK  Name = 
REMARK  7 active torsions:
REMARK  status: ('A' for Active; 'I' for Inactive)
REMARK    1  A    between atoms: C_1  and  C_2
REMARK    2  A    between atoms: C_2  and  O_3
REMARK    3  A    between atoms: O_3  and  C_4
REMARK    4  A    between atoms: C_4  and  C_6
REMARK    5  A    between atoms: C_10  and  C_11
REMARK    6  A    between atoms: C_15  and  N_16
REMARK    7  A    between atoms: N_19  and  C_20
REMARK                            x       y       z     vdW  Elec       q    Type
REMARK                         _______ _______ _______ _____ _____    ______ ____
ROOT
ATOM      1  C   UNL     1      -1.202  11.765  18.509  0.00  0.00    +0.000 A 
ATOM      2  C   UNL     1      -0.494  12.953  18.311  0.00  0.00    +0.000 A 
ATOM      3  C   UNL     1       0.894  12.960  18.428  0.00  0.00    +0.000 A 
ATOM      4  C   UNL     1       1.569  11.785  18.772  0.00  0.00    +0.000 A 
ATOM      5  C   UNL     1       0.870  10.594  19.004  0.00  0.00    +0.000 A 
ATOM      6  C   UNL     1      -0.516  10.587  18.846  0.00  0.00    +0.000 A 
ENDROOT
BRANCH   1  11
ATOM      7  C   UNL     1      -5.415  12.511  20.494  0.00  0.00    +0.000 A 
ATOM      8  C   UNL     1      -4.285  12.770  21.288  0.00  0.00    +0.000 A 
ATOM      9  N   UNL     1      -3.135  12.550  20.659  0.00  0.00    +0.000 NA
ATOM     10  N   UNL     1      -3.500  12.127  19.420  0.00  0.00    +0.000 N 
ATOM     11  C   UNL     1      -2.662  11.739  18.361  0.00  0.00    +0.000 A 
ATOM     12  C   UNL     1      -3.204  11.355  17.190  0.00  0.00    +0.000 A 
ATOM     13  C   UNL     1      -4.686  11.383  17.131  0.00  0.00    +0.000 A 
ATOM     14  N   UNL     1      -5.487  11.728  18.091  0.00  0.00    +0.000 NA
ATOM     15  C   UNL     1      -4.896  12.107  19.272  0.00  0.00    +0.000 A 
BRANCH   7  16
ATOM     16  C   UNL     1      -6.790  12.594  20.924  0.00  0.00    +0.000 C 
ATOM     17  O   UNL     1      -7.632  11.778  20.567  0.00  0.00    +0.000 OA
BRANCH  16  18
ATOM     18  O   UNL     1      -7.063  13.715  21.645  0.00  0.00    +0.000 OA
BRANCH  18  20
ATOM     19  C   UNL     1      -7.070  12.882  23.879  0.00  0.00    +0.000 C 
ATOM     20  C   UNL     1      -7.909  13.517  22.783  0.00  0.00    +0.000 C 
ENDBRANCH  18  20
ENDBRANCH  16  18
ENDBRANCH   7  16
ENDBRANCH   1  11
BRANCH   5  21
ATOM     21  N   UNL     1       1.516   9.391  19.365  0.00  0.00    +0.000 N 
ATOM     22  C   UNL     1       1.992   8.458  18.464  0.00  0.00    +0.000 C 
ATOM     23  O   UNL     1       2.059   8.626  17.252  0.00  0.00    +0.000 OA
ATOM     24  N   UNL     1       2.368   7.283  19.103  0.00  0.00    +0.000 N 
ATOM     25  H   UNL     1       1.895   9.333  20.298  0.00  0.00    +0.000 HD
ATOM     26  H   UNL     1       1.792   7.050  19.901  0.00  0.00    +0.000 HD
BRANCH  24  27
ATOM     27  C   UNL     1       2.908   6.200  18.371  0.00  0.00    +0.000 A 
ATOM     28  C   UNL     1       2.122   5.096  18.020  0.00  0.00    +0.000 A 
ATOM     29  C   UNL     1       2.687   4.006  17.356  0.00  0.00    +0.000 A 
ATOM     30  C   UNL     1       4.046   4.013  17.049  0.00  0.00    +0.000 A 
ATOM     31  C   UNL     1       4.823   5.120  17.384  0.00  0.00    +0.000 A 
ATOM     32 CL   UNL     1       6.512   5.104  17.048  0.00  0.00    +0.000 Cl
ATOM     33  C   UNL     1       4.258   6.228  18.019  0.00  0.00    +0.000 A 
ENDBRANCH  24  27
ENDBRANCH   5  21
TORSDOF 6
ENDMDL
MODEL 8
REMARK VINA RESULT:      -8.6      3.918     11.050
REMARK  Name = 
REMARK  7 active torsions:
REMARK  status: ('A' for Active; 'I' for Inactive)
REMARK    1  A    between atoms: C_1  and  C_2
REMARK    2  A    between atoms: C_2  and  O_3
REMARK    3  A    between atoms: O_3  and  C_4
REMARK    4  A    between atoms: C_4  and  C_6
REMARK    5  A    between atoms: C_10  and  C_11
REMARK    6  A    between atoms: C_15  and  N_16
REMARK    7  A    between atoms: N_19  and  C_20
REMARK                            x       y       z     vdW  Elec       q    Type
REMARK                         _______ _______ _______ _____ _____    ______ ____
ROOT
ATOM      1  C   UNL     1       2.476   6.694  19.504  0.00  0.00    +0.000 A 
ATOM      2  C   UNL     1       1.900   5.834  20.442  0.00  0.00    +0.000 A 
ATOM      3  C   UNL     1       2.441   4.567  20.646  0.00  0.00    +0.000 A 
ATOM      4  C   UNL     1       3.540   4.150  19.890  0.00  0.00    +0.000 A 
ATOM      5  C   UNL     1       4.110   4.989  18.924  0.00  0.00    +0.000 A 
ATOM      6  C   UNL     1       3.586   6.271  18.753  0.00  0.00    +0.000 A 
ENDROOT
BRANCH   1  11
ATOM      7  C   UNL     1       0.381  10.468  21.405  0.00  0.00    +0.000 A 
ATOM      8  C   UNL     1       0.661   9.395  22.270  0.00  0.00    +0.000 A 
ATOM      9  N   UNL     1       1.262   8.374  21.667  0.00  0.00    +0.000 NA
ATOM     10  N   UNL     1       1.381   8.766  20.371  0.00  0.00    +0.000 N 
ATOM     11  C   UNL     1       1.932   8.042  19.300  0.00  0.00    +0.000 A 
ATOM     12  C   UNL     1       1.977   8.598  18.074  0.00  0.00    +0.000 A 
ATOM     13  C   UNL     1       1.423   9.970  17.973  0.00  0.00    +0.000 A 
ATOM     14  N   UNL     1       0.902  10.661  18.939  0.00  0.00    +0.000 NA
ATOM     15  C   UNL     1       0.868  10.057  20.173  0.00  0.00    +0.000 A 
BRANCH   7  16
ATOM     16  C   UNL     1      -0.322  11.677  21.757  0.00  0.00    +0.000 C 
ATOM     17  O   UNL     1       0.269  12.720  22.016  0.00  0.00    +0.000 OA
BRANCH  16  18
ATOM     18  O   UNL     1      -1.665  11.502  21.888  0.00  0.00    +0.000 OA
BRANCH  18  20
ATOM     19  C   UNL     1      -3.419  12.621  23.054  0.00  0.00    +0.000 C 
ATOM     20  C   UNL     1      -2.187  11.744  23.199  0.00  0.00    +0.000 C 
ENDBRANCH  18  20
ENDBRANCH  16  18
ENDBRANCH   7  16
ENDBRANCH   1  11
BRANCH   5  21
ATOM     21  N   UNL     1       5.213   4.598  18.132  0.00  0.00    +0.000 N 
ATOM     22  C   UNL     1       5.300   4.784  16.766  0.00  0.00    +0.000 C 
ATOM     23  O   UNL     1       4.515   5.447  16.099  0.00  0.00    +0.000 OA
ATOM     24  N   UNL     1       6.385   4.101  16.231  0.00  0.00    +0.000 N 
ATOM     25  H   UNL     1       6.085   4.429  18.609  0.00  0.00    +0.000 HD
ATOM     26  H   UNL     1       6.582   3.223  16.691  0.00  0.00    +0.000 HD
BRANCH  24  27
ATOM     27  C   UNL     1       6.677   4.173  14.849  0.00  0.00    +0.000 A 
ATOM     28  C   UNL     1       7.610   5.090  14.349  0.00  0.00    +0.000 A 
ATOM     29  C   UNL     1       7.837   5.193  12.976  0.00  0.00    +0.000 A 
ATOM     30  C   UNL     1       7.123   4.385  12.095  0.00  0.00    +0.000 A 
ATOM     31  C   UNL     1       6.207   3.461  12.595  0.00  0.00    +0.000 A 
ATOM     32 CL   UNL     1       5.289   2.499  11.501  0.00  0.00    +0.000 Cl
ATOM     33  C   UNL     1       5.998   3.329  13.969  0.00  0.00    +0.000 A 
ENDBRANCH  24  27
ENDBRANCH   5  21
TORSDOF 6
ENDMDL
MODEL 9
REMARK VINA RESULT:      -8.5      2.030      3.204
REMARK  Name = 
REMARK  7 active torsions:
REMARK  status: ('A' for Active; 'I' for Inactive)
REMARK    1  A    between atoms: C_1  and  C_2
REMARK    2  A    between atoms: C_2  and  O_3
REMARK    3  A    between atoms: O_3  and  C_4
REMARK    4  A    between atoms: C_4  and  C_6
REMARK    5  A    between atoms: C_10  and  C_11
REMARK    6  A    between atoms: C_15  and  N_16
REMARK    7  A    between atoms: N_19  and  C_20
REMARK                            x       y       z     vdW  Elec       q    Type
REMARK                         _______ _______ _______ _____ _____    ______ ____
ROOT
ATOM      1  C   UNL     1       4.010   5.625  19.318  0.00  0.00    +0.000 A 
ATOM      2  C   UNL     1       3.471   4.652  20.163  0.00  0.00    +0.000 A 
ATOM      3  C   UNL     1       2.241   4.870  20.777  0.00  0.00    +0.000 A 
ATOM      4  C   UNL     1       1.564   6.076  20.569  0.00  0.00    +0.000 A 
ATOM      5  C   UNL     1       2.105   7.074  19.749  0.00  0.00    +0.000 A 
ATOM      6  C   UNL     1       3.320   6.830  19.106  0.00  0.00    +0.000 A 
ENDROOT
BRANCH   1  11
ATOM      7  C   UNL     1       6.312   5.038  15.243  0.00  0.00    +0.000 A 
ATOM      8  C   UNL     1       4.924   5.247  15.163  0.00  0.00    +0.000 A 
ATOM      9  N   UNL     1       4.346   5.417  16.348  0.00  0.00    +0.000 NA
ATOM     10  N   UNL     1       5.365   5.311  17.242  0.00  0.00    +0.000 N 
ATOM     11  C   UNL     1       5.292   5.393  18.643  0.00  0.00    +0.000 A 
ATOM     12  C   UNL     1       6.416   5.275  19.375  0.00  0.00    +0.000 A 
ATOM     13  C   UNL     1       7.664   5.065  18.602  0.00  0.00    +0.000 A 
ATOM     14  N   UNL     1       7.764   4.978  17.312  0.00  0.00    +0.000 NA
ATOM     15  C   UNL     1       6.594   5.096  16.600  0.00  0.00    +0.000 A 
BRANCH   7  16
ATOM     16  C   UNL     1       7.191   4.758  14.135  0.00  0.00    +0.000 C 
ATOM     17  O   UNL     1       8.021   5.570  13.742  0.00  0.00    +0.000 OA
BRANCH  16  18
ATOM     18  O   UNL     1       6.919   3.578  13.514  0.00  0.00    +0.000 OA
BRANCH  18  20
ATOM     19  C   UNL     1       5.123   3.307  11.968  0.00  0.00    +0.000 C 
ATOM     20  C   UNL     1       6.588   3.681  12.126  0.00  0.00    +0.000 C 
ENDBRANCH  18  20
ENDBRANCH  16  18
ENDBRANCH   7  16
ENDBRANCH   1  11
BRANCH   5  21
ATOM     21  N   UNL     1       1.457   8.309  19.524  0.00  0.00    +0.000 N 
ATOM     22  C   UNL     1       1.170   9.232  20.512  0.00  0.00    +0.000 C 
ATOM     23  O   UNL     1       1.579   9.173  21.665  0.00  0.00    +0.000 OA
ATOM     24  N   UNL     1       0.333  10.235  20.038  0.00  0.00    +0.000 N 
ATOM     25  H   UNL     1       1.448   8.660  18.579  0.00  0.00    +0.000 HD
ATOM     26  H   UNL     1      -0.340   9.916  19.355  0.00  0.00    +0.000 HD
BRANCH  24  27
ATOM     27  C   UNL     1      -0.068  11.300  20.877  0.00  0.00    +0.000 A 
ATOM     28  C   UNL     1       0.657  12.497  20.931  0.00  0.00    +0.000 A 
ATOM     29  C   UNL     1       0.284  13.512  21.814  0.00  0.00    +0.000 A 
ATOM     30  C   UNL     1      -0.812  13.329  22.654  0.00  0.00    +0.000 A 
ATOM     31  C   UNL     1      -1.542  12.144  22.587  0.00  0.00    +0.000 A 
ATOM     32 CL   UNL     1      -2.866  11.901  23.661  0.00  0.00    +0.000 Cl
ATOM     33  C   UNL     1      -1.196  11.138  21.683  0.00  0.00    +0.000 A 
ENDBRANCH  24  27
ENDBRANCH   5  21
TORSDOF 6
ENDMDL
