MODEL 1
REMARK VINA RESULT:      -6.6      0.000      0.000
REMARK  Name = 
REMARK  10 active torsions:
REMARK  status: ('A' for Active; 'I' for Inactive)
REMARK    1  A    between atoms: C_1  and  C_2
REMARK    2  A    between atoms: C_2  and  O_3
REMARK    3  A    between atoms: O_3  and  C_4
REMARK    4  A    between atoms: C_4  and  C_6
REMARK    5  A    between atoms: C_9  and  N_10
REMARK    6  A    between atoms: C_16  and  C_17
REMARK    7  A    between atoms: C_20  and  O_21
REMARK    8  A    between atoms: O_21  and  C_22
REMARK    9  A    between atoms: C_26  and  C_27
REMARK   10  A    between atoms: C_31  and  O_32
REMARK                            x       y       z     vdW  Elec       q    Type
REMARK                         _______ _______ _______ _____ _____    ______ ____
ROOT
ATOM      1  N   UNL     1      -0.193  10.565  19.558  0.00  0.00    +0.000 N 
ATOM      2  C   UNL     1      -1.436  10.662  18.910  0.00  0.00    +0.000 C 
ATOM      3  O   UNL     1      -1.932   9.950  18.058  0.00  0.00    +0.000 OA
ATOM      4  C   UNL     1      -2.021  11.801  19.510  0.00  0.00    +0.000 A 
ATOM      5  N   UNL     1      -3.156  12.498  19.421  0.00  0.00    +0.000 N 
ATOM      6  N   UNL     1      -3.121  13.601  20.197  0.00  0.00    +0.000 NA
ATOM      7  C   UNL     1      -1.904  13.586  20.802  0.00  0.00    +0.000 A 
ATOM      8  C   UNL     1      -1.211  12.417  20.420  0.00  0.00    +0.000 A 
ATOM      9  C   UNL     1       0.064  11.654  20.544  0.00  0.00    +0.000 C 
ATOM     10  H   UNL     1      -3.986  12.314  18.859  0.00  0.00    +0.000 HD
ENDROOT
BRANCH   1  14
ATOM     11  C   UNL     1       2.659   7.649  18.527  0.00  0.00    +0.000 A 
ATOM     12  C   UNL     1       2.253   8.607  17.593  0.00  0.00    +0.000 A 
ATOM     13  C   UNL     1       1.293   9.557  17.935  0.00  0.00    +0.000 A 
ATOM     14  C   UNL     1       0.764   9.593  19.228  0.00  0.00    +0.000 A 
ATOM     15  C   UNL     1       1.171   8.645  20.171  0.00  0.00    +0.000 A 
ATOM     16  C   UNL     1       2.097   7.657  19.812  0.00  0.00    +0.000 A 
BRANCH  11  17
ATOM     17  C   UNL     1       3.634   6.620  18.075  0.00  0.00    +0.000 C 
ATOM     18  O   UNL     1       4.472   6.824  17.212  0.00  0.00    +0.000 OA
BRANCH  17  19
ATOM     19  O   UNL     1       3.376   5.432  18.674  0.00  0.00    +0.000 OA
BRANCH  19  21
ATOM     20  C   UNL     1       1.502   4.270  17.768  0.00  0.00    +0.000 C 
ATOM     21  C   UNL     1       3.016   4.373  17.775  0.00  0.00    +0.000 C 
ENDBRANCH  19  21
ENDBRANCH  17  19
ENDBRANCH  11  17
ENDBRANCH   1  14
BRANCH   7  22
ATOM     22  C   UNL     1      -1.494  14.709  21.646  0.00  0.00    +0.000 A 
ATOM     23  C   UNL     1      -0.623  15.701  21.188  0.00  0.00    +0.000 A 
ATOM     24  C   UNL     1      -0.227  16.741  22.042  0.00  0.00    +0.000 A 
ATOM     25  C   UNL     1      -0.710  16.823  23.350  0.00  0.00    +0.000 A 
ATOM     26  C   UNL     1      -1.585  15.845  23.814  0.00  0.00    +0.000 A 
ATOM     27  C   UNL     1      -1.971  14.798  22.965  0.00  0.00    +0.000 A 
BRANCH  25  28
ATOM     28  O   UNL     1      -0.219  17.859  24.092  0.00  0.00    +0.000 OA
ATOM     29  C   UNL     1       1.193  18.039  24.049  0.00  0.00    +0.000 C 
ENDBRANCH  25  28
ENDBRANCH   7  22
BRANCH   9  30
ATOM     30  C   UNL     1       1.231  12.555  20.176  0.00  0.00    +0.000 A 
ATOM     31  C   UNL     1       2.026  13.085  21.210  0.00  0.00    +0.000 A 
ATOM     32  C   UNL     1       3.101  13.935  20.935  0.00  0.00    +0.000 A 
ATOM     33  C   UNL     1       3.407  14.275  19.619  0.00  0.00    +0.000 A 
ATOM     34  C   UNL     1       2.650  13.735  18.589  0.00  0.00    +0.000 A 
ATOM     35  C   UNL     1       1.594  12.867  18.852  0.00  0.00    +0.000 A 
BRANCH  34  36
ATOM     36  O   UNL     1       2.906  14.039  17.284  0.00  0.00    +0.000 OA
ATOM     37  H   UNL     1       2.178  13.700  16.738  0.00  0.00    +0.000 HD
ENDBRANCH  34  36
ENDBRANCH   9  30
TORSDOF 8
ENDMDL
MODEL 2
REMARK VINA RESULT:      -6.6      1.026      1.438
REMARK  Name = 
REMARK  10 active torsions:
REMARK  status: ('A' for Active; 'I' for Inactive)
REMARK    1  A    between atoms: C_1  and  C_2
REMARK    2  A    between atoms: C_2  and  O_3
REMARK    3  A    between atoms: O_3  and  C_4
REMARK    4  A    between atoms: C_4  and  C_6
REMARK    5  A    between atoms: C_9  and  N_10
REMARK    6  A    between atoms: C_16  and  C_17
REMARK    7  A    between atoms: C_20  and  O_21
REMARK    8  A    between atoms: O_21  and  C_22
REMARK    9  A    between atoms: C_26  and  C_27
REMARK   10  A    between atoms: C_31  and  O_32
REMARK                            x       y       z     vdW  Elec       q    Type
REMARK                         _______ _______ _______ _____ _____    ______ ____
ROOT
ATOM      1  N   UNL     1      -0.337  10.556  19.574  0.00  0.00    +0.000 N 
ATOM      2  C   UNL     1      -1.567  10.642  18.901  0.00  0.00    +0.000 C 
ATOM      3  O   UNL     1      -2.028   9.942  18.020  0.00  0.00    +0.000 OA
ATOM      4  C   UNL     1      -2.191  11.752  19.516  0.00  0.00    +0.000 A 
ATOM      5  N   UNL     1      -3.340  12.426  19.420  0.00  0.00    +0.000 N 
ATOM      6  N   UNL     1      -3.347  13.509  20.224  0.00  0.00    +0.000 NA
ATOM      7  C   UNL     1      -2.143  13.505  20.856  0.00  0.00    +0.000 A 
ATOM      8  C   UNL     1      -1.416  12.362  20.460  0.00  0.00    +0.000 A 
ATOM      9  C   UNL     1      -0.126  11.624  20.594  0.00  0.00    +0.000 C 
ATOM     10  H   UNL     1      -4.152  12.238  18.834  0.00  0.00    +0.000 HD
ENDROOT
BRANCH   1  14
ATOM     11  C   UNL     1       2.602   7.730  18.535  0.00  0.00    +0.000 A 
ATOM     12  C   UNL     1       2.165   8.677  17.604  0.00  0.00    +0.000 A 
ATOM     13  C   UNL     1       1.177   9.597  17.948  0.00  0.00    +0.000 A 
ATOM     14  C   UNL     1       0.649   9.614  19.242  0.00  0.00    +0.000 A 
ATOM     15  C   UNL     1       1.086   8.678  20.183  0.00  0.00    +0.000 A 
ATOM     16  C   UNL     1       2.042   7.719  19.821  0.00  0.00    +0.000 A 
BRANCH  11  17
ATOM     17  C   UNL     1       3.607   6.733  18.081  0.00  0.00    +0.000 C 
ATOM     18  O   UNL     1       4.401   6.944  17.178  0.00  0.00    +0.000 OA
BRANCH  17  19
ATOM     19  O   UNL     1       3.431   5.556  18.730  0.00  0.00    +0.000 OA
BRANCH  19  21
ATOM     20  C   UNL     1       1.617   4.364  17.743  0.00  0.00    +0.000 C 
ATOM     21  C   UNL     1       3.128   4.442  17.879  0.00  0.00    +0.000 C 
ENDBRANCH  19  21
ENDBRANCH  17  19
ENDBRANCH  11  17
ENDBRANCH   1  14
BRANCH   7  22
ATOM     22  C   UNL     1      -1.778  14.615  21.738  0.00  0.00    +0.000 A 
ATOM     23  C   UNL     1      -1.163  14.406  22.975  0.00  0.00    +0.000 A 
ATOM     24  C   UNL     1      -0.863  15.496  23.805  0.00  0.00    +0.000 A 
ATOM     25  C   UNL     1      -1.145  16.805  23.407  0.00  0.00    +0.000 A 
ATOM     26  C   UNL     1      -1.748  17.025  22.172  0.00  0.00    +0.000 A 
ATOM     27  C   UNL     1      -2.061  15.935  21.347  0.00  0.00    +0.000 A 
BRANCH  25  28
ATOM     28  O   UNL     1      -0.840  17.773  24.321  0.00  0.00    +0.000 OA
ATOM     29  C   UNL     1      -1.116  17.454  25.680  0.00  0.00    +0.000 C 
ENDBRANCH  25  28
ENDBRANCH   7  22
BRANCH   9  30
ATOM     30  C   UNL     1       1.028  12.560  20.275  0.00  0.00    +0.000 A 
ATOM     31  C   UNL     1       1.108  13.115  18.984  0.00  0.00    +0.000 A 
ATOM     32  C   UNL     1       2.158  13.967  18.626  0.00  0.00    +0.000 A 
ATOM     33  C   UNL     1       3.151  14.283  19.550  0.00  0.00    +0.000 A 
ATOM     34  C   UNL     1       3.066  13.767  20.835  0.00  0.00    +0.000 A 
ATOM     35  C   UNL     1       2.011  12.938  21.208  0.00  0.00    +0.000 A 
BRANCH  34  36
ATOM     36  O   UNL     1       4.014  14.043  21.777  0.00  0.00    +0.000 OA
ATOM     37  H   UNL     1       4.870  14.149  21.333  0.00  0.00    +0.000 HD
ENDBRANCH  34  36
ENDBRANCH   9  30
TORSDOF 8
ENDMDL
MODEL 3
REMARK VINA RESULT:      -6.5      0.466      1.232
REMARK  Name = 
REMARK  10 active torsions:
REMARK  status: ('A' for Active; 'I' for Inactive)
REMARK    1  A    between atoms: C_1  and  C_2
REMARK    2  A    between atoms: C_2  and  O_3
REMARK    3  A    between atoms: O_3  and  C_4
REMARK    4  A    between atoms: C_4  and  C_6
REMARK    5  A    between atoms: C_9  and  N_10
REMARK    6  A    between atoms: C_16  and  C_17
REMARK    7  A    between atoms: C_20  and  O_21
REMARK    8  A    between atoms: O_21  and  C_22
REMARK    9  A    between atoms: C_26  and  C_27
REMARK   10  A    between atoms: C_31  and  O_32
REMARK                            x       y       z     vdW  Elec       q    Type
REMARK                         _______ _______ _______ _____ _____    ______ ____
ROOT
ATOM      1  N   UNL     1      -0.197  10.608  19.621  0.00  0.00    +0.000 N 
ATOM      2  C   UNL     1      -1.460  10.740  19.020  0.00  0.00    +0.000 C 
ATOM      3  O   UNL     1      -1.995  10.060  18.164  0.00  0.00    +0.000 OA
ATOM      4  C   UNL     1      -2.011  11.866  19.674  0.00  0.00    +0.000 A 
ATOM      5  N   UNL     1      -3.139  12.578  19.647  0.00  0.00    +0.000 N 
ATOM      6  N   UNL     1      -3.064  13.656  20.455  0.00  0.00    +0.000 NA
ATOM      7  C   UNL     1      -1.827  13.608  21.016  0.00  0.00    +0.000 A 
ATOM      8  C   UNL     1      -1.163  12.444  20.575  0.00  0.00    +0.000 A 
ATOM      9  C   UNL     1       0.107  11.663  20.631  0.00  0.00    +0.000 C 
ATOM     10  H   UNL     1      -3.990  12.421  19.108  0.00  0.00    +0.000 HD
ENDROOT
BRANCH   1  14
ATOM     11  C   UNL     1       2.619   7.695  18.489  0.00  0.00    +0.000 A 
ATOM     12  C   UNL     1       2.081   7.700  19.780  0.00  0.00    +0.000 A 
ATOM     13  C   UNL     1       1.164   8.680  20.154  0.00  0.00    +0.000 A 
ATOM     14  C   UNL     1       0.736   9.636  19.229  0.00  0.00    +0.000 A 
ATOM     15  C   UNL     1       1.261   9.634  17.935  0.00  0.00    +0.000 A 
ATOM     16  C   UNL     1       2.223   8.681  17.573  0.00  0.00    +0.000 A 
BRANCH  11  17
ATOM     17  C   UNL     1       3.646   6.665  18.178  0.00  0.00    +0.000 C 
ATOM     18  O   UNL     1       4.620   6.880  17.475  0.00  0.00    +0.000 OA
BRANCH  17  19
ATOM     19  O   UNL     1       3.279   5.464  18.689  0.00  0.00    +0.000 OA
BRANCH  19  21
ATOM     20  C   UNL     1       1.470   4.186  17.805  0.00  0.00    +0.000 C 
ATOM     21  C   UNL     1       2.959   4.467  17.707  0.00  0.00    +0.000 C 
ENDBRANCH  19  21
ENDBRANCH  17  19
ENDBRANCH  11  17
ENDBRANCH   1  14
BRANCH   7  22
ATOM     22  C   UNL     1      -1.374  14.700  21.880  0.00  0.00    +0.000 A 
ATOM     23  C   UNL     1      -1.519  14.654  23.269  0.00  0.00    +0.000 A 
ATOM     24  C   UNL     1      -1.105  15.738  24.056  0.00  0.00    +0.000 A 
ATOM     25  C   UNL     1      -0.520  16.867  23.479  0.00  0.00    +0.000 A 
ATOM     26  C   UNL     1      -0.361  16.919  22.097  0.00  0.00    +0.000 A 
ATOM     27  C   UNL     1      -0.788  15.841  21.307  0.00  0.00    +0.000 A 
BRANCH  25  28
ATOM     28  O   UNL     1      -0.196  17.869  24.349  0.00  0.00    +0.000 OA
ATOM     29  C   UNL     1      -0.635  17.692  25.692  0.00  0.00    +0.000 C 
ENDBRANCH  25  28
ENDBRANCH   7  22
BRANCH   9  30
ATOM     30  C   UNL     1       1.272  12.561  20.251  0.00  0.00    +0.000 A 
ATOM     31  C   UNL     1       2.044  13.134  21.279  0.00  0.00    +0.000 A 
ATOM     32  C   UNL     1       3.117  13.985  20.992  0.00  0.00    +0.000 A 
ATOM     33  C   UNL     1       3.441  14.282  19.670  0.00  0.00    +0.000 A 
ATOM     34  C   UNL     1       2.706  13.699  18.647  0.00  0.00    +0.000 A 
ATOM     35  C   UNL     1       1.653  12.831  18.923  0.00  0.00    +0.000 A 
BRANCH  34  36
ATOM     36  O   UNL     1       2.980  13.960  17.336  0.00  0.00    +0.000 OA
ATOM     37  H   UNL     1       3.538  13.246  16.987  0.00  0.00    +0.000 HD
ENDBRANCH  34  36
ENDBRANCH   9  30
TORSDOF 8
ENDMDL
MODEL 4
REMARK VINA RESULT:      -6.4      0.932      1.468
REMARK  Name = 
REMARK  10 active torsions:
REMARK  status: ('A' for Active; 'I' for Inactive)
REMARK    1  A    between atoms: C_1  and  C_2
REMARK    2  A    between atoms: C_2  and  O_3
REMARK    3  A    between atoms: O_3  and  C_4
REMARK    4  A    between atoms: C_4  and  C_6
REMARK    5  A    between atoms: C_9  and  N_10
REMARK    6  A    between atoms: C_16  and  C_17
REMARK    7  A    between atoms: C_20  and  O_21
REMARK    8  A    between atoms: O_21  and  C_22
REMARK    9  A    between atoms: C_26  and  C_27
REMARK   10  A    between atoms: C_31  and  O_32
REMARK                            x       y       z     vdW  Elec       q    Type
REMARK                         _______ _______ _______ _____ _____    ______ ____
ROOT
ATOM      1  N   UNL     1      -0.425  10.826  19.667  0.00  0.00    +0.000 N 
ATOM      2  C   UNL     1      -1.704  10.920  19.094  0.00  0.00    +0.000 C 
ATOM      3  O   UNL     1      -2.256  10.196  18.288  0.00  0.00    +0.000 OA
ATOM      4  C   UNL     1      -2.245  12.075  19.707  0.00  0.00    +0.000 A 
ATOM      5  N   UNL     1      -3.379  12.778  19.674  0.00  0.00    +0.000 N 
ATOM      6  N   UNL     1      -3.290  13.895  20.425  0.00  0.00    +0.000 NA
ATOM      7  C   UNL     1      -2.038  13.882  20.955  0.00  0.00    +0.000 A 
ATOM      8  C   UNL     1      -1.378  12.701  20.555  0.00  0.00    +0.000 A 
ATOM      9  C   UNL     1      -0.102  11.931  20.616  0.00  0.00    +0.000 C 
ATOM     10  H   UNL     1      -4.242  12.590  19.166  0.00  0.00    +0.000 HD
ENDROOT
BRANCH   1  14
ATOM     11  C   UNL     1       2.381   7.876  18.607  0.00  0.00    +0.000 A 
ATOM     12  C   UNL     1       1.883   7.947  19.911  0.00  0.00    +0.000 A 
ATOM     13  C   UNL     1       0.969   8.939  20.260  0.00  0.00    +0.000 A 
ATOM     14  C   UNL     1       0.504   9.841  19.299  0.00  0.00    +0.000 A 
ATOM     15  C   UNL     1       0.990   9.773  17.991  0.00  0.00    +0.000 A 
ATOM     16  C   UNL     1       1.948   8.809  17.652  0.00  0.00    +0.000 A 
BRANCH  11  17
ATOM     17  C   UNL     1       3.407   6.838  18.319  0.00  0.00    +0.000 C 
ATOM     18  O   UNL     1       4.368   7.029  17.592  0.00  0.00    +0.000 OA
BRANCH  17  19
ATOM     19  O   UNL     1       3.053   5.657  18.882  0.00  0.00    +0.000 OA
BRANCH  19  21
ATOM     20  C   UNL     1       1.508   4.228  17.762  0.00  0.00    +0.000 C 
ATOM     21  C   UNL     1       2.976   4.555  17.967  0.00  0.00    +0.000 C 
ENDBRANCH  19  21
ENDBRANCH  17  19
ENDBRANCH  11  17
ENDBRANCH   1  14
BRANCH   7  22
ATOM     22  C   UNL     1      -1.571  15.018  21.752  0.00  0.00    +0.000 A 
ATOM     23  C   UNL     1      -1.741  16.339  21.329  0.00  0.00    +0.000 A 
ATOM     24  C   UNL     1      -1.245  17.396  22.106  0.00  0.00    +0.000 A 
ATOM     25  C   UNL     1      -0.599  17.158  23.321  0.00  0.00    +0.000 A 
ATOM     26  C   UNL     1      -0.433  15.846  23.756  0.00  0.00    +0.000 A 
ATOM     27  C   UNL     1      -0.916  14.787  22.973  0.00  0.00    +0.000 A 
BRANCH  25  28
ATOM     28  O   UNL     1      -0.129  18.268  23.962  0.00  0.00    +0.000 OA
ATOM     29  C   UNL     1       0.555  18.035  25.189  0.00  0.00    +0.000 C 
ENDBRANCH  25  28
ENDBRANCH   7  22
BRANCH   9  30
ATOM     30  C   UNL     1       1.047  12.816  20.160  0.00  0.00    +0.000 A 
ATOM     31  C   UNL     1       1.010  13.351  18.858  0.00  0.00    +0.000 A 
ATOM     32  C   UNL     1       2.047  14.156  18.376  0.00  0.00    +0.000 A 
ATOM     33  C   UNL     1       3.144  14.444  19.184  0.00  0.00    +0.000 A 
ATOM     34  C   UNL     1       3.177  13.948  20.480  0.00  0.00    +0.000 A 
ATOM     35  C   UNL     1       2.138  13.167  20.977  0.00  0.00    +0.000 A 
BRANCH  34  36
ATOM     36  O   UNL     1       4.230  14.198  21.310  0.00  0.00    +0.000 OA
ATOM     37  H   UNL     1       3.922  14.752  22.045  0.00  0.00    +0.000 HD
ENDBRANCH  34  36
ENDBRANCH   9  30
TORSDOF 8
ENDMDL
MODEL 5
REMARK VINA RESULT:      -6.4      0.766      1.175
REMARK  Name = 
REMARK  10 active torsions:
REMARK  status: ('A' for Active; 'I' for Inactive)
REMARK    1  A    between atoms: C_1  and  C_2
REMARK    2  A    between atoms: C_2  and  O_3
REMARK    3  A    between atoms: O_3  and  C_4
REMARK    4  A    between atoms: C_4  and  C_6
REMARK    5  A    between atoms: C_9  and  N_10
REMARK    6  A    between atoms: C_16  and  C_17
REMARK    7  A    between atoms: C_20  and  O_21
REMARK    8  A    between atoms: O_21  and  C_22
REMARK    9  A    between atoms: C_26  and  C_27
REMARK   10  A    between atoms: C_31  and  O_32
REMARK                            x       y       z     vdW  Elec       q    Type
REMARK                         _______ _______ _______ _____ _____    ______ ____
ROOT
ATOM      1  N   UNL     1      -0.216  10.591  19.617  0.00  0.00    +0.000 N 
ATOM      2  C   UNL     1      -1.452  10.699  18.958  0.00  0.00    +0.000 C 
ATOM      3  O   UNL     1      -1.945   9.995  18.098  0.00  0.00    +0.000 OA
ATOM      4  C   UNL     1      -2.037  11.838  19.560  0.00  0.00    +0.000 A 
ATOM      5  N   UNL     1      -3.167  12.541  19.466  0.00  0.00    +0.000 N 
ATOM      6  N   UNL     1      -3.133  13.639  20.249  0.00  0.00    +0.000 NA
ATOM      7  C   UNL     1      -1.922  13.614  20.864  0.00  0.00    +0.000 A 
ATOM      8  C   UNL     1      -1.232  12.443  20.482  0.00  0.00    +0.000 A 
ATOM      9  C   UNL     1       0.038  11.673  20.612  0.00  0.00    +0.000 C 
ATOM     10  H   UNL     1      -3.993  12.365  18.895  0.00  0.00    +0.000 HD
ENDROOT
BRANCH   1  14
ATOM     11  C   UNL     1       2.629   7.665  18.594  0.00  0.00    +0.000 A 
ATOM     12  C   UNL     1       2.214   8.613  17.653  0.00  0.00    +0.000 A 
ATOM     13  C   UNL     1       1.257   9.567  17.993  0.00  0.00    +0.000 A 
ATOM     14  C   UNL     1       0.739   9.616  19.290  0.00  0.00    +0.000 A 
ATOM     15  C   UNL     1       1.154   8.679  20.239  0.00  0.00    +0.000 A 
ATOM     16  C   UNL     1       2.078   7.687  19.884  0.00  0.00    +0.000 A 
BRANCH  11  17
ATOM     17  C   UNL     1       3.601   6.633  18.145  0.00  0.00    +0.000 C 
ATOM     18  O   UNL     1       3.900   5.657  18.815  0.00  0.00    +0.000 OA
BRANCH  17  19
ATOM     19  O   UNL     1       4.163   6.995  16.966  0.00  0.00    +0.000 OA
BRANCH  19  21
ATOM     20  C   UNL     1       5.457   5.610  15.519  0.00  0.00    +0.000 C 
ATOM     21  C   UNL     1       5.490   6.492  16.755  0.00  0.00    +0.000 C 
ENDBRANCH  19  21
ENDBRANCH  17  19
ENDBRANCH  11  17
ENDBRANCH   1  14
BRANCH   7  22
ATOM     22  C   UNL     1      -1.513  14.730  21.719  0.00  0.00    +0.000 A 
ATOM     23  C   UNL     1      -1.448  16.042  21.244  0.00  0.00    +0.000 A 
ATOM     24  C   UNL     1      -1.017  17.076  22.087  0.00  0.00    +0.000 A 
ATOM     25  C   UNL     1      -0.671  16.826  23.416  0.00  0.00    +0.000 A 
ATOM     26  C   UNL     1      -0.741  15.524  23.903  0.00  0.00    +0.000 A 
ATOM     27  C   UNL     1      -1.159  14.487  23.057  0.00  0.00    +0.000 A 
BRANCH  25  28
ATOM     28  O   UNL     1      -0.230  17.910  24.121  0.00  0.00    +0.000 OA
ATOM     29  C   UNL     1       1.041  17.770  24.746  0.00  0.00    +0.000 C 
ENDBRANCH  25  28
ENDBRANCH   7  22
BRANCH   9  30
ATOM     30  C   UNL     1       1.213  12.570  20.260  0.00  0.00    +0.000 A 
ATOM     31  C   UNL     1       1.938  13.172  21.306  0.00  0.00    +0.000 A 
ATOM     32  C   UNL     1       3.017  14.023  21.044  0.00  0.00    +0.000 A 
ATOM     33  C   UNL     1       3.396  14.290  19.730  0.00  0.00    +0.000 A 
ATOM     34  C   UNL     1       2.709  13.678  18.692  0.00  0.00    +0.000 A 
ATOM     35  C   UNL     1       1.650  12.811  18.944  0.00  0.00    +0.000 A 
BRANCH  34  36
ATOM     36  O   UNL     1       3.037  13.910  17.388  0.00  0.00    +0.000 OA
ATOM     37  H   UNL     1       2.633  14.747  17.110  0.00  0.00    +0.000 HD
ENDBRANCH  34  36
ENDBRANCH   9  30
TORSDOF 8
ENDMDL
MODEL 6
REMARK VINA RESULT:      -6.3      0.738      1.606
REMARK  Name = 
REMARK  10 active torsions:
REMARK  status: ('A' for Active; 'I' for Inactive)
REMARK    1  A    between atoms: C_1  and  C_2
REMARK    2  A    between atoms: C_2  and  O_3
REMARK    3  A    between atoms: O_3  and  C_4
REMARK    4  A    between atoms: C_4  and  C_6
REMARK    5  A    between atoms: C_9  and  N_10
REMARK    6  A    between atoms: C_16  and  C_17
REMARK    7  A    between atoms: C_20  and  O_21
REMARK    8  A    between atoms: O_21  and  C_22
REMARK    9  A    between atoms: C_26  and  C_27
REMARK   10  A    between atoms: C_31  and  O_32
REMARK                            x       y       z     vdW  Elec       q    Type
REMARK                         _______ _______ _______ _____ _____    ______ ____
ROOT
ATOM      1  N   UNL     1      -0.219  10.666  19.697  0.00  0.00    +0.000 N 
ATOM      2  C   UNL     1      -1.486  10.816  19.108  0.00  0.00    +0.000 C 
ATOM      3  O   UNL     1      -2.045  10.135  18.269  0.00  0.00    +0.000 OA
ATOM      4  C   UNL     1      -2.004  11.965  19.750  0.00  0.00    +0.000 A 
ATOM      5  N   UNL     1      -3.117  12.701  19.724  0.00  0.00    +0.000 N 
ATOM      6  N   UNL     1      -3.009  13.789  20.513  0.00  0.00    +0.000 NA
ATOM      7  C   UNL     1      -1.767  13.723  21.062  0.00  0.00    +0.000 A 
ATOM      8  C   UNL     1      -1.133  12.537  20.632  0.00  0.00    +0.000 A 
ATOM      9  C   UNL     1       0.119  11.730  20.687  0.00  0.00    +0.000 C 
ATOM     10  H   UNL     1      -3.977  12.554  19.197  0.00  0.00    +0.000 HD
ENDROOT
BRANCH   1  14
ATOM     11  C   UNL     1       2.520   7.675  18.581  0.00  0.00    +0.000 A 
ATOM     12  C   UNL     1       2.016   7.727  19.884  0.00  0.00    +0.000 A 
ATOM     13  C   UNL     1       1.125   8.732  20.252  0.00  0.00    +0.000 A 
ATOM     14  C   UNL     1       0.688   9.668  19.311  0.00  0.00    +0.000 A 
ATOM     15  C   UNL     1       1.179   9.619  18.004  0.00  0.00    +0.000 A 
ATOM     16  C   UNL     1       2.116   8.640  17.646  0.00  0.00    +0.000 A 
BRANCH  11  17
ATOM     17  C   UNL     1       3.522   6.619  18.274  0.00  0.00    +0.000 C 
ATOM     18  O   UNL     1       3.687   5.629  18.968  0.00  0.00    +0.000 OA
BRANCH  17  19
ATOM     19  O   UNL     1       4.271   6.978  17.203  0.00  0.00    +0.000 OA
BRANCH  19  21
ATOM     20  C   UNL     1       5.342   5.444  15.724  0.00  0.00    +0.000 C 
ATOM     21  C   UNL     1       5.472   6.212  17.028  0.00  0.00    +0.000 C 
ENDBRANCH  19  21
ENDBRANCH  17  19
ENDBRANCH  11  17
ENDBRANCH   1  14
BRANCH   7  22
ATOM     22  C   UNL     1      -1.281  14.818  21.903  0.00  0.00    +0.000 A 
ATOM     23  C   UNL     1      -1.521  14.858  23.279  0.00  0.00    +0.000 A 
ATOM     24  C   UNL     1      -1.068  15.945  24.041  0.00  0.00    +0.000 A 
ATOM     25  C   UNL     1      -0.351  16.989  23.454  0.00  0.00    +0.000 A 
ATOM     26  C   UNL     1      -0.098  16.955  22.086  0.00  0.00    +0.000 A 
ATOM     27  C   UNL     1      -0.562  15.876  21.320  0.00  0.00    +0.000 A 
BRANCH  25  28
ATOM     28  O   UNL     1      -0.001  18.006  24.297  0.00  0.00    +0.000 OA
ATOM     29  C   UNL     1       1.138  17.768  25.117  0.00  0.00    +0.000 C 
ENDBRANCH  25  28
ENDBRANCH   7  22
BRANCH   9  30
ATOM     30  C   UNL     1       1.299  12.596  20.279  0.00  0.00    +0.000 A 
ATOM     31  C   UNL     1       2.124  13.130  21.288  0.00  0.00    +0.000 A 
ATOM     32  C   UNL     1       3.213  13.950  20.976  0.00  0.00    +0.000 A 
ATOM     33  C   UNL     1       3.502  14.256  19.648  0.00  0.00    +0.000 A 
ATOM     34  C   UNL     1       2.715  13.711  18.643  0.00  0.00    +0.000 A 
ATOM     35  C   UNL     1       1.645  12.873  18.943  0.00  0.00    +0.000 A 
BRANCH  34  36
ATOM     36  O   UNL     1       2.954  13.982  17.328  0.00  0.00    +0.000 OA
ATOM     37  H   UNL     1       2.914  13.151  16.827  0.00  0.00    +0.000 HD
ENDBRANCH  34  36
ENDBRANCH   9  30
TORSDOF 8
ENDMDL
MODEL 7
REMARK VINA RESULT:      -6.3      1.183      1.889
REMARK  Name = 
REMARK  10 active torsions:
REMARK  status: ('A' for Active; 'I' for Inactive)
REMARK    1  A    between atoms: C_1  and  C_2
REMARK    2  A    between atoms: C_2  and  O_3
REMARK    3  A    between atoms: O_3  and  C_4
REMARK    4  A    between atoms: C_4  and  C_6
REMARK    5  A    between atoms: C_9  and  N_10
REMARK    6  A    between atoms: C_16  and  C_17
REMARK    7  A    between atoms: C_20  and  O_21
REMARK    8  A    between atoms: O_21  and  C_22
REMARK    9  A    between atoms: C_26  and  C_27
REMARK   10  A    between atoms: C_31  and  O_32
REMARK                            x       y       z     vdW  Elec       q    Type
REMARK                         _______ _______ _______ _____ _____    ______ ____
ROOT
ATOM      1  N   UNL     1      -0.441  10.607  19.596  0.00  0.00    +0.000 N 
ATOM      2  C   UNL     1      -1.659  10.691  18.901  0.00  0.00    +0.000 C 
ATOM      3  O   UNL     1      -2.114   9.975  18.029  0.00  0.00    +0.000 OA
ATOM      4  C   UNL     1      -2.282  11.820  19.482  0.00  0.00    +0.000 A 
ATOM      5  N   UNL     1      -3.421  12.503  19.352  0.00  0.00    +0.000 N 
ATOM      6  N   UNL     1      -3.430  13.604  20.131  0.00  0.00    +0.000 NA
ATOM      7  C   UNL     1      -2.237  13.602  20.782  0.00  0.00    +0.000 A 
ATOM      8  C   UNL     1      -1.515  12.443  20.424  0.00  0.00    +0.000 A 
ATOM      9  C   UNL     1      -0.235  11.697  20.594  0.00  0.00    +0.000 C 
ATOM     10  H   UNL     1      -4.226  12.310  18.758  0.00  0.00    +0.000 HD
ENDROOT
BRANCH   1  14
ATOM     11  C   UNL     1       2.484   7.728  18.669  0.00  0.00    +0.000 A 
ATOM     12  C   UNL     1       2.047   8.636  17.699  0.00  0.00    +0.000 A 
ATOM     13  C   UNL     1       1.064   9.574  18.008  0.00  0.00    +0.000 A 
ATOM     14  C   UNL     1       0.541   9.648  19.301  0.00  0.00    +0.000 A 
ATOM     15  C   UNL     1       0.977   8.752  20.279  0.00  0.00    +0.000 A 
ATOM     16  C   UNL     1       1.928   7.774  19.956  0.00  0.00    +0.000 A 
BRANCH  11  17
ATOM     17  C   UNL     1       3.484   6.709  18.254  0.00  0.00    +0.000 C 
ATOM     18  O   UNL     1       3.774   5.738  18.934  0.00  0.00    +0.000 OA
BRANCH  17  19
ATOM     19  O   UNL     1       4.079   7.078  17.093  0.00  0.00    +0.000 OA
BRANCH  19  21
ATOM     20  C   UNL     1       5.444   5.783  15.628  0.00  0.00    +0.000 C 
ATOM     21  C   UNL     1       5.414   6.580  16.920  0.00  0.00    +0.000 C 
ENDBRANCH  19  21
ENDBRANCH  17  19
ENDBRANCH  11  17
ENDBRANCH   1  14
BRANCH   7  22
ATOM     22  C   UNL     1      -1.873  14.729  21.644  0.00  0.00    +0.000 A 
ATOM     23  C   UNL     1      -2.424  14.894  22.917  0.00  0.00    +0.000 A 
ATOM     24  C   UNL     1      -2.076  16.007  23.696  0.00  0.00    +0.000 A 
ATOM     25  C   UNL     1      -1.160  16.954  23.232  0.00  0.00    +0.000 A 
ATOM     26  C   UNL     1      -0.597  16.793  21.970  0.00  0.00    +0.000 A 
ATOM     27  C   UNL     1      -0.955  15.688  21.184  0.00  0.00    +0.000 A 
BRANCH  25  28
ATOM     28  O   UNL     1      -0.935  18.010  24.069  0.00  0.00    +0.000 OA
ATOM     29  C   UNL     1      -1.841  18.143  25.159  0.00  0.00    +0.000 C 
ENDBRANCH  25  28
ENDBRANCH   7  22
BRANCH   9  30
ATOM     30  C   UNL     1       0.933  12.613  20.273  0.00  0.00    +0.000 A 
ATOM     31  C   UNL     1       1.015  13.174  18.985  0.00  0.00    +0.000 A 
ATOM     32  C   UNL     1       2.077  14.009  18.624  0.00  0.00    +0.000 A 
ATOM     33  C   UNL     1       3.082  14.302  19.543  0.00  0.00    +0.000 A 
ATOM     34  C   UNL     1       2.997  13.780  20.826  0.00  0.00    +0.000 A 
ATOM     35  C   UNL     1       1.930  12.968  21.202  0.00  0.00    +0.000 A 
BRANCH  34  36
ATOM     36  O   UNL     1       3.956  14.033  21.762  0.00  0.00    +0.000 OA
ATOM     37  H   UNL     1       3.538  14.053  22.638  0.00  0.00    +0.000 HD
ENDBRANCH  34  36
ENDBRANCH   9  30
TORSDOF 8
ENDMDL
MODEL 8
REMARK VINA RESULT:      -6.3      1.038      1.357
REMARK  Name = 
REMARK  10 active torsions:
REMARK  status: ('A' for Active; 'I' for Inactive)
REMARK    1  A    between atoms: C_1  and  C_2
REMARK    2  A    between atoms: C_2  and  O_3
REMARK    3  A    between atoms: O_3  and  C_4
REMARK    4  A    between atoms: C_4  and  C_6
REMARK    5  A    between atoms: C_9  and  N_10
REMARK    6  A    between atoms: C_16  and  C_17
REMARK    7  A    between atoms: C_20  and  O_21
REMARK    8  A    between atoms: O_21  and  C_22
REMARK    9  A    between atoms: C_26  and  C_27
REMARK   10  A    between atoms: C_31  and  O_32
REMARK                            x       y       z     vdW  Elec       q    Type
REMARK                         _______ _______ _______ _____ _____    ______ ____
ROOT
ATOM      1  N   UNL     1      -0.276  10.636  19.578  0.00  0.00    +0.000 N 
ATOM      2  C   UNL     1      -1.543  10.674  18.971  0.00  0.00    +0.000 C 
ATOM      3  O   UNL     1      -2.055   9.903  18.182  0.00  0.00    +0.000 OA
ATOM      4  C   UNL     1      -2.128  11.838  19.522  0.00  0.00    +0.000 A 
ATOM      5  N   UNL     1      -3.278  12.509  19.432  0.00  0.00    +0.000 N 
ATOM      6  N   UNL     1      -3.236  13.658  20.139  0.00  0.00    +0.000 NA
ATOM      7  C   UNL     1      -1.999  13.699  20.699  0.00  0.00    +0.000 A 
ATOM      8  C   UNL     1      -1.298  12.521  20.364  0.00  0.00    +0.000 A 
ATOM      9  C   UNL     1      -0.005  11.788  20.488  0.00  0.00    +0.000 C 
ATOM     10  H   UNL     1      -4.123  12.277  18.912  0.00  0.00    +0.000 HD
ENDROOT
BRANCH   1  14
ATOM     11  C   UNL     1       2.593   7.713  18.623  0.00  0.00    +0.000 A 
ATOM     12  C   UNL     1       2.203   8.663  17.674  0.00  0.00    +0.000 A 
ATOM     13  C   UNL     1       1.237   9.616  17.991  0.00  0.00    +0.000 A 
ATOM     14  C   UNL     1       0.687   9.662  19.274  0.00  0.00    +0.000 A 
ATOM     15  C   UNL     1       1.076   8.722  20.232  0.00  0.00    +0.000 A 
ATOM     16  C   UNL     1       2.009   7.731  19.898  0.00  0.00    +0.000 A 
BRANCH  11  17
ATOM     17  C   UNL     1       3.576   6.681  18.196  0.00  0.00    +0.000 C 
ATOM     18  O   UNL     1       4.072   6.646  17.082  0.00  0.00    +0.000 OA
BRANCH  17  19
ATOM     19  O   UNL     1       3.740   5.755  19.173  0.00  0.00    +0.000 OA
BRANCH  19  21
ATOM     20  C   UNL     1       4.884   3.676  18.940  0.00  0.00    +0.000 C 
ATOM     21  C   UNL     1       5.045   5.159  19.221  0.00  0.00    +0.000 C 
ENDBRANCH  19  21
ENDBRANCH  17  19
ENDBRANCH  11  17
ENDBRANCH   1  14
BRANCH   7  22
ATOM     22  C   UNL     1      -1.580  14.879  21.459  0.00  0.00    +0.000 A 
ATOM     23  C   UNL     1      -0.590  15.747  20.994  0.00  0.00    +0.000 A 
ATOM     24  C   UNL     1      -0.194  16.845  21.771  0.00  0.00    +0.000 A 
ATOM     25  C   UNL     1      -0.793  17.109  23.005  0.00  0.00    +0.000 A 
ATOM     26  C   UNL     1      -1.788  16.256  23.473  0.00  0.00    +0.000 A 
ATOM     27  C   UNL     1      -2.175  15.150  22.703  0.00  0.00    +0.000 A 
BRANCH  25  28
ATOM     28  O   UNL     1      -0.291  18.185  23.681  0.00  0.00    +0.000 OA
ATOM     29  C   UNL     1       0.997  18.631  23.270  0.00  0.00    +0.000 C 
ENDBRANCH  25  28
ENDBRANCH   7  22
BRANCH   9  30
ATOM     30  C   UNL     1       1.131  12.683  20.024  0.00  0.00    +0.000 A 
ATOM     31  C   UNL     1       1.159  13.094  18.678  0.00  0.00    +0.000 A 
ATOM     32  C   UNL     1       2.191  13.902  18.188  0.00  0.00    +0.000 A 
ATOM     33  C   UNL     1       3.217  14.317  19.033  0.00  0.00    +0.000 A 
ATOM     34  C   UNL     1       3.184  13.945  20.369  0.00  0.00    +0.000 A 
ATOM     35  C   UNL     1       2.148  13.162  20.871  0.00  0.00    +0.000 A 
BRANCH  34  36
ATOM     36  O   UNL     1       4.166  14.322  21.237  0.00  0.00    +0.000 OA
ATOM     37  H   UNL     1       5.027  14.171  20.817  0.00  0.00    +0.000 HD
ENDBRANCH  34  36
ENDBRANCH   9  30
TORSDOF 8
ENDMDL
MODEL 9
REMARK VINA RESULT:      -6.3      4.110      8.987
REMARK  Name = 
REMARK  10 active torsions:
REMARK  status: ('A' for Active; 'I' for Inactive)
REMARK    1  A    between atoms: C_1  and  C_2
REMARK    2  A    between atoms: C_2  and  O_3
REMARK    3  A    between atoms: O_3  and  C_4
REMARK    4  A    between atoms: C_4  and  C_6
REMARK    5  A    between atoms: C_9  and  N_10
REMARK    6  A    between atoms: C_16  and  C_17
REMARK    7  A    between atoms: C_20  and  O_21
REMARK    8  A    between atoms: O_21  and  C_22
REMARK    9  A    between atoms: C_26  and  C_27
REMARK   10  A    between atoms: C_31  and  O_32
REMARK                            x       y       z     vdW  Elec       q    Type
REMARK                         _______ _______ _______ _____ _____    ______ ____
ROOT
ATOM      1  N   UNL     1      -3.910  14.215  22.464  0.00  0.00    +0.000 N 
ATOM      2  C   UNL     1      -5.098  13.558  22.825  0.00  0.00    +0.000 C 
ATOM      3  O   UNL     1      -5.736  13.606  23.859  0.00  0.00    +0.000 OA
ATOM      4  C   UNL     1      -5.422  12.819  21.663  0.00  0.00    +0.000 A 
ATOM      5  N   UNL     1      -6.375  11.981  21.252  0.00  0.00    +0.000 N 
ATOM      6  N   UNL     1      -6.102  11.482  20.029  0.00  0.00    +0.000 NA
ATOM      7  C   UNL     1      -4.920  12.043  19.659  0.00  0.00    +0.000 A 
ATOM      8  C   UNL     1      -4.500  12.942  20.663  0.00  0.00    +0.000 A 
ATOM      9  C   UNL     1      -3.424  13.880  21.093  0.00  0.00    +0.000 C 
ATOM     10  H   UNL     1      -7.223  11.681  21.731  0.00  0.00    +0.000 HD
ENDROOT
BRANCH   1  14
ATOM     11  C   UNL     1      -1.726  16.673  25.088  0.00  0.00    +0.000 A 
ATOM     12  C   UNL     1      -2.194  17.174  23.869  0.00  0.00    +0.000 A 
ATOM     13  C   UNL     1      -2.900  16.348  22.996  0.00  0.00    +0.000 A 
ATOM     14  C   UNL     1      -3.189  15.028  23.351  0.00  0.00    +0.000 A 
ATOM     15  C   UNL     1      -2.733  14.522  24.571  0.00  0.00    +0.000 A 
ATOM     16  C   UNL     1      -1.978  15.335  25.426  0.00  0.00    +0.000 A 
BRANCH  11  17
ATOM     17  C   UNL     1      -0.920  17.587  25.940  0.00  0.00    +0.000 C 
ATOM     18  O   UNL     1      -0.908  17.531  27.159  0.00  0.00    +0.000 OA
BRANCH  17  19
ATOM     19  O   UNL     1      -0.312  18.529  25.178  0.00  0.00    +0.000 OA
BRANCH  19  21
ATOM     20  C   UNL     1       1.614  17.797  23.978  0.00  0.00    +0.000 C 
ATOM     21  C   UNL     1       1.122  18.505  25.228  0.00  0.00    +0.000 C 
ENDBRANCH  19  21
ENDBRANCH  17  19
ENDBRANCH  11  17
ENDBRANCH   1  14
BRANCH   7  22
ATOM     22  C   UNL     1      -4.276  11.633  18.409  0.00  0.00    +0.000 A 
ATOM     23  C   UNL     1      -4.888  11.815  17.167  0.00  0.00    +0.000 A 
ATOM     24  C   UNL     1      -4.252  11.375  15.997  0.00  0.00    +0.000 A 
ATOM     25  C   UNL     1      -2.992  10.775  16.044  0.00  0.00    +0.000 A 
ATOM     26  C   UNL     1      -2.369  10.597  17.275  0.00  0.00    +0.000 A 
ATOM     27  C   UNL     1      -3.011  11.024  18.447  0.00  0.00    +0.000 A 
BRANCH  25  28
ATOM     28  O   UNL     1      -2.499  10.356  14.841  0.00  0.00    +0.000 OA
ATOM     29  C   UNL     1      -3.468   9.993  13.863  0.00  0.00    +0.000 C 
ENDBRANCH  25  28
ENDBRANCH   7  22
BRANCH   9  30
ATOM     30  C   UNL     1      -2.086  13.160  21.075  0.00  0.00    +0.000 A 
ATOM     31  C   UNL     1      -1.188  13.434  20.025  0.00  0.00    +0.000 A 
ATOM     32  C   UNL     1       0.050  12.789  19.943  0.00  0.00    +0.000 A 
ATOM     33  C   UNL     1       0.418  11.854  20.908  0.00  0.00    +0.000 A 
ATOM     34  C   UNL     1      -0.445  11.598  21.964  0.00  0.00    +0.000 A 
ATOM     35  C   UNL     1      -1.668  12.255  22.067  0.00  0.00    +0.000 A 
BRANCH  34  36
ATOM     36  O   UNL     1      -0.133  10.690  22.933  0.00  0.00    +0.000 OA
ATOM     37  H   UNL     1      -0.866  10.059  23.015  0.00  0.00    +0.000 HD
ENDBRANCH  34  36
ENDBRANCH   9  30
TORSDOF 8
ENDMDL
