MODEL 1
REMARK VINA RESULT:      -7.1      0.000      0.000
REMARK  Name = 
REMARK  8 active torsions:
REMARK  status: ('A' for Active; 'I' for Inactive)
REMARK    1  A    between atoms: C_1  and  C_2
REMARK    2  A    between atoms: N_3  and  C_4
REMARK    3  A    between atoms: C_4  and  S_5
REMARK    4  A    between atoms: N_6  and  C_7
REMARK    5  A    between atoms: C_10  and  C_11
REMARK    6  A    between atoms: N_14  and  S_15
REMARK    7  A    between atoms: S_15  and  C_18
REMARK    8  A    between atoms: C_21  and  C_22
REMARK                            x       y       z     vdW  Elec       q    Type
REMARK                         _______ _______ _______ _____ _____    ______ ____
ROOT
ATOM      1  C   UNL     1       1.693   4.503  17.761  0.00  0.00    +0.000 C 
ATOM      2  C   UNL     1       3.033   5.021  18.211  0.00  0.00    +0.000 C 
ATOM      3  N   UNL     1       3.295   5.907  19.105  0.00  0.00    +0.000 NA
ATOM      4  N   UNL     1       4.117   4.421  17.535  0.00  0.00    +0.000 N 
ATOM      5  H   UNL     1       3.965   3.635  16.906  0.00  0.00    +0.000 HD
ENDROOT
BRANCH   4   6
ATOM      6  S   UNL     1       5.640   5.072  17.329  0.00  0.00    +0.000 S 
ATOM      7  O   UNL     1       5.448   6.505  17.416  0.00  0.00    +0.000 OA
ATOM      8  O   UNL     1       6.562   4.400  18.217  0.00  0.00    +0.000 OA
BRANCH   6   9
ATOM      9  C   UNL     1       6.060   4.691  15.650  0.00  0.00    +0.000 A 
ATOM     10  C   UNL     1       5.182   3.943  14.862  0.00  0.00    +0.000 A 
ATOM     11  C   UNL     1       5.510   3.672  13.533  0.00  0.00    +0.000 A 
ATOM     12  C   UNL     1       6.710   4.145  12.984  0.00  0.00    +0.000 A 
ATOM     13  C   UNL     1       7.092   3.838  11.567  0.00  0.00    +0.000 C 
ATOM     14  C   UNL     1       7.571   4.915  13.778  0.00  0.00    +0.000 A 
ATOM     15  C   UNL     1       7.239   5.204  15.102  0.00  0.00    +0.000 A 
ENDBRANCH   6   9
ENDBRANCH   4   6
BRANCH   3  16
ATOM     16  C   UNL     1       2.361   6.561  19.854  0.00  0.00    +0.000 C 
ATOM     17  N   UNL     1       2.221   7.841  19.770  0.00  0.00    +0.000 NA
BRANCH  17  18
ATOM     18  C   UNL     1       1.311   8.627  20.497  0.00  0.00    +0.000 A 
ATOM     19  C   UNL     1       1.428   8.621  21.891  0.00  0.00    +0.000 A 
ATOM     20  C   UNL     1       0.595   9.407  22.697  0.00  0.00    +0.000 A 
ATOM     21  C   UNL     1      -0.388  10.214  22.118  0.00  0.00    +0.000 A 
ATOM     22  C   UNL     1      -1.319  11.037  22.957  0.00  0.00    +0.000 C 
ATOM     23  C   UNL     1      -0.484  10.258  20.725  0.00  0.00    +0.000 A 
ATOM     24  C   UNL     1       0.379   9.499  19.927  0.00  0.00    +0.000 A 
ENDBRANCH  17  18
BRANCH  16  25
ATOM     25  S   UNL     1       1.509   5.475  20.944  0.00  0.00    +0.000 S 
ATOM     26  H   UNL     1       1.480   6.319  21.978  0.00  0.00    +0.000 HD
ENDBRANCH  16  25
ENDBRANCH   3  16
TORSDOF 5
ENDMDL
MODEL 2
REMARK VINA RESULT:      -7.1      1.473      1.930
REMARK  Name = 
REMARK  8 active torsions:
REMARK  status: ('A' for Active; 'I' for Inactive)
REMARK    1  A    between atoms: C_1  and  C_2
REMARK    2  A    between atoms: N_3  and  C_4
REMARK    3  A    between atoms: C_4  and  S_5
REMARK    4  A    between atoms: N_6  and  C_7
REMARK    5  A    between atoms: C_10  and  C_11
REMARK    6  A    between atoms: N_14  and  S_15
REMARK    7  A    between atoms: S_15  and  C_18
REMARK    8  A    between atoms: C_21  and  C_22
REMARK                            x       y       z     vdW  Elec       q    Type
REMARK                         _______ _______ _______ _____ _____    ______ ____
ROOT
ATOM      1  C   UNL     1       1.248   5.144  17.970  0.00  0.00    +0.000 C 
ATOM      2  C   UNL     1       2.522   5.316  18.754  0.00  0.00    +0.000 C 
ATOM      3  N   UNL     1       2.905   6.321  19.458  0.00  0.00    +0.000 NA
ATOM      4  N   UNL     1       3.376   4.195  18.680  0.00  0.00    +0.000 N 
ATOM      5  H   UNL     1       3.065   3.334  18.232  0.00  0.00    +0.000 HD
ENDROOT
BRANCH   4   6
ATOM      6  S   UNL     1       5.029   4.190  18.910  0.00  0.00    +0.000 S 
ATOM      7  O   UNL     1       5.306   5.402  19.654  0.00  0.00    +0.000 OA
ATOM      8  O   UNL     1       5.427   2.902  19.430  0.00  0.00    +0.000 OA
BRANCH   6   9
ATOM      9  C   UNL     1       5.702   4.399  17.283  0.00  0.00    +0.000 A 
ATOM     10  C   UNL     1       7.051   4.723  17.121  0.00  0.00    +0.000 A 
ATOM     11  C   UNL     1       7.577   4.858  15.835  0.00  0.00    +0.000 A 
ATOM     12  C   UNL     1       6.764   4.669  14.709  0.00  0.00    +0.000 A 
ATOM     13  C   UNL     1       7.307   4.839  13.321  0.00  0.00    +0.000 C 
ATOM     14  C   UNL     1       5.419   4.320  14.886  0.00  0.00    +0.000 A 
ATOM     15  C   UNL     1       4.892   4.167  16.168  0.00  0.00    +0.000 A 
ENDBRANCH   6   9
ENDBRANCH   4   6
BRANCH   3  16
ATOM     16  C   UNL     1       2.187   7.466  19.641  0.00  0.00    +0.000 C 
ATOM     17  N   UNL     1       1.480   7.644  20.706  0.00  0.00    +0.000 NA
BRANCH  17  18
ATOM     18  C   UNL     1       0.691   8.767  21.002  0.00  0.00    +0.000 A 
ATOM     19  C   UNL     1       0.496   9.078  22.352  0.00  0.00    +0.000 A 
ATOM     20  C   UNL     1      -0.239  10.204  22.744  0.00  0.00    +0.000 A 
ATOM     21  C   UNL     1      -0.807  11.043  21.782  0.00  0.00    +0.000 A 
ATOM     22  C   UNL     1      -1.631  12.234  22.172  0.00  0.00    +0.000 C 
ATOM     23  C   UNL     1      -0.583  10.763  20.432  0.00  0.00    +0.000 A 
ATOM     24  C   UNL     1       0.186   9.658  20.051  0.00  0.00    +0.000 A 
ENDBRANCH  17  18
BRANCH  16  25
ATOM     25  S   UNL     1       2.290   8.540  18.252  0.00  0.00    +0.000 S 
ATOM     26  H   UNL     1       2.800   9.576  18.922  0.00  0.00    +0.000 HD
ENDBRANCH  16  25
ENDBRANCH   3  16
TORSDOF 5
ENDMDL
MODEL 3
REMARK VINA RESULT:      -7.0      1.941      2.053
REMARK  Name = 
REMARK  8 active torsions:
REMARK  status: ('A' for Active; 'I' for Inactive)
REMARK    1  A    between atoms: C_1  and  C_2
REMARK    2  A    between atoms: N_3  and  C_4
REMARK    3  A    between atoms: C_4  and  S_5
REMARK    4  A    between atoms: N_6  and  C_7
REMARK    5  A    between atoms: C_10  and  C_11
REMARK    6  A    between atoms: N_14  and  S_15
REMARK    7  A    between atoms: S_15  and  C_18
REMARK    8  A    between atoms: C_21  and  C_22
REMARK                            x       y       z     vdW  Elec       q    Type
REMARK                         _______ _______ _______ _____ _____    ______ ____
ROOT
ATOM      1  C   UNL     1       1.782   4.897  17.863  0.00  0.00    +0.000 C 
ATOM      2  C   UNL     1       3.100   5.540  18.203  0.00  0.00    +0.000 C 
ATOM      3  N   UNL     1       3.326   6.721  18.658  0.00  0.00    +0.000 NA
ATOM      4  N   UNL     1       4.207   4.694  17.979  0.00  0.00    +0.000 N 
ATOM      5  H   UNL     1       4.070   3.715  17.732  0.00  0.00    +0.000 HD
ENDROOT
BRANCH   4   6
ATOM      6  S   UNL     1       5.780   5.172  17.696  0.00  0.00    +0.000 S 
ATOM      7  O   UNL     1       5.750   6.618  17.772  0.00  0.00    +0.000 OA
ATOM      8  O   UNL     1       6.664   4.410  18.549  0.00  0.00    +0.000 OA
BRANCH   6   9
ATOM      9  C   UNL     1       6.078   4.733  16.004  0.00  0.00    +0.000 A 
ATOM     10  C   UNL     1       5.096   4.059  15.274  0.00  0.00    +0.000 A 
ATOM     11  C   UNL     1       5.330   3.743  13.935  0.00  0.00    +0.000 A 
ATOM     12  C   UNL     1       6.538   4.097  13.319  0.00  0.00    +0.000 A 
ATOM     13  C   UNL     1       6.817   3.739  11.890  0.00  0.00    +0.000 C 
ATOM     14  C   UNL     1       7.504   4.795  14.056  0.00  0.00    +0.000 A 
ATOM     15  C   UNL     1       7.268   5.130  15.389  0.00  0.00    +0.000 A 
ENDBRANCH   6   9
ENDBRANCH   4   6
BRANCH   3  16
ATOM     16  C   UNL     1       2.365   7.647  18.941  0.00  0.00    +0.000 C 
ATOM     17  N   UNL     1       2.057   8.567  18.090  0.00  0.00    +0.000 NA
BRANCH  17  18
ATOM     18  C   UNL     1       1.101   9.580  18.271  0.00  0.00    +0.000 A 
ATOM     19  C   UNL     1       1.558  10.819  18.734  0.00  0.00    +0.000 A 
ATOM     20  C   UNL     1       0.687  11.902  18.902  0.00  0.00    +0.000 A 
ATOM     21  C   UNL     1      -0.674  11.762  18.617  0.00  0.00    +0.000 A 
ATOM     22  C   UNL     1      -1.637  12.893  18.823  0.00  0.00    +0.000 C 
ATOM     23  C   UNL     1      -1.132  10.542  18.115  0.00  0.00    +0.000 A 
ATOM     24  C   UNL     1      -0.246   9.477  17.913  0.00  0.00    +0.000 A 
ENDBRANCH  17  18
BRANCH  16  25
ATOM     25  S   UNL     1       1.728   7.460  20.570  0.00  0.00    +0.000 S 
ATOM     26  H   UNL     1       1.534   6.142  20.488  0.00  0.00    +0.000 HD
ENDBRANCH  16  25
ENDBRANCH   3  16
TORSDOF 5
ENDMDL
MODEL 4
REMARK VINA RESULT:      -7.0      2.939      9.995
REMARK  Name = 
REMARK  8 active torsions:
REMARK  status: ('A' for Active; 'I' for Inactive)
REMARK    1  A    between atoms: C_1  and  C_2
REMARK    2  A    between atoms: N_3  and  C_4
REMARK    3  A    between atoms: C_4  and  S_5
REMARK    4  A    between atoms: N_6  and  C_7
REMARK    5  A    between atoms: C_10  and  C_11
REMARK    6  A    between atoms: N_14  and  S_15
REMARK    7  A    between atoms: S_15  and  C_18
REMARK    8  A    between atoms: C_21  and  C_22
REMARK                            x       y       z     vdW  Elec       q    Type
REMARK                         _______ _______ _______ _____ _____    ______ ____
ROOT
ATOM      1  C   UNL     1       1.063   9.276  17.956  0.00  0.00    +0.000 C 
ATOM      2  C   UNL     1       1.334   8.972  19.405  0.00  0.00    +0.000 C 
ATOM      3  N   UNL     1       1.975   7.982  19.914  0.00  0.00    +0.000 NA
ATOM      4  N   UNL     1       0.792   9.934  20.285  0.00  0.00    +0.000 N 
ATOM      5  H   UNL     1       0.379  10.792  19.925  0.00  0.00    +0.000 HD
ENDROOT
BRANCH   4   6
ATOM      6  S   UNL     1       0.389   9.697  21.887  0.00  0.00    +0.000 S 
ATOM      7  O   UNL     1      -0.540   8.585  21.878  0.00  0.00    +0.000 OA
ATOM      8  O   UNL     1       1.601   9.634  22.672  0.00  0.00    +0.000 OA
BRANCH   6   9
ATOM      9  C   UNL     1      -0.523  11.150  22.333  0.00  0.00    +0.000 A 
ATOM     10  C   UNL     1      -0.153  12.394  21.817  0.00  0.00    +0.000 A 
ATOM     11  C   UNL     1      -0.894  13.527  22.153  0.00  0.00    +0.000 A 
ATOM     12  C   UNL     1      -2.006  13.427  23.001  0.00  0.00    +0.000 A 
ATOM     13  C   UNL     1      -2.796  14.639  23.395  0.00  0.00    +0.000 C 
ATOM     14  C   UNL     1      -2.382  12.169  23.492  0.00  0.00    +0.000 A 
ATOM     15  C   UNL     1      -1.655  11.031  23.145  0.00  0.00    +0.000 A 
ENDBRANCH   6   9
ENDBRANCH   4   6
BRANCH   3  16
ATOM     16  C   UNL     1       2.569   6.984  19.198  0.00  0.00    +0.000 C 
ATOM     17  N   UNL     1       3.295   7.249  18.165  0.00  0.00    +0.000 NA
BRANCH  17  18
ATOM     18  C   UNL     1       3.942   6.313  17.342  0.00  0.00    +0.000 A 
ATOM     19  C   UNL     1       4.818   6.809  16.370  0.00  0.00    +0.000 A 
ATOM     20  C   UNL     1       5.543   5.952  15.533  0.00  0.00    +0.000 A 
ATOM     21  C   UNL     1       5.395   4.567  15.646  0.00  0.00    +0.000 A 
ATOM     22  C   UNL     1       6.128   3.625  14.739  0.00  0.00    +0.000 C 
ATOM     23  C   UNL     1       4.554   4.061  16.640  0.00  0.00    +0.000 A 
ATOM     24  C   UNL     1       3.864   4.926  17.498  0.00  0.00    +0.000 A 
ENDBRANCH  17  18
BRANCH  16  25
ATOM     25  S   UNL     1       2.138   5.390  19.804  0.00  0.00    +0.000 S 
ATOM     26  H   UNL     1       0.911   5.374  19.277  0.00  0.00    +0.000 HD
ENDBRANCH  16  25
ENDBRANCH   3  16
TORSDOF 5
ENDMDL
MODEL 5
REMARK VINA RESULT:      -7.0      1.915      2.376
REMARK  Name = 
REMARK  8 active torsions:
REMARK  status: ('A' for Active; 'I' for Inactive)
REMARK    1  A    between atoms: C_1  and  C_2
REMARK    2  A    between atoms: N_3  and  C_4
REMARK    3  A    between atoms: C_4  and  S_5
REMARK    4  A    between atoms: N_6  and  C_7
REMARK    5  A    between atoms: C_10  and  C_11
REMARK    6  A    between atoms: N_14  and  S_15
REMARK    7  A    between atoms: S_15  and  C_18
REMARK    8  A    between atoms: C_21  and  C_22
REMARK                            x       y       z     vdW  Elec       q    Type
REMARK                         _______ _______ _______ _____ _____    ______ ____
ROOT
ATOM      1  C   UNL     1       1.798   4.894  17.847  0.00  0.00    +0.000 C 
ATOM      2  C   UNL     1       3.114   5.540  18.189  0.00  0.00    +0.000 C 
ATOM      3  N   UNL     1       3.338   6.727  18.629  0.00  0.00    +0.000 NA
ATOM      4  N   UNL     1       4.221   4.689  17.984  0.00  0.00    +0.000 N 
ATOM      5  H   UNL     1       4.084   3.708  17.748  0.00  0.00    +0.000 HD
ENDROOT
BRANCH   4   6
ATOM      6  S   UNL     1       5.797   5.161  17.706  0.00  0.00    +0.000 S 
ATOM      7  O   UNL     1       5.780   6.605  17.822  0.00  0.00    +0.000 OA
ATOM      8  O   UNL     1       6.678   4.368  18.533  0.00  0.00    +0.000 OA
BRANCH   6   9
ATOM      9  C   UNL     1       6.082   4.767  16.001  0.00  0.00    +0.000 A 
ATOM     10  C   UNL     1       7.280   5.141  15.388  0.00  0.00    +0.000 A 
ATOM     11  C   UNL     1       7.505   4.802  14.053  0.00  0.00    +0.000 A 
ATOM     12  C   UNL     1       6.542   4.089  13.326  0.00  0.00    +0.000 A 
ATOM     13  C   UNL     1       6.756   3.742  11.883  0.00  0.00    +0.000 C 
ATOM     14  C   UNL     1       5.355   3.698  13.960  0.00  0.00    +0.000 A 
ATOM     15  C   UNL     1       5.133   4.019  15.299  0.00  0.00    +0.000 A 
ENDBRANCH   6   9
ENDBRANCH   4   6
BRANCH   3  16
ATOM     16  C   UNL     1       2.376   7.657  18.893  0.00  0.00    +0.000 C 
ATOM     17  N   UNL     1       2.079   8.569  18.030  0.00  0.00    +0.000 NA
BRANCH  17  18
ATOM     18  C   UNL     1       1.124   9.586  18.191  0.00  0.00    +0.000 A 
ATOM     19  C   UNL     1      -0.185   9.308  17.782  0.00  0.00    +0.000 A 
ATOM     20  C   UNL     1      -1.215  10.243  17.943  0.00  0.00    +0.000 A 
ATOM     21  C   UNL     1      -0.950  11.490  18.514  0.00  0.00    +0.000 A 
ATOM     22  C   UNL     1      -2.024  12.526  18.665  0.00  0.00    +0.000 C 
ATOM     23  C   UNL     1       0.345  11.761  18.963  0.00  0.00    +0.000 A 
ATOM     24  C   UNL     1       1.359  10.805  18.833  0.00  0.00    +0.000 A 
ENDBRANCH  17  18
BRANCH  16  25
ATOM     25  S   UNL     1       1.723   7.490  20.518  0.00  0.00    +0.000 S 
ATOM     26  H   UNL     1       0.860   8.503  20.420  0.00  0.00    +0.000 HD
ENDBRANCH  16  25
ENDBRANCH   3  16
TORSDOF 5
ENDMDL
MODEL 6
REMARK VINA RESULT:      -7.0      2.944      9.903
REMARK  Name = 
REMARK  8 active torsions:
REMARK  status: ('A' for Active; 'I' for Inactive)
REMARK    1  A    between atoms: C_1  and  C_2
REMARK    2  A    between atoms: N_3  and  C_4
REMARK    3  A    between atoms: C_4  and  S_5
REMARK    4  A    between atoms: N_6  and  C_7
REMARK    5  A    between atoms: C_10  and  C_11
REMARK    6  A    between atoms: N_14  and  S_15
REMARK    7  A    between atoms: S_15  and  C_18
REMARK    8  A    between atoms: C_21  and  C_22
REMARK                            x       y       z     vdW  Elec       q    Type
REMARK                         _______ _______ _______ _____ _____    ______ ____
ROOT
ATOM      1  C   UNL     1       1.426   9.344  17.826  0.00  0.00    +0.000 C 
ATOM      2  C   UNL     1       1.516   8.925  19.269  0.00  0.00    +0.000 C 
ATOM      3  N   UNL     1       2.031   7.857  19.766  0.00  0.00    +0.000 NA
ATOM      4  N   UNL     1       0.947   9.863  20.157  0.00  0.00    +0.000 N 
ATOM      5  H   UNL     1       0.633  10.771  19.821  0.00  0.00    +0.000 HD
ENDROOT
BRANCH   4   6
ATOM      6  S   UNL     1       0.355   9.548  21.686  0.00  0.00    +0.000 S 
ATOM      7  O   UNL     1      -0.431   8.341  21.541  0.00  0.00    +0.000 OA
ATOM      8  O   UNL     1       1.447   9.605  22.632  0.00  0.00    +0.000 OA
BRANCH   6   9
ATOM      9  C   UNL     1      -0.768  10.882  22.008  0.00  0.00    +0.000 A 
ATOM     10  C   UNL     1      -1.455  10.939  23.223  0.00  0.00    +0.000 A 
ATOM     11  C   UNL     1      -2.316  12.007  23.476  0.00  0.00    +0.000 A 
ATOM     12  C   UNL     1      -2.495  13.021  22.525  0.00  0.00    +0.000 A 
ATOM     13  C   UNL     1      -3.439  14.160  22.770  0.00  0.00    +0.000 C 
ATOM     14  C   UNL     1      -1.781  12.964  21.321  0.00  0.00    +0.000 A 
ATOM     15  C   UNL     1      -0.906  11.908  21.069  0.00  0.00    +0.000 A 
ENDBRANCH   6   9
ENDBRANCH   4   6
BRANCH   3  16
ATOM     16  C   UNL     1       2.631   6.869  19.044  0.00  0.00    +0.000 C 
ATOM     17  N   UNL     1       3.467   7.149  18.101  0.00  0.00    +0.000 NA
BRANCH  17  18
ATOM     18  C   UNL     1       4.135   6.225  17.281  0.00  0.00    +0.000 A 
ATOM     19  C   UNL     1       4.798   6.727  16.156  0.00  0.00    +0.000 A 
ATOM     20  C   UNL     1       5.528   5.889  15.304  0.00  0.00    +0.000 A 
ATOM     21  C   UNL     1       5.601   4.517  15.559  0.00  0.00    +0.000 A 
ATOM     22  C   UNL     1       6.344   3.589  14.644  0.00  0.00    +0.000 C 
ATOM     23  C   UNL     1       4.978   4.013  16.703  0.00  0.00    +0.000 A 
ATOM     24  C   UNL     1       4.283   4.865  17.570  0.00  0.00    +0.000 A 
ENDBRANCH  17  18
BRANCH  16  25
ATOM     25  S   UNL     1       2.052   5.271  19.500  0.00  0.00    +0.000 S 
ATOM     26  H   UNL     1       1.048   5.707  20.264  0.00  0.00    +0.000 HD
ENDBRANCH  16  25
ENDBRANCH   3  16
TORSDOF 5
ENDMDL
MODEL 7
REMARK VINA RESULT:      -6.9      2.680      3.167
REMARK  Name = 
REMARK  8 active torsions:
REMARK  status: ('A' for Active; 'I' for Inactive)
REMARK    1  A    between atoms: C_1  and  C_2
REMARK    2  A    between atoms: N_3  and  C_4
REMARK    3  A    between atoms: C_4  and  S_5
REMARK    4  A    between atoms: N_6  and  C_7
REMARK    5  A    between atoms: C_10  and  C_11
REMARK    6  A    between atoms: N_14  and  S_15
REMARK    7  A    between atoms: S_15  and  C_18
REMARK    8  A    between atoms: C_21  and  C_22
REMARK                            x       y       z     vdW  Elec       q    Type
REMARK                         _______ _______ _______ _____ _____    ______ ____
ROOT
ATOM      1  C   UNL     1       1.281   4.747  20.777  0.00  0.00    +0.000 C 
ATOM      2  C   UNL     1       2.304   4.993  19.700  0.00  0.00    +0.000 C 
ATOM      3  N   UNL     1       2.624   6.099  19.130  0.00  0.00    +0.000 NA
ATOM      4  N   UNL     1       2.980   3.820  19.297  0.00  0.00    +0.000 N 
ATOM      5  H   UNL     1       2.843   2.945  19.799  0.00  0.00    +0.000 HD
ENDROOT
BRANCH   4   6
ATOM      6  S   UNL     1       3.729   3.562  17.828  0.00  0.00    +0.000 S 
ATOM      7  O   UNL     1       4.401   2.288  17.971  0.00  0.00    +0.000 OA
ATOM      8  O   UNL     1       2.768   3.771  16.769  0.00  0.00    +0.000 OA
BRANCH   6   9
ATOM      9  C   UNL     1       4.978   4.818  17.743  0.00  0.00    +0.000 A 
ATOM     10  C   UNL     1       4.909   5.806  16.758  0.00  0.00    +0.000 A 
ATOM     11  C   UNL     1       5.883   6.805  16.716  0.00  0.00    +0.000 A 
ATOM     12  C   UNL     1       6.924   6.825  17.654  0.00  0.00    +0.000 A 
ATOM     13  C   UNL     1       7.994   7.875  17.606  0.00  0.00    +0.000 C 
ATOM     14  C   UNL     1       6.967   5.842  18.653  0.00  0.00    +0.000 A 
ATOM     15  C   UNL     1       5.987   4.852  18.709  0.00  0.00    +0.000 A 
ENDBRANCH   6   9
ENDBRANCH   4   6
BRANCH   3  16
ATOM     16  C   UNL     1       2.077   7.315  19.421  0.00  0.00    +0.000 C 
ATOM     17  N   UNL     1       1.501   7.530  20.555  0.00  0.00    +0.000 NA
BRANCH  17  18
ATOM     18  C   UNL     1       0.891   8.727  20.963  0.00  0.00    +0.000 A 
ATOM     19  C   UNL     1       0.524   8.835  22.309  0.00  0.00    +0.000 A 
ATOM     20  C   UNL     1      -0.049  10.007  22.819  0.00  0.00    +0.000 A 
ATOM     21  C   UNL     1      -0.278  11.100  21.980  0.00  0.00    +0.000 A 
ATOM     22  C   UNL     1      -0.925  12.354  22.489  0.00  0.00    +0.000 C 
ATOM     23  C   UNL     1       0.123  11.017  20.644  0.00  0.00    +0.000 A 
ATOM     24  C   UNL     1       0.731   9.856  20.154  0.00  0.00    +0.000 A 
ENDBRANCH  17  18
BRANCH  16  25
ATOM     25  S   UNL     1       2.187   8.429  18.064  0.00  0.00    +0.000 S 
ATOM     26  H   UNL     1       0.997   9.000  18.264  0.00  0.00    +0.000 HD
ENDBRANCH  16  25
ENDBRANCH   3  16
TORSDOF 5
ENDMDL
MODEL 8
REMARK VINA RESULT:      -6.9      1.603      2.073
REMARK  Name = 
REMARK  8 active torsions:
REMARK  status: ('A' for Active; 'I' for Inactive)
REMARK    1  A    between atoms: C_1  and  C_2
REMARK    2  A    between atoms: N_3  and  C_4
REMARK    3  A    between atoms: C_4  and  S_5
REMARK    4  A    between atoms: N_6  and  C_7
REMARK    5  A    between atoms: C_10  and  C_11
REMARK    6  A    between atoms: N_14  and  S_15
REMARK    7  A    between atoms: S_15  and  C_18
REMARK    8  A    between atoms: C_21  and  C_22
REMARK                            x       y       z     vdW  Elec       q    Type
REMARK                         _______ _______ _______ _____ _____    ______ ____
ROOT
ATOM      1  C   UNL     1       1.253   5.166  17.943  0.00  0.00    +0.000 C 
ATOM      2  C   UNL     1       2.533   5.372  18.709  0.00  0.00    +0.000 C 
ATOM      3  N   UNL     1       2.949   6.428  19.312  0.00  0.00    +0.000 NA
ATOM      4  N   UNL     1       3.351   4.222  18.745  0.00  0.00    +0.000 N 
ATOM      5  H   UNL     1       3.011   3.333  18.383  0.00  0.00    +0.000 HD
ENDROOT
BRANCH   4   6
ATOM      6  S   UNL     1       5.003   4.188  18.976  0.00  0.00    +0.000 S 
ATOM      7  O   UNL     1       5.305   5.406  19.699  0.00  0.00    +0.000 OA
ATOM      8  O   UNL     1       5.374   2.901  19.520  0.00  0.00    +0.000 OA
BRANCH   6   9
ATOM      9  C   UNL     1       5.681   4.352  17.347  0.00  0.00    +0.000 A 
ATOM     10  C   UNL     1       4.872   4.142  16.228  0.00  0.00    +0.000 A 
ATOM     11  C   UNL     1       5.409   4.300  14.950  0.00  0.00    +0.000 A 
ATOM     12  C   UNL     1       6.750   4.670  14.781  0.00  0.00    +0.000 A 
ATOM     13  C   UNL     1       7.351   4.816  13.415  0.00  0.00    +0.000 C 
ATOM     14  C   UNL     1       7.545   4.902  15.912  0.00  0.00    +0.000 A 
ATOM     15  C   UNL     1       7.008   4.762  17.191  0.00  0.00    +0.000 A 
ENDBRANCH   6   9
ENDBRANCH   4   6
BRANCH   3  16
ATOM     16  C   UNL     1       2.268   7.608  19.383  0.00  0.00    +0.000 C 
ATOM     17  N   UNL     1       1.555   7.903  20.417  0.00  0.00    +0.000 NA
BRANCH  17  18
ATOM     18  C   UNL     1       0.800   9.072  20.600  0.00  0.00    +0.000 A 
ATOM     19  C   UNL     1      -0.003   9.492  19.534  0.00  0.00    +0.000 A 
ATOM     20  C   UNL     1      -0.824  10.621  19.638  0.00  0.00    +0.000 A 
ATOM     21  C   UNL     1      -0.851  11.366  20.820  0.00  0.00    +0.000 A 
ATOM     22  C   UNL     1      -1.691  12.601  20.949  0.00  0.00    +0.000 C 
ATOM     23  C   UNL     1      -0.084  10.931  21.904  0.00  0.00    +0.000 A 
ATOM     24  C   UNL     1       0.704   9.778  21.803  0.00  0.00    +0.000 A 
ENDBRANCH  17  18
BRANCH  16  25
ATOM     25  S   UNL     1       2.425   8.551  17.906  0.00  0.00    +0.000 S 
ATOM     26  H   UNL     1       3.174   9.517  18.443  0.00  0.00    +0.000 HD
ENDBRANCH  16  25
ENDBRANCH   3  16
TORSDOF 5
ENDMDL
MODEL 9
REMARK VINA RESULT:      -6.9      2.153      2.556
REMARK  Name = 
REMARK  8 active torsions:
REMARK  status: ('A' for Active; 'I' for Inactive)
REMARK    1  A    between atoms: C_1  and  C_2
REMARK    2  A    between atoms: N_3  and  C_4
REMARK    3  A    between atoms: C_4  and  S_5
REMARK    4  A    between atoms: N_6  and  C_7
REMARK    5  A    between atoms: C_10  and  C_11
REMARK    6  A    between atoms: N_14  and  S_15
REMARK    7  A    between atoms: S_15  and  C_18
REMARK    8  A    between atoms: C_21  and  C_22
REMARK                            x       y       z     vdW  Elec       q    Type
REMARK                         _______ _______ _______ _____ _____    ______ ____
ROOT
ATOM      1  C   UNL     1       1.252   5.169  17.884  0.00  0.00    +0.000 C 
ATOM      2  C   UNL     1       2.520   5.383  18.667  0.00  0.00    +0.000 C 
ATOM      3  N   UNL     1       2.908   6.433  19.299  0.00  0.00    +0.000 NA
ATOM      4  N   UNL     1       3.362   4.250  18.681  0.00  0.00    +0.000 N 
ATOM      5  H   UNL     1       3.044   3.364  18.295  0.00  0.00    +0.000 HD
ENDROOT
BRANCH   4   6
ATOM      6  S   UNL     1       5.012   4.245  18.928  0.00  0.00    +0.000 S 
ATOM      7  O   UNL     1       5.288   5.477  19.638  0.00  0.00    +0.000 OA
ATOM      8  O   UNL     1       5.399   2.971  19.490  0.00  0.00    +0.000 OA
BRANCH   6   9
ATOM      9  C   UNL     1       5.702   4.401  17.302  0.00  0.00    +0.000 A 
ATOM     10  C   UNL     1       4.908   4.156  16.179  0.00  0.00    +0.000 A 
ATOM     11  C   UNL     1       5.453   4.308  14.904  0.00  0.00    +0.000 A 
ATOM     12  C   UNL     1       6.787   4.705  14.741  0.00  0.00    +0.000 A 
ATOM     13  C   UNL     1       7.397   4.844  13.379  0.00  0.00    +0.000 C 
ATOM     14  C   UNL     1       7.566   4.971  15.876  0.00  0.00    +0.000 A 
ATOM     15  C   UNL     1       7.021   4.838  17.152  0.00  0.00    +0.000 A 
ENDBRANCH   6   9
ENDBRANCH   4   6
BRANCH   3  16
ATOM     16  C   UNL     1       2.202   7.596  19.392  0.00  0.00    +0.000 C 
ATOM     17  N   UNL     1       2.163   8.430  18.409  0.00  0.00    +0.000 NA
BRANCH  17  18
ATOM     18  C   UNL     1       1.487   9.661  18.389  0.00  0.00    +0.000 A 
ATOM     19  C   UNL     1       0.093   9.626  18.265  0.00  0.00    +0.000 A 
ATOM     20  C   UNL     1      -0.671  10.799  18.282  0.00  0.00    +0.000 A 
ATOM     21  C   UNL     1      -0.048  12.043  18.413  0.00  0.00    +0.000 A 
ATOM     22  C   UNL     1      -0.837  13.319  18.396  0.00  0.00    +0.000 C 
ATOM     23  C   UNL     1       1.338  12.085  18.579  0.00  0.00    +0.000 A 
ATOM     24  C   UNL     1       2.089  10.904  18.602  0.00  0.00    +0.000 A 
ENDBRANCH  17  18
BRANCH  16  25
ATOM     25  S   UNL     1       1.486   7.808  20.986  0.00  0.00    +0.000 S 
ATOM     26  H   UNL     1       1.067   6.547  21.113  0.00  0.00    +0.000 HD
ENDBRANCH  16  25
ENDBRANCH   3  16
TORSDOF 5
ENDMDL
