MODEL 1
REMARK VINA RESULT:      -6.3      0.000      0.000
REMARK  Name = 
REMARK  11 active torsions:
REMARK  status: ('A' for Active; 'I' for Inactive)
REMARK    1  A    between atoms: C_1  and  O_2
REMARK    2  A    between atoms: O_2  and  C_3
REMARK    3  A    between atoms: C_3  and  C_5
REMARK    4  A    between atoms: C_5  and  C_6
REMARK    5  A    between atoms: C_6  and  C_7
REMARK    6  A    between atoms: C_7  and  C_8
REMARK    7  A    between atoms: C_8  and  C_9
REMARK    8  A    between atoms: C_9  and  C_10
REMARK    9  A    between atoms: C_10  and  C_11
REMARK   10  A    between atoms: C_11  and  C_12
REMARK   11  A    between atoms: N_14  and  C_15
REMARK                            x       y       z     vdW  Elec       q    Type
REMARK                         _______ _______ _______ _____ _____    ______ ____
ROOT
ATOM      1  C   UNL     1       1.782   4.116  20.479  0.00  0.00    +0.000 C 
ATOM      2  O   UNL     1       0.812   4.004  19.734  0.00  0.00    +0.000 OA
ATOM      3  N   UNL     1       2.489   5.287  20.699  0.00  0.00    +0.000 N 
ATOM      4  H   UNL     1       3.375   5.210  21.183  0.00  0.00    +0.000 HD
ENDROOT
BRANCH   3   5
ATOM      5  C   UNL     1       2.170   6.537  20.123  0.00  0.00    +0.000 A 
ATOM      6  C   UNL     1       2.520   6.881  18.813  0.00  0.00    +0.000 A 
ATOM      7  C   UNL     1       2.236   8.147  18.299  0.00  0.00    +0.000 A 
ATOM      8  C   UNL     1       1.587   9.091  19.088  0.00  0.00    +0.000 A 
ATOM      9 CL   UNL     1       1.293  10.648  18.403  0.00  0.00    +0.000 Cl
ATOM     10  C   UNL     1       1.206   8.753  20.393  0.00  0.00    +0.000 A 
ATOM     11 CL   UNL     1       0.413   9.879  21.439  0.00  0.00    +0.000 Cl
ATOM     12  C   UNL     1       1.479   7.474  20.901  0.00  0.00    +0.000 A 
ENDBRANCH   3   5
BRANCH   1  13
ATOM     13  C   UNL     1       2.332   2.919  21.238  0.00  0.00    +0.000 C 
BRANCH  13  14
ATOM     14  C   UNL     1       3.718   2.568  20.692  0.00  0.00    +0.000 C 
BRANCH  14  15
ATOM     15  C   UNL     1       3.733   2.312  19.190  0.00  0.00    +0.000 C 
BRANCH  15  16
ATOM     16  C   UNL     1       4.512   3.423  18.484  0.00  0.00    +0.000 C 
BRANCH  16  17
ATOM     17  C   UNL     1       3.868   3.823  17.158  0.00  0.00    +0.000 C 
BRANCH  17  18
ATOM     18  C   UNL     1       4.749   4.831  16.421  0.00  0.00    +0.000 C 
BRANCH  18  19
ATOM     19  C   UNL     1       5.815   5.438  17.330  0.00  0.00    +0.000 C 
BRANCH  19  20
ATOM     20  C   UNL     1       7.176   5.399  16.674  0.00  0.00    +0.000 C 
ATOM     21  O   UNL     1       7.733   4.392  16.261  0.00  0.00    +0.000 OA
BRANCH  20  23
ATOM     22  C   UNL     1       7.007   7.599  17.437  0.00  0.00    +0.000 C 
ATOM     23  O   UNL     1       7.694   6.657  16.611  0.00  0.00    +0.000 OA
ENDBRANCH  20  23
ENDBRANCH  19  20
ENDBRANCH  18  19
ENDBRANCH  17  18
ENDBRANCH  16  17
ENDBRANCH  15  16
ENDBRANCH  14  15
ENDBRANCH  13  14
ENDBRANCH   1  13
TORSDOF 10
ENDMDL
MODEL 2
REMARK VINA RESULT:      -6.3      4.741      7.014
REMARK  Name = 
REMARK  11 active torsions:
REMARK  status: ('A' for Active; 'I' for Inactive)
REMARK    1  A    between atoms: C_1  and  O_2
REMARK    2  A    between atoms: O_2  and  C_3
REMARK    3  A    between atoms: C_3  and  C_5
REMARK    4  A    between atoms: C_5  and  C_6
REMARK    5  A    between atoms: C_6  and  C_7
REMARK    6  A    between atoms: C_7  and  C_8
REMARK    7  A    between atoms: C_8  and  C_9
REMARK    8  A    between atoms: C_9  and  C_10
REMARK    9  A    between atoms: C_10  and  C_11
REMARK   10  A    between atoms: C_11  and  C_12
REMARK   11  A    between atoms: N_14  and  C_15
REMARK                            x       y       z     vdW  Elec       q    Type
REMARK                         _______ _______ _______ _____ _____    ______ ____
ROOT
ATOM      1  C   UNL     1       6.973   5.759  18.939  0.00  0.00    +0.000 C 
ATOM      2  O   UNL     1       7.094   5.024  19.916  0.00  0.00    +0.000 OA
ATOM      3  N   UNL     1       5.887   5.767  18.077  0.00  0.00    +0.000 N 
ATOM      4  H   UNL     1       5.988   6.279  17.209  0.00  0.00    +0.000 HD
ENDROOT
BRANCH   3   5
ATOM      5  C   UNL     1       4.741   4.954  18.222  0.00  0.00    +0.000 A 
ATOM      6  C   UNL     1       4.482   3.852  17.401  0.00  0.00    +0.000 A 
ATOM      7  C   UNL     1       3.310   3.108  17.540  0.00  0.00    +0.000 A 
ATOM      8  C   UNL     1       2.378   3.449  18.514  0.00  0.00    +0.000 A 
ATOM      9 CL   UNL     1       0.935   2.506  18.613  0.00  0.00    +0.000 Cl
ATOM     10  C   UNL     1       2.635   4.533  19.363  0.00  0.00    +0.000 A 
ATOM     11 CL   UNL     1       1.516   5.029  20.584  0.00  0.00    +0.000 Cl
ATOM     12  C   UNL     1       3.822   5.270  19.230  0.00  0.00    +0.000 A 
ENDBRANCH   3   5
BRANCH   1  13
ATOM     13  C   UNL     1       8.063   6.746  18.558  0.00  0.00    +0.000 C 
BRANCH  13  14
ATOM     14  C   UNL     1       7.565   7.632  17.413  0.00  0.00    +0.000 C 
BRANCH  14  15
ATOM     15  C   UNL     1       7.725   9.123  17.685  0.00  0.00    +0.000 C 
BRANCH  15  16
ATOM     16  C   UNL     1       8.887   9.350  18.655  0.00  0.00    +0.000 C 
BRANCH  16  17
ATOM     17  C   UNL     1       9.398  10.789  18.613  0.00  0.00    +0.000 C 
BRANCH  17  18
ATOM     18  C   UNL     1       9.418  11.389  20.018  0.00  0.00    +0.000 C 
BRANCH  18  19
ATOM     19  C   UNL     1      10.815  11.846  20.429  0.00  0.00    +0.000 C 
BRANCH  19  20
ATOM     20  C   UNL     1      11.415  12.764  19.390  0.00  0.00    +0.000 C 
ATOM     21  O   UNL     1      12.313  12.465  18.616  0.00  0.00    +0.000 OA
BRANCH  20  23
ATOM     22  C   UNL     1      10.937  14.633  20.706  0.00  0.00    +0.000 C 
ATOM     23  O   UNL     1      10.805  13.981  19.442  0.00  0.00    +0.000 OA
ENDBRANCH  20  23
ENDBRANCH  19  20
ENDBRANCH  18  19
ENDBRANCH  17  18
ENDBRANCH  16  17
ENDBRANCH  15  16
ENDBRANCH  14  15
ENDBRANCH  13  14
ENDBRANCH   1  13
TORSDOF 10
ENDMDL
MODEL 3
REMARK VINA RESULT:      -6.2      3.346      5.335
REMARK  Name = 
REMARK  11 active torsions:
REMARK  status: ('A' for Active; 'I' for Inactive)
REMARK    1  A    between atoms: C_1  and  O_2
REMARK    2  A    between atoms: O_2  and  C_3
REMARK    3  A    between atoms: C_3  and  C_5
REMARK    4  A    between atoms: C_5  and  C_6
REMARK    5  A    between atoms: C_6  and  C_7
REMARK    6  A    between atoms: C_7  and  C_8
REMARK    7  A    between atoms: C_8  and  C_9
REMARK    8  A    between atoms: C_9  and  C_10
REMARK    9  A    between atoms: C_10  and  C_11
REMARK   10  A    between atoms: C_11  and  C_12
REMARK   11  A    between atoms: N_14  and  C_15
REMARK                            x       y       z     vdW  Elec       q    Type
REMARK                         _______ _______ _______ _____ _____    ______ ____
ROOT
ATOM      1  C   UNL     1       2.646   3.442  17.606  0.00  0.00    +0.000 C 
ATOM      2  O   UNL     1       1.991   4.470  17.453  0.00  0.00    +0.000 OA
ATOM      3  N   UNL     1       4.029   3.380  17.676  0.00  0.00    +0.000 N 
ATOM      4  H   UNL     1       4.457   2.464  17.614  0.00  0.00    +0.000 HD
ENDROOT
BRANCH   3   5
ATOM      5  C   UNL     1       4.886   4.503  17.618  0.00  0.00    +0.000 A 
ATOM      6  C   UNL     1       4.791   5.481  16.623  0.00  0.00    +0.000 A 
ATOM      7  C   UNL     1       5.693   6.544  16.568  0.00  0.00    +0.000 A 
ATOM      8  C   UNL     1       6.704   6.652  17.517  0.00  0.00    +0.000 A 
ATOM      9 CL   UNL     1       7.805   7.973  17.374  0.00  0.00    +0.000 Cl
ATOM     10  C   UNL     1       6.796   5.695  18.536  0.00  0.00    +0.000 A 
ATOM     11 CL   UNL     1       8.036   5.752  19.739  0.00  0.00    +0.000 Cl
ATOM     12  C   UNL     1       5.878   4.635  18.597  0.00  0.00    +0.000 A 
ENDBRANCH   3   5
BRANCH   1  13
ATOM     13  C   UNL     1       1.969   2.086  17.710  0.00  0.00    +0.000 C 
BRANCH  13  14
ATOM     14  C   UNL     1       1.647   1.791  19.177  0.00  0.00    +0.000 C 
BRANCH  14  15
ATOM     15  C   UNL     1       0.939   2.939  19.886  0.00  0.00    +0.000 C 
BRANCH  15  16
ATOM     16  C   UNL     1       1.613   3.209  21.233  0.00  0.00    +0.000 C 
BRANCH  16  17
ATOM     17  C   UNL     1       2.429   4.500  21.220  0.00  0.00    +0.000 C 
BRANCH  17  18
ATOM     18  C   UNL     1       1.567   5.670  20.746  0.00  0.00    +0.000 C 
BRANCH  18  19
ATOM     19  C   UNL     1       2.366   6.678  19.925  0.00  0.00    +0.000 C 
BRANCH  19  20
ATOM     20  C   UNL     1       1.792   8.069  20.063  0.00  0.00    +0.000 C 
ATOM     21  O   UNL     1       1.527   8.623  21.120  0.00  0.00    +0.000 OA
BRANCH  20  23
ATOM     22  C   UNL     1       2.576   8.185  17.866  0.00  0.00    +0.000 C 
ATOM     23  O   UNL     1       1.614   8.619  18.829  0.00  0.00    +0.000 OA
ENDBRANCH  20  23
ENDBRANCH  19  20
ENDBRANCH  18  19
ENDBRANCH  17  18
ENDBRANCH  16  17
ENDBRANCH  15  16
ENDBRANCH  14  15
ENDBRANCH  13  14
ENDBRANCH   1  13
TORSDOF 10
ENDMDL
MODEL 4
REMARK VINA RESULT:      -6.1      1.067      1.352
REMARK  Name = 
REMARK  11 active torsions:
REMARK  status: ('A' for Active; 'I' for Inactive)
REMARK    1  A    between atoms: C_1  and  O_2
REMARK    2  A    between atoms: O_2  and  C_3
REMARK    3  A    between atoms: C_3  and  C_5
REMARK    4  A    between atoms: C_5  and  C_6
REMARK    5  A    between atoms: C_6  and  C_7
REMARK    6  A    between atoms: C_7  and  C_8
REMARK    7  A    between atoms: C_8  and  C_9
REMARK    8  A    between atoms: C_9  and  C_10
REMARK    9  A    between atoms: C_10  and  C_11
REMARK   10  A    between atoms: C_11  and  C_12
REMARK   11  A    between atoms: N_14  and  C_15
REMARK                            x       y       z     vdW  Elec       q    Type
REMARK                         _______ _______ _______ _____ _____    ______ ____
ROOT
ATOM      1  C   UNL     1       2.342   4.872  19.908  0.00  0.00    +0.000 C 
ATOM      2  O   UNL     1       1.195   4.619  19.547  0.00  0.00    +0.000 OA
ATOM      3  N   UNL     1       2.906   6.137  19.949  0.00  0.00    +0.000 N 
ATOM      4  H   UNL     1       3.909   6.195  20.082  0.00  0.00    +0.000 HD
ENDROOT
BRANCH   3   5
ATOM      5  C   UNL     1       2.226   7.330  19.616  0.00  0.00    +0.000 A 
ATOM      6  C   UNL     1       2.245   7.882  18.331  0.00  0.00    +0.000 A 
ATOM      7  C   UNL     1       1.606   9.092  18.057  0.00  0.00    +0.000 A 
ATOM      8  C   UNL     1       0.927   9.768  19.065  0.00  0.00    +0.000 A 
ATOM      9 CL   UNL     1       0.185  11.274  18.666  0.00  0.00    +0.000 Cl
ATOM     10  C   UNL     1       0.875   9.214  20.351  0.00  0.00    +0.000 A 
ATOM     11 CL   UNL     1       0.066  10.004  21.659  0.00  0.00    +0.000 Cl
ATOM     12  C   UNL     1       1.506   7.990  20.620  0.00  0.00    +0.000 A 
ENDBRANCH   3   5
BRANCH   1  13
ATOM     13  C   UNL     1       3.294   3.766  20.333  0.00  0.00    +0.000 C 
BRANCH  13  14
ATOM     14  C   UNL     1       4.474   3.711  19.359  0.00  0.00    +0.000 C 
BRANCH  14  15
ATOM     15  C   UNL     1       4.169   2.944  18.078  0.00  0.00    +0.000 C 
BRANCH  15  16
ATOM     16  C   UNL     1       3.640   3.906  17.013  0.00  0.00    +0.000 C 
BRANCH  16  17
ATOM     17  C   UNL     1       4.767   4.648  16.297  0.00  0.00    +0.000 C 
BRANCH  17  18
ATOM     18  C   UNL     1       4.722   6.138  16.632  0.00  0.00    +0.000 C 
BRANCH  18  19
ATOM     19  C   UNL     1       6.032   6.631  17.241  0.00  0.00    +0.000 C 
BRANCH  19  20
ATOM     20  C   UNL     1       7.210   5.859  16.696  0.00  0.00    +0.000 C 
ATOM     21  O   UNL     1       7.635   5.930  15.551  0.00  0.00    +0.000 OA
BRANCH  20  23
ATOM     22  C   UNL     1       7.597   5.615  18.986  0.00  0.00    +0.000 C 
ATOM     23  O   UNL     1       7.735   5.067  17.673  0.00  0.00    +0.000 OA
ENDBRANCH  20  23
ENDBRANCH  19  20
ENDBRANCH  18  19
ENDBRANCH  17  18
ENDBRANCH  16  17
ENDBRANCH  15  16
ENDBRANCH  14  15
ENDBRANCH  13  14
ENDBRANCH   1  13
TORSDOF 10
ENDMDL
MODEL 5
REMARK VINA RESULT:      -6.1      1.077      1.478
REMARK  Name = 
REMARK  11 active torsions:
REMARK  status: ('A' for Active; 'I' for Inactive)
REMARK    1  A    between atoms: C_1  and  O_2
REMARK    2  A    between atoms: O_2  and  C_3
REMARK    3  A    between atoms: C_3  and  C_5
REMARK    4  A    between atoms: C_5  and  C_6
REMARK    5  A    between atoms: C_6  and  C_7
REMARK    6  A    between atoms: C_7  and  C_8
REMARK    7  A    between atoms: C_8  and  C_9
REMARK    8  A    between atoms: C_9  and  C_10
REMARK    9  A    between atoms: C_10  and  C_11
REMARK   10  A    between atoms: C_11  and  C_12
REMARK   11  A    between atoms: N_14  and  C_15
REMARK                            x       y       z     vdW  Elec       q    Type
REMARK                         _______ _______ _______ _____ _____    ______ ____
ROOT
ATOM      1  C   UNL     1       1.861   4.959  20.583  0.00  0.00    +0.000 C 
ATOM      2  O   UNL     1       0.650   4.860  20.405  0.00  0.00    +0.000 OA
ATOM      3  N   UNL     1       2.609   6.106  20.366  0.00  0.00    +0.000 N 
ATOM      4  H   UNL     1       3.618   6.010  20.367  0.00  0.00    +0.000 HD
ENDROOT
BRANCH   3   5
ATOM      5  C   UNL     1       2.075   7.343  19.941  0.00  0.00    +0.000 A 
ATOM      6  C   UNL     1       2.225   7.828  18.637  0.00  0.00    +0.000 A 
ATOM      7  C   UNL     1       1.731   9.081  18.273  0.00  0.00    +0.000 A 
ATOM      8  C   UNL     1       1.069   9.870  19.208  0.00  0.00    +0.000 A 
ATOM      9 CL   UNL     1       0.510  11.422  18.700  0.00  0.00    +0.000 Cl
ATOM     10  C   UNL     1       0.886   9.386  20.509  0.00  0.00    +0.000 A 
ATOM     11 CL   UNL     1       0.089  10.316  21.730  0.00  0.00    +0.000 Cl
ATOM     12  C   UNL     1       1.371   8.120  20.869  0.00  0.00    +0.000 A 
ENDBRANCH   3   5
BRANCH   1  13
ATOM     13  C   UNL     1       2.686   3.773  21.053  0.00  0.00    +0.000 C 
BRANCH  13  14
ATOM     14  C   UNL     1       2.710   2.707  19.955  0.00  0.00    +0.000 C 
BRANCH  14  15
ATOM     15  C   UNL     1       4.098   2.462  19.375  0.00  0.00    +0.000 C 
BRANCH  15  16
ATOM     16  C   UNL     1       4.062   2.641  17.856  0.00  0.00    +0.000 C 
BRANCH  16  17
ATOM     17  C   UNL     1       3.251   3.867  17.441  0.00  0.00    +0.000 C 
BRANCH  17  18
ATOM     18  C   UNL     1       4.176   5.058  17.193  0.00  0.00    +0.000 C 
BRANCH  18  19
ATOM     19  C   UNL     1       5.580   4.622  16.783  0.00  0.00    +0.000 C 
BRANCH  19  20
ATOM     20  C   UNL     1       6.386   5.793  16.270  0.00  0.00    +0.000 C 
ATOM     21  O   UNL     1       6.278   6.949  16.654  0.00  0.00    +0.000 OA
BRANCH  20  23
ATOM     22  C   UNL     1       6.681   4.439  14.390  0.00  0.00    +0.000 C 
ATOM     23  O   UNL     1       7.256   5.369  15.310  0.00  0.00    +0.000 OA
ENDBRANCH  20  23
ENDBRANCH  19  20
ENDBRANCH  18  19
ENDBRANCH  17  18
ENDBRANCH  16  17
ENDBRANCH  15  16
ENDBRANCH  14  15
ENDBRANCH  13  14
ENDBRANCH   1  13
TORSDOF 10
ENDMDL
MODEL 6
REMARK VINA RESULT:      -5.9      4.699      6.977
REMARK  Name = 
REMARK  11 active torsions:
REMARK  status: ('A' for Active; 'I' for Inactive)
REMARK    1  A    between atoms: C_1  and  O_2
REMARK    2  A    between atoms: O_2  and  C_3
REMARK    3  A    between atoms: C_3  and  C_5
REMARK    4  A    between atoms: C_5  and  C_6
REMARK    5  A    between atoms: C_6  and  C_7
REMARK    6  A    between atoms: C_7  and  C_8
REMARK    7  A    between atoms: C_8  and  C_9
REMARK    8  A    between atoms: C_9  and  C_10
REMARK    9  A    between atoms: C_10  and  C_11
REMARK   10  A    between atoms: C_11  and  C_12
REMARK   11  A    between atoms: N_14  and  C_15
REMARK                            x       y       z     vdW  Elec       q    Type
REMARK                         _______ _______ _______ _____ _____    ______ ____
ROOT
ATOM      1  C   UNL     1       6.827   5.419  18.568  0.00  0.00    +0.000 C 
ATOM      2  O   UNL     1       7.185   4.246  18.500  0.00  0.00    +0.000 OA
ATOM      3  N   UNL     1       5.510   5.851  18.604  0.00  0.00    +0.000 N 
ATOM      4  H   UNL     1       5.343   6.841  18.470  0.00  0.00    +0.000 HD
ENDROOT
BRANCH   3   5
ATOM      5  C   UNL     1       4.385   4.996  18.606  0.00  0.00    +0.000 A 
ATOM      6  C   UNL     1       3.736   4.592  17.434  0.00  0.00    +0.000 A 
ATOM      7  C   UNL     1       2.594   3.792  17.482  0.00  0.00    +0.000 A 
ATOM      8  C   UNL     1       2.084   3.374  18.707  0.00  0.00    +0.000 A 
ATOM      9 CL   UNL     1       0.651   2.413  18.697  0.00  0.00    +0.000 Cl
ATOM     10  C   UNL     1       2.739   3.748  19.888  0.00  0.00    +0.000 A 
ATOM     11 CL   UNL     1       2.155   3.282  21.447  0.00  0.00    +0.000 Cl
ATOM     12  C   UNL     1       3.896   4.540  19.836  0.00  0.00    +0.000 A 
ENDBRANCH   3   5
BRANCH   1  13
ATOM     13  C   UNL     1       7.841   6.551  18.592  0.00  0.00    +0.000 C 
BRANCH  13  14
ATOM     14  C   UNL     1       7.612   7.462  17.384  0.00  0.00    +0.000 C 
BRANCH  14  15
ATOM     15  C   UNL     1       7.405   8.925  17.757  0.00  0.00    +0.000 C 
BRANCH  15  16
ATOM     16  C   UNL     1       8.759   9.632  17.844  0.00  0.00    +0.000 C 
BRANCH  16  17
ATOM     17  C   UNL     1       9.111  10.024  19.278  0.00  0.00    +0.000 C 
BRANCH  17  18
ATOM     18  C   UNL     1      10.212  11.083  19.286  0.00  0.00    +0.000 C 
BRANCH  18  19
ATOM     19  C   UNL     1       9.663  12.482  19.552  0.00  0.00    +0.000 C 
BRANCH  19  20
ATOM     20  C   UNL     1      10.243  13.487  18.584  0.00  0.00    +0.000 C 
ATOM     21  O   UNL     1      10.130  13.444  17.367  0.00  0.00    +0.000 OA
BRANCH  20  23
ATOM     22  C   UNL     1      12.313  14.202  19.394  0.00  0.00    +0.000 C 
ATOM     23  O   UNL     1      10.913  14.455  19.270  0.00  0.00    +0.000 OA
ENDBRANCH  20  23
ENDBRANCH  19  20
ENDBRANCH  18  19
ENDBRANCH  17  18
ENDBRANCH  16  17
ENDBRANCH  15  16
ENDBRANCH  14  15
ENDBRANCH  13  14
ENDBRANCH   1  13
TORSDOF 10
ENDMDL
MODEL 7
REMARK VINA RESULT:      -5.8      5.212      8.010
REMARK  Name = 
REMARK  11 active torsions:
REMARK  status: ('A' for Active; 'I' for Inactive)
REMARK    1  A    between atoms: C_1  and  O_2
REMARK    2  A    between atoms: O_2  and  C_3
REMARK    3  A    between atoms: C_3  and  C_5
REMARK    4  A    between atoms: C_5  and  C_6
REMARK    5  A    between atoms: C_6  and  C_7
REMARK    6  A    between atoms: C_7  and  C_8
REMARK    7  A    between atoms: C_8  and  C_9
REMARK    8  A    between atoms: C_9  and  C_10
REMARK    9  A    between atoms: C_10  and  C_11
REMARK   10  A    between atoms: C_11  and  C_12
REMARK   11  A    between atoms: N_14  and  C_15
REMARK                            x       y       z     vdW  Elec       q    Type
REMARK                         _______ _______ _______ _____ _____    ______ ____
ROOT
ATOM      1  C   UNL     1       7.483   7.433  17.728  0.00  0.00    +0.000 C 
ATOM      2  O   UNL     1       7.954   6.599  18.497  0.00  0.00    +0.000 OA
ATOM      3  N   UNL     1       6.305   7.285  17.013  0.00  0.00    +0.000 N 
ATOM      4  H   UNL     1       6.122   7.954  16.275  0.00  0.00    +0.000 HD
ENDROOT
BRANCH   3   5
ATOM      5  C   UNL     1       5.452   6.161  17.096  0.00  0.00    +0.000 A 
ATOM      6  C   UNL     1       5.607   5.028  16.291  0.00  0.00    +0.000 A 
ATOM      7  C   UNL     1       4.709   3.963  16.365  0.00  0.00    +0.000 A 
ATOM      8  C   UNL     1       3.642   4.009  17.256  0.00  0.00    +0.000 A 
ATOM      9 CL   UNL     1       2.551   2.672  17.275  0.00  0.00    +0.000 Cl
ATOM     10  C   UNL     1       3.489   5.125  18.089  0.00  0.00    +0.000 A 
ATOM     11 CL   UNL     1       2.178   5.263  19.208  0.00  0.00    +0.000 Cl
ATOM     12  C   UNL     1       4.402   6.188  18.022  0.00  0.00    +0.000 A 
ENDBRANCH   3   5
BRANCH   1  13
ATOM     13  C   UNL     1       8.198   8.747  17.460  0.00  0.00    +0.000 C 
BRANCH  13  14
ATOM     14  C   UNL     1       8.723   9.316  18.780  0.00  0.00    +0.000 C 
BRANCH  14  15
ATOM     15  C   UNL     1       9.337  10.704  18.643  0.00  0.00    +0.000 C 
BRANCH  15  16
ATOM     16  C   UNL     1       9.905  11.153  19.991  0.00  0.00    +0.000 C 
BRANCH  16  17
ATOM     17  C   UNL     1      11.257  11.848  19.842  0.00  0.00    +0.000 C 
BRANCH  17  18
ATOM     18  C   UNL     1      11.212  12.864  18.701  0.00  0.00    +0.000 C 
BRANCH  18  19
ATOM     19  C   UNL     1      10.845  14.263  19.190  0.00  0.00    +0.000 C 
BRANCH  19  20
ATOM     20  C   UNL     1       9.653  14.806  18.437  0.00  0.00    +0.000 C 
ATOM     21  O   UNL     1       9.691  15.695  17.598  0.00  0.00    +0.000 OA
BRANCH  20  23
ATOM     22  C   UNL     1       7.485  14.168  17.851  0.00  0.00    +0.000 C 
ATOM     23  O   UNL     1       8.522  14.157  18.833  0.00  0.00    +0.000 OA
ENDBRANCH  20  23
ENDBRANCH  19  20
ENDBRANCH  18  19
ENDBRANCH  17  18
ENDBRANCH  16  17
ENDBRANCH  15  16
ENDBRANCH  14  15
ENDBRANCH  13  14
ENDBRANCH   1  13
TORSDOF 10
ENDMDL
MODEL 8
REMARK VINA RESULT:      -5.8      1.258      1.951
REMARK  Name = 
REMARK  11 active torsions:
REMARK  status: ('A' for Active; 'I' for Inactive)
REMARK    1  A    between atoms: C_1  and  O_2
REMARK    2  A    between atoms: O_2  and  C_3
REMARK    3  A    between atoms: C_3  and  C_5
REMARK    4  A    between atoms: C_5  and  C_6
REMARK    5  A    between atoms: C_6  and  C_7
REMARK    6  A    between atoms: C_7  and  C_8
REMARK    7  A    between atoms: C_8  and  C_9
REMARK    8  A    between atoms: C_9  and  C_10
REMARK    9  A    between atoms: C_10  and  C_11
REMARK   10  A    between atoms: C_11  and  C_12
REMARK   11  A    between atoms: N_14  and  C_15
REMARK                            x       y       z     vdW  Elec       q    Type
REMARK                         _______ _______ _______ _____ _____    ______ ____
ROOT
ATOM      1  C   UNL     1       1.957   4.904  20.371  0.00  0.00    +0.000 C 
ATOM      2  O   UNL     1       1.382   4.813  19.289  0.00  0.00    +0.000 OA
ATOM      3  N   UNL     1       2.098   6.071  21.105  0.00  0.00    +0.000 N 
ATOM      4  H   UNL     1       2.749   6.056  21.880  0.00  0.00    +0.000 HD
ENDROOT
BRANCH   3   5
ATOM      5  C   UNL     1       1.565   7.325  20.728  0.00  0.00    +0.000 A 
ATOM      6  C   UNL     1       0.598   7.996  21.483  0.00  0.00    +0.000 A 
ATOM      7  C   UNL     1       0.056   9.206  21.048  0.00  0.00    +0.000 A 
ATOM      8  C   UNL     1       0.480   9.771  19.850  0.00  0.00    +0.000 A 
ATOM      9 CL   UNL     1      -0.253  11.253  19.354  0.00  0.00    +0.000 Cl
ATOM     10  C   UNL     1       1.468   9.124  19.096  0.00  0.00    +0.000 A 
ATOM     11 CL   UNL     1       2.033   9.755  17.589  0.00  0.00    +0.000 Cl
ATOM     12  C   UNL     1       2.022   7.915  19.544  0.00  0.00    +0.000 A 
ENDBRANCH   3   5
BRANCH   1  13
ATOM     13  C   UNL     1       2.616   3.695  21.014  0.00  0.00    +0.000 C 
BRANCH  13  14
ATOM     14  C   UNL     1       2.666   2.548  20.002  0.00  0.00    +0.000 C 
BRANCH  14  15
ATOM     15  C   UNL     1       3.932   2.542  19.153  0.00  0.00    +0.000 C 
BRANCH  15  16
ATOM     16  C   UNL     1       3.558   2.587  17.670  0.00  0.00    +0.000 C 
BRANCH  16  17
ATOM     17  C   UNL     1       4.165   3.797  16.961  0.00  0.00    +0.000 C 
BRANCH  17  18
ATOM     18  C   UNL     1       4.935   4.666  17.954  0.00  0.00    +0.000 C 
BRANCH  18  19
ATOM     19  C   UNL     1       4.836   6.151  17.617  0.00  0.00    +0.000 C 
BRANCH  19  20
ATOM     20  C   UNL     1       5.633   6.481  16.376  0.00  0.00    +0.000 C 
ATOM     21  O   UNL     1       5.159   6.785  15.291  0.00  0.00    +0.000 OA
BRANCH  20  23
ATOM     22  C   UNL     1       7.446   7.431  17.501  0.00  0.00    +0.000 C 
ATOM     23  O   UNL     1       6.966   6.392  16.647  0.00  0.00    +0.000 OA
ENDBRANCH  20  23
ENDBRANCH  19  20
ENDBRANCH  18  19
ENDBRANCH  17  18
ENDBRANCH  16  17
ENDBRANCH  15  16
ENDBRANCH  14  15
ENDBRANCH  13  14
ENDBRANCH   1  13
TORSDOF 10
ENDMDL
MODEL 9
REMARK VINA RESULT:      -5.8      1.096      1.479
REMARK  Name = 
REMARK  11 active torsions:
REMARK  status: ('A' for Active; 'I' for Inactive)
REMARK    1  A    between atoms: C_1  and  O_2
REMARK    2  A    between atoms: O_2  and  C_3
REMARK    3  A    between atoms: C_3  and  C_5
REMARK    4  A    between atoms: C_5  and  C_6
REMARK    5  A    between atoms: C_6  and  C_7
REMARK    6  A    between atoms: C_7  and  C_8
REMARK    7  A    between atoms: C_8  and  C_9
REMARK    8  A    between atoms: C_9  and  C_10
REMARK    9  A    between atoms: C_10  and  C_11
REMARK   10  A    between atoms: C_11  and  C_12
REMARK   11  A    between atoms: N_14  and  C_15
REMARK                            x       y       z     vdW  Elec       q    Type
REMARK                         _______ _______ _______ _____ _____    ______ ____
ROOT
ATOM      1  C   UNL     1       1.958   4.709  20.143  0.00  0.00    +0.000 C 
ATOM      2  O   UNL     1       1.355   4.572  19.082  0.00  0.00    +0.000 OA
ATOM      3  N   UNL     1       2.273   5.925  20.730  0.00  0.00    +0.000 N 
ATOM      4  H   UNL     1       2.932   5.912  21.500  0.00  0.00    +0.000 HD
ENDROOT
BRANCH   3   5
ATOM      5  C   UNL     1       1.910   7.187  20.207  0.00  0.00    +0.000 A 
ATOM      6  C   UNL     1       2.273   7.610  18.925  0.00  0.00    +0.000 A 
ATOM      7  C   UNL     1       1.943   8.886  18.467  0.00  0.00    +0.000 A 
ATOM      8  C   UNL     1       1.234   9.760  19.284  0.00  0.00    +0.000 A 
ATOM      9 CL   UNL     1       0.885  11.334  18.668  0.00  0.00    +0.000 Cl
ATOM     10  C   UNL     1       0.839   9.340  20.561  0.00  0.00    +0.000 A 
ATOM     11 CL   UNL     1      -0.029  10.376  21.640  0.00  0.00    +0.000 Cl
ATOM     12  C   UNL     1       1.160   8.051  21.013  0.00  0.00    +0.000 A 
ENDBRANCH   3   5
BRANCH   1  13
ATOM     13  C   UNL     1       2.457   3.506  20.925  0.00  0.00    +0.000 C 
BRANCH  13  14
ATOM     14  C   UNL     1       3.205   2.563  19.980  0.00  0.00    +0.000 C 
BRANCH  14  15
ATOM     15  C   UNL     1       4.706   2.820  19.926  0.00  0.00    +0.000 C 
BRANCH  15  16
ATOM     16  C   UNL     1       5.026   3.771  18.771  0.00  0.00    +0.000 C 
BRANCH  16  17
ATOM     17  C   UNL     1       5.412   5.164  19.265  0.00  0.00    +0.000 C 
BRANCH  17  18
ATOM     18  C   UNL     1       6.931   5.329  19.262  0.00  0.00    +0.000 C 
BRANCH  18  19
ATOM     19  C   UNL     1       7.395   6.374  18.251  0.00  0.00    +0.000 C 
BRANCH  19  20
ATOM     20  C   UNL     1       7.130   5.917  16.835  0.00  0.00    +0.000 C 
ATOM     21  O   UNL     1       7.652   4.953  16.294  0.00  0.00    +0.000 OA
BRANCH  20  23
ATOM     22  C   UNL     1       5.202   6.045  15.524  0.00  0.00    +0.000 C 
ATOM     23  O   UNL     1       6.218   6.742  16.248  0.00  0.00    +0.000 OA
ENDBRANCH  20  23
ENDBRANCH  19  20
ENDBRANCH  18  19
ENDBRANCH  17  18
ENDBRANCH  16  17
ENDBRANCH  15  16
ENDBRANCH  14  15
ENDBRANCH  13  14
ENDBRANCH   1  13
TORSDOF 10
ENDMDL
