MODEL 1
REMARK VINA RESULT:      -8.3      0.000      0.000
REMARK  Name = 
REMARK  10 active torsions:
REMARK  status: ('A' for Active; 'I' for Inactive)
REMARK    1  A    between atoms: C_1  and  C_2
REMARK    2  A    between atoms: C_2  and  C_3
REMARK    3  A    between atoms: C_2  and  C_4
REMARK    4  A    between atoms: C_2  and  C_5
REMARK    5  A    between atoms: C_5  and  N_6
REMARK    6  A    between atoms: C_7  and  C_9
REMARK    7  A    between atoms: C_9  and  C_10
REMARK    8  A    between atoms: C_13  and  N_14
REMARK    9  A    between atoms: N_14  and  C_15
REMARK   10  A    between atoms: C_25  and  C_26
REMARK                            x       y       z     vdW  Elec       q    Type
REMARK                         _______ _______ _______ _____ _____    ______ ____
ROOT
ATOM      1  N   UNL     1       0.402  11.249  18.493  0.00  0.00    +0.000 N 
ATOM      2  H   UNL     1       1.063  12.031  18.540  0.00  0.00    +0.000 HD
ENDROOT
BRANCH   1   3
ATOM      3  C   UNL     1      -0.868  11.619  19.003  0.00  0.00    +0.000 A 
ATOM      4  N   UNL     1      -0.892  12.147  20.251  0.00  0.00    +0.000 NA
ATOM      5  C   UNL     1      -2.042  12.510  20.817  0.00  0.00    +0.000 A 
ATOM      6  N   UNL     1      -1.988  13.000  22.093  0.00  0.00    +0.000 N 
ATOM      7  C   UNL     1      -3.155  13.500  22.788  0.00  0.00    +0.000 C 
ATOM      8  C   UNL     1      -2.644  14.760  23.481  0.00  0.00    +0.000 C 
ATOM      9  C   UNL     1      -1.181  14.448  23.759  0.00  0.00    +0.000 C 
ATOM     10  C   UNL     1      -0.753  13.624  22.545  0.00  0.00    +0.000 C 
ATOM     11  N   UNL     1      -3.213  12.407  20.180  0.00  0.00    +0.000 NA
ATOM     12  C   UNL     1      -3.185  11.865  18.942  0.00  0.00    +0.000 A 
ATOM     13  C   UNL     1      -2.049  11.395  18.322  0.00  0.00    +0.000 A 
BRANCH  13  14
ATOM     14  C   UNL     1      -2.096  10.758  16.993  0.00  0.00    +0.000 C 
ATOM     15  N   UNL     1      -2.521  11.515  15.936  0.00  0.00    +0.000 N 
ATOM     16  O   UNL     1      -1.786   9.582  16.841  0.00  0.00    +0.000 OA
ATOM     17  H   UNL     1      -2.988  12.409  16.030  0.00  0.00    +0.000 HD
ATOM     18  H   UNL     1      -2.649  11.030  15.055  0.00  0.00    +0.000 HD
ENDBRANCH  13  14
ENDBRANCH   1   3
BRANCH   1  22
ATOM     19  C   UNL     1       2.154   7.491  19.383  0.00  0.00    +0.000 A 
ATOM     20  C   UNL     1       2.377   8.113  18.147  0.00  0.00    +0.000 A 
ATOM     21  C   UNL     1       1.830   9.374  17.870  0.00  0.00    +0.000 A 
ATOM     22  C   UNL     1       1.038  10.023  18.817  0.00  0.00    +0.000 A 
ATOM     23  C   UNL     1       0.921   9.446  20.092  0.00  0.00    +0.000 A 
ATOM     24  C   UNL     1       1.455   8.188  20.370  0.00  0.00    +0.000 A 
BRANCH  19  25
ATOM     25  C   UNL     1       2.629   6.084  19.641  0.00  0.00    +0.000 C 
BRANCH  25  27
ATOM     26  N   UNL     1       4.100   4.999  18.039  0.00  0.00    +0.000 N 
ATOM     27  C   UNL     1       2.787   5.254  18.381  0.00  0.00    +0.000 C 
ATOM     28  O   UNL     1       1.828   4.844  17.738  0.00  0.00    +0.000 OA
ATOM     29  H   UNL     1       4.825   5.527  18.504  0.00  0.00    +0.000 HD
BRANCH  26  30
ATOM     30  C   UNL     1       4.421   4.253  16.839  0.00  0.00    +0.000 C 
BRANCH  30  32
ATOM     31  C   UNL     1       5.226   6.438  15.830  0.00  0.00    +0.000 C 
ATOM     32  C   UNL     1       5.488   4.927  15.949  0.00  0.00    +0.000 C 
ATOM     33  C   UNL     1       5.506   4.291  14.548  0.00  0.00    +0.000 C 
ATOM     34  C   UNL     1       6.867   4.717  16.600  0.00  0.00    +0.000 C 
ENDBRANCH  30  32
ENDBRANCH  26  30
ENDBRANCH  25  27
ENDBRANCH  19  25
ENDBRANCH   1  22
TORSDOF 7
ENDMDL
MODEL 2
REMARK VINA RESULT:      -8.3      1.955      9.913
REMARK  Name = 
REMARK  10 active torsions:
REMARK  status: ('A' for Active; 'I' for Inactive)
REMARK    1  A    between atoms: C_1  and  C_2
REMARK    2  A    between atoms: C_2  and  C_3
REMARK    3  A    between atoms: C_2  and  C_4
REMARK    4  A    between atoms: C_2  and  C_5
REMARK    5  A    between atoms: C_5  and  N_6
REMARK    6  A    between atoms: C_7  and  C_9
REMARK    7  A    between atoms: C_9  and  C_10
REMARK    8  A    between atoms: C_13  and  N_14
REMARK    9  A    between atoms: N_14  and  C_15
REMARK   10  A    between atoms: C_25  and  C_26
REMARK                            x       y       z     vdW  Elec       q    Type
REMARK                         _______ _______ _______ _____ _____    ______ ____
ROOT
ATOM      1  N   UNL     1       2.811   5.937  20.524  0.00  0.00    +0.000 N 
ATOM      2  H   UNL     1       3.565   6.151  21.184  0.00  0.00    +0.000 HD
ENDROOT
BRANCH   1   3
ATOM      3  C   UNL     1       3.177   4.883  19.650  0.00  0.00    +0.000 A 
ATOM      4  N   UNL     1       3.959   5.212  18.593  0.00  0.00    +0.000 NA
ATOM      5  C   UNL     1       4.341   4.289  17.712  0.00  0.00    +0.000 A 
ATOM      6  N   UNL     1       5.098   4.706  16.652  0.00  0.00    +0.000 N 
ATOM      7  C   UNL     1       5.640   3.790  15.671  0.00  0.00    +0.000 C 
ATOM      8  C   UNL     1       7.058   4.308  15.445  0.00  0.00    +0.000 C 
ATOM      9  C   UNL     1       6.934   5.806  15.682  0.00  0.00    +0.000 C 
ATOM     10  C   UNL     1       5.905   5.908  16.806  0.00  0.00    +0.000 C 
ATOM     11  N   UNL     1       4.007   3.001  17.840  0.00  0.00    +0.000 NA
ATOM     12  C   UNL     1       3.213   2.680  18.887  0.00  0.00    +0.000 A 
ATOM     13  C   UNL     1       2.714   3.588  19.794  0.00  0.00    +0.000 A 
BRANCH  13  14
ATOM     14  C   UNL     1       1.803   3.182  20.879  0.00  0.00    +0.000 C 
ATOM     15  N   UNL     1       0.484   2.996  20.571  0.00  0.00    +0.000 N 
ATOM     16  O   UNL     1       2.208   3.037  22.027  0.00  0.00    +0.000 OA
ATOM     17  H   UNL     1       0.055   3.304  19.706  0.00  0.00    +0.000 HD
ATOM     18  H   UNL     1      -0.143   2.824  21.349  0.00  0.00    +0.000 HD
ENDBRANCH  13  14
ENDBRANCH   1   3
BRANCH   1  22
ATOM     19  C   UNL     1       1.060   9.577  19.231  0.00  0.00    +0.000 A 
ATOM     20  C   UNL     1       1.780   8.769  18.339  0.00  0.00    +0.000 A 
ATOM     21  C   UNL     1       2.322   7.546  18.758  0.00  0.00    +0.000 A 
ATOM     22  C   UNL     1       2.170   7.122  20.079  0.00  0.00    +0.000 A 
ATOM     23  C   UNL     1       1.350   7.881  20.929  0.00  0.00    +0.000 A 
ATOM     24  C   UNL     1       0.815   9.102  20.520  0.00  0.00    +0.000 A 
BRANCH  19  25
ATOM     25  C   UNL     1       0.586  10.949  18.824  0.00  0.00    +0.000 C 
BRANCH  25  27
ATOM     26  N   UNL     1      -0.773  12.110  20.470  0.00  0.00    +0.000 N 
ATOM     27  C   UNL     1      -0.791  11.298  19.354  0.00  0.00    +0.000 C 
ATOM     28  O   UNL     1      -1.822  10.899  18.823  0.00  0.00    +0.000 OA
ATOM     29  H   UNL     1       0.105  12.236  20.953  0.00  0.00    +0.000 HD
BRANCH  26  30
ATOM     30  C   UNL     1      -2.006  12.502  21.120  0.00  0.00    +0.000 C 
BRANCH  30  32
ATOM     31  C   UNL     1      -3.380  12.395  23.252  0.00  0.00    +0.000 C 
ATOM     32  C   UNL     1      -1.959  12.408  22.662  0.00  0.00    +0.000 C 
ATOM     33  C   UNL     1      -1.161  13.583  23.253  0.00  0.00    +0.000 C 
ATOM     34  C   UNL     1      -1.255  11.094  23.047  0.00  0.00    +0.000 C 
ENDBRANCH  30  32
ENDBRANCH  26  30
ENDBRANCH  25  27
ENDBRANCH  19  25
ENDBRANCH   1  22
TORSDOF 7
ENDMDL
MODEL 3
REMARK VINA RESULT:      -8.2      2.785      9.414
REMARK  Name = 
REMARK  10 active torsions:
REMARK  status: ('A' for Active; 'I' for Inactive)
REMARK    1  A    between atoms: C_1  and  C_2
REMARK    2  A    between atoms: C_2  and  C_3
REMARK    3  A    between atoms: C_2  and  C_4
REMARK    4  A    between atoms: C_2  and  C_5
REMARK    5  A    between atoms: C_5  and  N_6
REMARK    6  A    between atoms: C_7  and  C_9
REMARK    7  A    between atoms: C_9  and  C_10
REMARK    8  A    between atoms: C_13  and  N_14
REMARK    9  A    between atoms: N_14  and  C_15
REMARK   10  A    between atoms: C_25  and  C_26
REMARK                            x       y       z     vdW  Elec       q    Type
REMARK                         _______ _______ _______ _____ _____    ______ ____
ROOT
ATOM      1  N   UNL     1       2.364   6.111  20.729  0.00  0.00    +0.000 N 
ATOM      2  H   UNL     1       2.819   6.225  21.641  0.00  0.00    +0.000 HD
ENDROOT
BRANCH   1   3
ATOM      3  C   UNL     1       2.992   5.093  19.967  0.00  0.00    +0.000 A 
ATOM      4  N   UNL     1       3.911   5.495  19.056  0.00  0.00    +0.000 NA
ATOM      5  C   UNL     1       4.540   4.609  18.285  0.00  0.00    +0.000 A 
ATOM      6  N   UNL     1       5.426   5.095  17.363  0.00  0.00    +0.000 N 
ATOM      7  C   UNL     1       6.229   4.233  16.522  0.00  0.00    +0.000 C 
ATOM      8  C   UNL     1       7.601   4.902  16.534  0.00  0.00    +0.000 C 
ATOM      9  C   UNL     1       7.277   6.380  16.697  0.00  0.00    +0.000 C 
ATOM     10  C   UNL     1       6.058   6.381  17.618  0.00  0.00    +0.000 C 
ATOM     11  N   UNL     1       4.328   3.293  18.393  0.00  0.00    +0.000 NA
ATOM     12  C   UNL     1       3.400   2.899  19.293  0.00  0.00    +0.000 A 
ATOM     13  C   UNL     1       2.652   3.758  20.068  0.00  0.00    +0.000 A 
BRANCH  13  14
ATOM     14  C   UNL     1       1.610   3.266  20.988  0.00  0.00    +0.000 C 
ATOM     15  N   UNL     1       0.377   2.985  20.468  0.00  0.00    +0.000 N 
ATOM     16  O   UNL     1       1.832   3.134  22.187  0.00  0.00    +0.000 OA
ATOM     17  H   UNL     1       0.073   3.274  19.545  0.00  0.00    +0.000 HD
ATOM     18  H   UNL     1      -0.352   2.753  21.131  0.00  0.00    +0.000 HD
ENDBRANCH  13  14
ENDBRANCH   1   3
BRANCH   1  22
ATOM     19  C   UNL     1       1.426   9.932  19.144  0.00  0.00    +0.000 A 
ATOM     20  C   UNL     1       2.050   8.958  18.352  0.00  0.00    +0.000 A 
ATOM     21  C   UNL     1       2.322   7.681  18.865  0.00  0.00    +0.000 A 
ATOM     22  C   UNL     1       1.992   7.367  20.184  0.00  0.00    +0.000 A 
ATOM     23  C   UNL     1       1.263   8.307  20.928  0.00  0.00    +0.000 A 
ATOM     24  C   UNL     1       0.997   9.581  20.426  0.00  0.00    +0.000 A 
BRANCH  19  25
ATOM     25  C   UNL     1       1.248  11.342  18.643  0.00  0.00    +0.000 C 
BRANCH  25  27
ATOM     26  N   UNL     1      -1.092  11.260  17.992  0.00  0.00    +0.000 N 
ATOM     27  C   UNL     1      -0.163  11.872  18.809  0.00  0.00    +0.000 C 
ATOM     28  O   UNL     1      -0.444  12.759  19.607  0.00  0.00    +0.000 OA
ATOM     29  H   UNL     1      -0.753  10.682  17.236  0.00  0.00    +0.000 HD
BRANCH  26  30
ATOM     30  C   UNL     1      -2.478  11.681  18.001  0.00  0.00    +0.000 C 
BRANCH  30  32
ATOM     31  C   UNL     1      -3.569   9.426  17.594  0.00  0.00    +0.000 C 
ATOM     32  C   UNL     1      -3.389  10.857  17.062  0.00  0.00    +0.000 C 
ATOM     33  C   UNL     1      -2.804  10.814  15.640  0.00  0.00    +0.000 C 
ATOM     34  C   UNL     1      -4.768  11.539  17.004  0.00  0.00    +0.000 C 
ENDBRANCH  30  32
ENDBRANCH  26  30
ENDBRANCH  25  27
ENDBRANCH  19  25
ENDBRANCH   1  22
TORSDOF 7
ENDMDL
MODEL 4
REMARK VINA RESULT:      -8.1      2.722      9.458
REMARK  Name = 
REMARK  10 active torsions:
REMARK  status: ('A' for Active; 'I' for Inactive)
REMARK    1  A    between atoms: C_1  and  C_2
REMARK    2  A    between atoms: C_2  and  C_3
REMARK    3  A    between atoms: C_2  and  C_4
REMARK    4  A    between atoms: C_2  and  C_5
REMARK    5  A    between atoms: C_5  and  N_6
REMARK    6  A    between atoms: C_7  and  C_9
REMARK    7  A    between atoms: C_9  and  C_10
REMARK    8  A    between atoms: C_13  and  N_14
REMARK    9  A    between atoms: N_14  and  C_15
REMARK   10  A    between atoms: C_25  and  C_26
REMARK                            x       y       z     vdW  Elec       q    Type
REMARK                         _______ _______ _______ _____ _____    ______ ____
ROOT
ATOM      1  N   UNL     1       2.369   5.882  20.563  0.00  0.00    +0.000 N 
ATOM      2  H   UNL     1       2.896   5.958  21.439  0.00  0.00    +0.000 HD
ENDROOT
BRANCH   1   3
ATOM      3  C   UNL     1       2.906   4.871  19.726  0.00  0.00    +0.000 A 
ATOM      4  N   UNL     1       3.798   5.268  18.787  0.00  0.00    +0.000 NA
ATOM      5  C   UNL     1       4.343   4.389  17.947  0.00  0.00    +0.000 A 
ATOM      6  N   UNL     1       5.205   4.873  17.002  0.00  0.00    +0.000 N 
ATOM      7  C   UNL     1       5.922   4.013  16.084  0.00  0.00    +0.000 C 
ATOM      8  C   UNL     1       7.324   4.613  16.054  0.00  0.00    +0.000 C 
ATOM      9  C   UNL     1       7.084   6.096  16.298  0.00  0.00    +0.000 C 
ATOM     10  C   UNL     1       5.914   6.114  17.280  0.00  0.00    +0.000 C 
ATOM     11  N   UNL     1       4.070   3.082  18.009  0.00  0.00    +0.000 NA
ATOM     12  C   UNL     1       3.168   2.693  18.938  0.00  0.00    +0.000 A 
ATOM     13  C   UNL     1       2.505   3.550  19.787  0.00  0.00    +0.000 A 
BRANCH  13  14
ATOM     14  C   UNL     1       1.486   3.068  20.738  0.00  0.00    +0.000 C 
ATOM     15  N   UNL     1       1.891   2.757  22.007  0.00  0.00    +0.000 N 
ATOM     16  O   UNL     1       0.317   2.928  20.398  0.00  0.00    +0.000 OA
ATOM     17  H   UNL     1       2.860   2.646  22.281  0.00  0.00    +0.000 HD
ATOM     18  H   UNL     1       1.200   2.327  22.610  0.00  0.00    +0.000 HD
ENDBRANCH  13  14
ENDBRANCH   1   3
BRANCH   1  22
ATOM     19  C   UNL     1       1.419   9.772  19.164  0.00  0.00    +0.000 A 
ATOM     20  C   UNL     1       1.972   8.814  18.303  0.00  0.00    +0.000 A 
ATOM     21  C   UNL     1       2.248   7.516  18.757  0.00  0.00    +0.000 A 
ATOM     22  C   UNL     1       1.991   7.162  20.082  0.00  0.00    +0.000 A 
ATOM     23  C   UNL     1       1.329   8.091  20.900  0.00  0.00    +0.000 A 
ATOM     24  C   UNL     1       1.060   9.386  20.457  0.00  0.00    +0.000 A 
BRANCH  19  25
ATOM     25  C   UNL     1       1.240  11.201  18.722  0.00  0.00    +0.000 C 
BRANCH  25  27
ATOM     26  N   UNL     1      -0.998  11.347  17.785  0.00  0.00    +0.000 N 
ATOM     27  C   UNL     1      -0.186  11.703  18.843  0.00  0.00    +0.000 C 
ATOM     28  O   UNL     1      -0.574  12.356  19.805  0.00  0.00    +0.000 OA
ATOM     29  H   UNL     1      -0.560  10.979  16.952  0.00  0.00    +0.000 HD
BRANCH  26  30
ATOM     30  C   UNL     1      -2.378  11.782  17.731  0.00  0.00    +0.000 C 
BRANCH  30  32
ATOM     31  C   UNL     1      -2.779  10.669  15.486  0.00  0.00    +0.000 C 
ATOM     32  C   UNL     1      -3.301  10.842  16.923  0.00  0.00    +0.000 C 
ATOM     33  C   UNL     1      -4.738  11.390  16.892  0.00  0.00    +0.000 C 
ATOM     34  C   UNL     1      -3.314   9.465  17.611  0.00  0.00    +0.000 C 
ENDBRANCH  30  32
ENDBRANCH  26  30
ENDBRANCH  25  27
ENDBRANCH  19  25
ENDBRANCH   1  22
TORSDOF 7
ENDMDL
MODEL 5
REMARK VINA RESULT:      -8.1      2.125      9.943
REMARK  Name = 
REMARK  10 active torsions:
REMARK  status: ('A' for Active; 'I' for Inactive)
REMARK    1  A    between atoms: C_1  and  C_2
REMARK    2  A    between atoms: C_2  and  C_3
REMARK    3  A    between atoms: C_2  and  C_4
REMARK    4  A    between atoms: C_2  and  C_5
REMARK    5  A    between atoms: C_5  and  N_6
REMARK    6  A    between atoms: C_7  and  C_9
REMARK    7  A    between atoms: C_9  and  C_10
REMARK    8  A    between atoms: C_13  and  N_14
REMARK    9  A    between atoms: N_14  and  C_15
REMARK   10  A    between atoms: C_25  and  C_26
REMARK                            x       y       z     vdW  Elec       q    Type
REMARK                         _______ _______ _______ _____ _____    ______ ____
ROOT
ATOM      1  N   UNL     1       2.673   5.974  20.625  0.00  0.00    +0.000 N 
ATOM      2  H   UNL     1       3.363   6.148  21.363  0.00  0.00    +0.000 HD
ENDROOT
BRANCH   1   3
ATOM      3  C   UNL     1       3.091   4.923  19.769  0.00  0.00    +0.000 A 
ATOM      4  N   UNL     1       3.882   5.267  18.724  0.00  0.00    +0.000 NA
ATOM      5  C   UNL     1       4.311   4.348  17.861  0.00  0.00    +0.000 A 
ATOM      6  N   UNL     1       5.075   4.779  16.811  0.00  0.00    +0.000 N 
ATOM      7  C   UNL     1       5.665   3.871  15.850  0.00  0.00    +0.000 C 
ATOM      8  C   UNL     1       7.069   4.434  15.645  0.00  0.00    +0.000 C 
ATOM      9  C   UNL     1       6.891   5.929  15.863  0.00  0.00    +0.000 C 
ATOM     10  C   UNL     1       5.837   6.009  16.966  0.00  0.00    +0.000 C 
ATOM     11  N   UNL     1       4.018   3.051  17.997  0.00  0.00    +0.000 NA
ATOM     12  C   UNL     1       3.216   2.715  19.033  0.00  0.00    +0.000 A 
ATOM     13  C   UNL     1       2.670   3.615  19.920  0.00  0.00    +0.000 A 
BRANCH  13  14
ATOM     14  C   UNL     1       1.752   3.191  20.992  0.00  0.00    +0.000 C 
ATOM     15  N   UNL     1       0.467   2.875  20.647  0.00  0.00    +0.000 N 
ATOM     16  O   UNL     1       2.120   3.143  22.161  0.00  0.00    +0.000 OA
ATOM     17  H   UNL     1       0.049   3.098  19.751  0.00  0.00    +0.000 HD
ATOM     18  H   UNL     1      -0.175   2.691  21.410  0.00  0.00    +0.000 HD
ENDBRANCH  13  14
ENDBRANCH   1   3
BRANCH   1  22
ATOM     19  C   UNL     1       0.860   9.514  19.152  0.00  0.00    +0.000 A 
ATOM     20  C   UNL     1       0.751   9.159  20.504  0.00  0.00    +0.000 A 
ATOM     21  C   UNL     1       1.386   8.010  20.998  0.00  0.00    +0.000 A 
ATOM     22  C   UNL     1       2.123   7.189  20.143  0.00  0.00    +0.000 A 
ATOM     23  C   UNL     1       2.323   7.617  18.821  0.00  0.00    +0.000 A 
ATOM     24  C   UNL     1       1.687   8.754  18.323  0.00  0.00    +0.000 A 
BRANCH  19  25
ATOM     25  C   UNL     1       0.078  10.673  18.589  0.00  0.00    +0.000 C 
BRANCH  25  27
ATOM     26  N   UNL     1      -1.173  11.996  20.198  0.00  0.00    +0.000 N 
ATOM     27  C   UNL     1       0.019  11.874  19.513  0.00  0.00    +0.000 C 
ATOM     28  O   UNL     1       0.956  12.654  19.640  0.00  0.00    +0.000 OA
ATOM     29  H   UNL     1      -1.955  11.430  19.898  0.00  0.00    +0.000 HD
BRANCH  26  30
ATOM     30  C   UNL     1      -1.403  13.113  21.091  0.00  0.00    +0.000 C 
BRANCH  30  32
ATOM     31  C   UNL     1      -3.350  12.508  22.602  0.00  0.00    +0.000 C 
ATOM     32  C   UNL     1      -1.826  12.698  22.518  0.00  0.00    +0.000 C 
ATOM     33  C   UNL     1      -1.376  13.752  23.544  0.00  0.00    +0.000 C 
ATOM     34  C   UNL     1      -1.143  11.360  22.857  0.00  0.00    +0.000 C 
ENDBRANCH  30  32
ENDBRANCH  26  30
ENDBRANCH  25  27
ENDBRANCH  19  25
ENDBRANCH   1  22
TORSDOF 7
ENDMDL
MODEL 6
REMARK VINA RESULT:      -8.0      2.214      9.930
REMARK  Name = 
REMARK  10 active torsions:
REMARK  status: ('A' for Active; 'I' for Inactive)
REMARK    1  A    between atoms: C_1  and  C_2
REMARK    2  A    between atoms: C_2  and  C_3
REMARK    3  A    between atoms: C_2  and  C_4
REMARK    4  A    between atoms: C_2  and  C_5
REMARK    5  A    between atoms: C_5  and  N_6
REMARK    6  A    between atoms: C_7  and  C_9
REMARK    7  A    between atoms: C_9  and  C_10
REMARK    8  A    between atoms: C_13  and  N_14
REMARK    9  A    between atoms: N_14  and  C_15
REMARK   10  A    between atoms: C_25  and  C_26
REMARK                            x       y       z     vdW  Elec       q    Type
REMARK                         _______ _______ _______ _____ _____    ______ ____
ROOT
ATOM      1  N   UNL     1       2.744   5.997  20.527  0.00  0.00    +0.000 N 
ATOM      2  H   UNL     1       3.477   6.207  21.213  0.00  0.00    +0.000 HD
ENDROOT
BRANCH   1   3
ATOM      3  C   UNL     1       3.126   4.927  19.679  0.00  0.00    +0.000 A 
ATOM      4  N   UNL     1       3.913   5.241  18.621  0.00  0.00    +0.000 NA
ATOM      5  C   UNL     1       4.310   4.302  17.763  0.00  0.00    +0.000 A 
ATOM      6  N   UNL     1       5.071   4.704  16.700  0.00  0.00    +0.000 N 
ATOM      7  C   UNL     1       5.628   3.771  15.742  0.00  0.00    +0.000 C 
ATOM      8  C   UNL     1       7.042   4.297  15.515  0.00  0.00    +0.000 C 
ATOM      9  C   UNL     1       6.904   5.799  15.718  0.00  0.00    +0.000 C 
ATOM     10  C   UNL     1       5.865   5.916  16.833  0.00  0.00    +0.000 C 
ATOM     11  N   UNL     1       3.986   3.014  17.917  0.00  0.00    +0.000 NA
ATOM     12  C   UNL     1       3.188   2.709  18.965  0.00  0.00    +0.000 A 
ATOM     13  C   UNL     1       2.675   3.632  19.848  0.00  0.00    +0.000 A 
BRANCH  13  14
ATOM     14  C   UNL     1       1.759   3.242  20.936  0.00  0.00    +0.000 C 
ATOM     15  N   UNL     1       0.480   2.893  20.601  0.00  0.00    +0.000 N 
ATOM     16  O   UNL     1       2.124   3.250  22.106  0.00  0.00    +0.000 OA
ATOM     17  H   UNL     1       0.062   3.072  19.695  0.00  0.00    +0.000 HD
ATOM     18  H   UNL     1      -0.161   2.734  21.370  0.00  0.00    +0.000 HD
ENDBRANCH  13  14
ENDBRANCH   1   3
BRANCH   1  22
ATOM     19  C   UNL     1       1.100   9.648  19.126  0.00  0.00    +0.000 A 
ATOM     20  C   UNL     1       1.823   8.808  18.267  0.00  0.00    +0.000 A 
ATOM     21  C   UNL     1       2.331   7.582  18.721  0.00  0.00    +0.000 A 
ATOM     22  C   UNL     1       2.139   7.187  20.046  0.00  0.00    +0.000 A 
ATOM     23  C   UNL     1       1.315   7.978  20.861  0.00  0.00    +0.000 A 
ATOM     24  C   UNL     1       0.815   9.202  20.418  0.00  0.00    +0.000 A 
BRANCH  19  25
ATOM     25  C   UNL     1       0.664  11.021  18.683  0.00  0.00    +0.000 C 
BRANCH  25  27
ATOM     26  N   UNL     1      -0.651  12.342  20.242  0.00  0.00    +0.000 N 
ATOM     27  C   UNL     1       0.623  12.038  19.807  0.00  0.00    +0.000 C 
ATOM     28  O   UNL     1       1.638  12.532  20.285  0.00  0.00    +0.000 OA
ATOM     29  H   UNL     1      -1.432  12.043  19.675  0.00  0.00    +0.000 HD
BRANCH  26  30
ATOM     30  C   UNL     1      -0.863  13.327  21.283  0.00  0.00    +0.000 C 
BRANCH  30  32
ATOM     31  C   UNL     1      -1.150  11.439  22.954  0.00  0.00    +0.000 C 
ATOM     32  C   UNL     1      -1.682  12.803  22.484  0.00  0.00    +0.000 C 
ATOM     33  C   UNL     1      -3.170  12.682  22.112  0.00  0.00    +0.000 C 
ATOM     34  C   UNL     1      -1.546  13.811  23.640  0.00  0.00    +0.000 C 
ENDBRANCH  30  32
ENDBRANCH  26  30
ENDBRANCH  25  27
ENDBRANCH  19  25
ENDBRANCH   1  22
TORSDOF 7
ENDMDL
MODEL 7
REMARK VINA RESULT:      -7.9      0.585      1.362
REMARK  Name = 
REMARK  10 active torsions:
REMARK  status: ('A' for Active; 'I' for Inactive)
REMARK    1  A    between atoms: C_1  and  C_2
REMARK    2  A    between atoms: C_2  and  C_3
REMARK    3  A    between atoms: C_2  and  C_4
REMARK    4  A    between atoms: C_2  and  C_5
REMARK    5  A    between atoms: C_5  and  N_6
REMARK    6  A    between atoms: C_7  and  C_9
REMARK    7  A    between atoms: C_9  and  C_10
REMARK    8  A    between atoms: C_13  and  N_14
REMARK    9  A    between atoms: N_14  and  C_15
REMARK   10  A    between atoms: C_25  and  C_26
REMARK                            x       y       z     vdW  Elec       q    Type
REMARK                         _______ _______ _______ _____ _____    ______ ____
ROOT
ATOM      1  N   UNL     1       0.420  11.125  18.426  0.00  0.00    +0.000 N 
ATOM      2  H   UNL     1       1.128  11.862  18.503  0.00  0.00    +0.000 HD
ENDROOT
BRANCH   1   3
ATOM      3  C   UNL     1      -0.833  11.564  18.923  0.00  0.00    +0.000 A 
ATOM      4  N   UNL     1      -0.838  12.114  20.161  0.00  0.00    +0.000 NA
ATOM      5  C   UNL     1      -1.972  12.542  20.715  0.00  0.00    +0.000 A 
ATOM      6  N   UNL     1      -1.901  13.050  21.982  0.00  0.00    +0.000 N 
ATOM      7  C   UNL     1      -3.046  13.618  22.662  0.00  0.00    +0.000 C 
ATOM      8  C   UNL     1      -2.479  14.863  23.336  0.00  0.00    +0.000 C 
ATOM      9  C   UNL     1      -1.033  14.486  23.628  0.00  0.00    +0.000 C 
ATOM     10  C   UNL     1      -0.640  13.622  22.431  0.00  0.00    +0.000 C 
ATOM     11  N   UNL     1      -3.143  12.484  20.073  0.00  0.00    +0.000 NA
ATOM     12  C   UNL     1      -3.136  11.920  18.844  0.00  0.00    +0.000 A 
ATOM     13  C   UNL     1      -2.021  11.385  18.239  0.00  0.00    +0.000 A 
BRANCH  13  14
ATOM     14  C   UNL     1      -2.091  10.729  16.920  0.00  0.00    +0.000 C 
ATOM     15  N   UNL     1      -2.536  11.469  15.860  0.00  0.00    +0.000 N 
ATOM     16  O   UNL     1      -1.783   9.551  16.780  0.00  0.00    +0.000 OA
ATOM     17  H   UNL     1      -3.002  12.365  15.950  0.00  0.00    +0.000 HD
ATOM     18  H   UNL     1      -2.679  10.972  14.989  0.00  0.00    +0.000 HD
ENDBRANCH  13  14
ENDBRANCH   1   3
BRANCH   1  22
ATOM     19  C   UNL     1       2.220   7.415  19.416  0.00  0.00    +0.000 A 
ATOM     20  C   UNL     1       1.425   8.099  20.347  0.00  0.00    +0.000 A 
ATOM     21  C   UNL     1       0.797   9.305  20.004  0.00  0.00    +0.000 A 
ATOM     22  C   UNL     1       0.970   9.854  18.733  0.00  0.00    +0.000 A 
ATOM     23  C   UNL     1       1.669   9.102  17.775  0.00  0.00    +0.000 A 
ATOM     24  C   UNL     1       2.302   7.906  18.112  0.00  0.00    +0.000 A 
BRANCH  19  25
ATOM     25  C   UNL     1       3.000   6.188  19.816  0.00  0.00    +0.000 C 
BRANCH  25  27
ATOM     26  N   UNL     1       4.824   5.356  18.443  0.00  0.00    +0.000 N 
ATOM     27  C   UNL     1       3.458   5.348  18.639  0.00  0.00    +0.000 C 
ATOM     28  O   UNL     1       2.677   4.714  17.939  0.00  0.00    +0.000 OA
ATOM     29  H   UNL     1       5.372   6.046  18.937  0.00  0.00    +0.000 HD
BRANCH  26  30
ATOM     30  C   UNL     1       5.418   4.634  17.337  0.00  0.00    +0.000 C 
BRANCH  30  32
ATOM     31  C   UNL     1       6.983   4.671  15.339  0.00  0.00    +0.000 C 
ATOM     32  C   UNL     1       6.220   5.528  16.364  0.00  0.00    +0.000 C 
ATOM     33  C   UNL     1       7.209   6.418  17.137  0.00  0.00    +0.000 C 
ATOM     34  C   UNL     1       5.231   6.435  15.610  0.00  0.00    +0.000 C 
ENDBRANCH  30  32
ENDBRANCH  26  30
ENDBRANCH  25  27
ENDBRANCH  19  25
ENDBRANCH   1  22
TORSDOF 7
ENDMDL
MODEL 8
REMARK VINA RESULT:      -7.9      1.902      9.984
REMARK  Name = 
REMARK  10 active torsions:
REMARK  status: ('A' for Active; 'I' for Inactive)
REMARK    1  A    between atoms: C_1  and  C_2
REMARK    2  A    between atoms: C_2  and  C_3
REMARK    3  A    between atoms: C_2  and  C_4
REMARK    4  A    between atoms: C_2  and  C_5
REMARK    5  A    between atoms: C_5  and  N_6
REMARK    6  A    between atoms: C_7  and  C_9
REMARK    7  A    between atoms: C_9  and  C_10
REMARK    8  A    between atoms: C_13  and  N_14
REMARK    9  A    between atoms: N_14  and  C_15
REMARK   10  A    between atoms: C_25  and  C_26
REMARK                            x       y       z     vdW  Elec       q    Type
REMARK                         _______ _______ _______ _____ _____    ______ ____
ROOT
ATOM      1  N   UNL     1       2.816   6.057  20.458  0.00  0.00    +0.000 N 
ATOM      2  H   UNL     1       3.593   6.295  21.082  0.00  0.00    +0.000 HD
ENDROOT
BRANCH   1   3
ATOM      3  C   UNL     1       3.159   4.984  19.596  0.00  0.00    +0.000 A 
ATOM      4  N   UNL     1       3.936   5.287  18.528  0.00  0.00    +0.000 NA
ATOM      5  C   UNL     1       4.296   4.345  17.657  0.00  0.00    +0.000 A 
ATOM      6  N   UNL     1       5.050   4.736  16.584  0.00  0.00    +0.000 N 
ATOM      7  C   UNL     1       5.569   3.797  15.612  0.00  0.00    +0.000 C 
ATOM      8  C   UNL     1       6.992   4.291  15.366  0.00  0.00    +0.000 C 
ATOM      9  C   UNL     1       6.892   5.795  15.581  0.00  0.00    +0.000 C 
ATOM     10  C   UNL     1       5.874   5.928  16.713  0.00  0.00    +0.000 C 
ATOM     11  N   UNL     1       3.945   3.064  17.808  0.00  0.00    +0.000 NA
ATOM     12  C   UNL     1       3.157   2.770  18.867  0.00  0.00    +0.000 A 
ATOM     13  C   UNL     1       2.680   3.699  19.764  0.00  0.00    +0.000 A 
BRANCH  13  14
ATOM     14  C   UNL     1       1.773   3.322  20.864  0.00  0.00    +0.000 C 
ATOM     15  N   UNL     1       0.471   3.043  20.553  0.00  0.00    +0.000 N 
ATOM     16  O   UNL     1       2.165   3.282  22.025  0.00  0.00    +0.000 OA
ATOM     17  H   UNL     1       0.041   3.265  19.662  0.00  0.00    +0.000 HD
ATOM     18  H   UNL     1      -0.158   2.893  21.333  0.00  0.00    +0.000 HD
ENDBRANCH  13  14
ENDBRANCH   1   3
BRANCH   1  22
ATOM     19  C   UNL     1       0.972   9.646  19.150  0.00  0.00    +0.000 A 
ATOM     20  C   UNL     1       1.698   8.844  18.258  0.00  0.00    +0.000 A 
ATOM     21  C   UNL     1       2.272   7.637  18.682  0.00  0.00    +0.000 A 
ATOM     22  C   UNL     1       2.145   7.224  20.009  0.00  0.00    +0.000 A 
ATOM     23  C   UNL     1       1.318   7.973  20.861  0.00  0.00    +0.000 A 
ATOM     24  C   UNL     1       0.752   9.178  20.447  0.00  0.00    +0.000 A 
BRANCH  19  25
ATOM     25  C   UNL     1       0.463  11.002  18.736  0.00  0.00    +0.000 C 
BRANCH  25  27
ATOM     26  N   UNL     1      -1.385  12.229  19.728  0.00  0.00    +0.000 N 
ATOM     27  C   UNL     1      -1.033  11.172  18.914  0.00  0.00    +0.000 C 
ATOM     28  O   UNL     1      -1.848  10.436  18.369  0.00  0.00    +0.000 OA
ATOM     29  H   UNL     1      -0.662  12.663  20.285  0.00  0.00    +0.000 HD
BRANCH  26  30
ATOM     30  C   UNL     1      -2.775  12.501  20.030  0.00  0.00    +0.000 C 
BRANCH  30  32
ATOM     31  C   UNL     1      -2.151  12.147  22.464  0.00  0.00    +0.000 C 
ATOM     32  C   UNL     1      -3.023  12.953  21.487  0.00  0.00    +0.000 C 
ATOM     33  C   UNL     1      -4.507  12.790  21.859  0.00  0.00    +0.000 C 
ATOM     34  C   UNL     1      -2.649  14.442  21.604  0.00  0.00    +0.000 C 
ENDBRANCH  30  32
ENDBRANCH  26  30
ENDBRANCH  25  27
ENDBRANCH  19  25
ENDBRANCH   1  22
TORSDOF 7
ENDMDL
MODEL 9
REMARK VINA RESULT:      -7.8      1.909      9.967
REMARK  Name = 
REMARK  10 active torsions:
REMARK  status: ('A' for Active; 'I' for Inactive)
REMARK    1  A    between atoms: C_1  and  C_2
REMARK    2  A    between atoms: C_2  and  C_3
REMARK    3  A    between atoms: C_2  and  C_4
REMARK    4  A    between atoms: C_2  and  C_5
REMARK    5  A    between atoms: C_5  and  N_6
REMARK    6  A    between atoms: C_7  and  C_9
REMARK    7  A    between atoms: C_9  and  C_10
REMARK    8  A    between atoms: C_13  and  N_14
REMARK    9  A    between atoms: N_14  and  C_15
REMARK   10  A    between atoms: C_25  and  C_26
REMARK                            x       y       z     vdW  Elec       q    Type
REMARK                         _______ _______ _______ _____ _____    ______ ____
ROOT
ATOM      1  N   UNL     1       2.985   6.287  20.261  0.00  0.00    +0.000 N 
ATOM      2  H   UNL     1       3.827   6.559  20.777  0.00  0.00    +0.000 HD
ENDROOT
BRANCH   1   3
ATOM      3  C   UNL     1       3.240   5.185  19.406  0.00  0.00    +0.000 A 
ATOM      4  N   UNL     1       4.008   5.426  18.316  0.00  0.00    +0.000 NA
ATOM      5  C   UNL     1       4.288   4.453  17.450  0.00  0.00    +0.000 A 
ATOM      6  N   UNL     1       5.039   4.783  16.355  0.00  0.00    +0.000 N 
ATOM      7  C   UNL     1       5.475   3.803  15.383  0.00  0.00    +0.000 C 
ATOM      8  C   UNL     1       6.920   4.203  15.098  0.00  0.00    +0.000 C 
ATOM      9  C   UNL     1       6.919   5.713  15.295  0.00  0.00    +0.000 C 
ATOM     10  C   UNL     1       5.939   5.923  16.448  0.00  0.00    +0.000 C 
ATOM     11  N   UNL     1       3.861   3.198  17.626  0.00  0.00    +0.000 NA
ATOM     12  C   UNL     1       3.082   2.967  18.706  0.00  0.00    +0.000 A 
ATOM     13  C   UNL     1       2.685   3.935  19.602  0.00  0.00    +0.000 A 
BRANCH  13  14
ATOM     14  C   UNL     1       1.783   3.629  20.727  0.00  0.00    +0.000 C 
ATOM     15  N   UNL     1       2.254   2.818  21.722  0.00  0.00    +0.000 N 
ATOM     16  O   UNL     1       0.639   4.068  20.761  0.00  0.00    +0.000 OA
ATOM     17  H   UNL     1       3.096   2.259  21.647  0.00  0.00    +0.000 HD
ATOM     18  H   UNL     1       1.585   2.533  22.428  0.00  0.00    +0.000 HD
ENDBRANCH  13  14
ENDBRANCH   1   3
BRANCH   1  22
ATOM     19  C   UNL     1       0.625   9.583  19.013  0.00  0.00    +0.000 A 
ATOM     20  C   UNL     1       0.649   9.184  20.356  0.00  0.00    +0.000 A 
ATOM     21  C   UNL     1       1.461   8.120  20.774  0.00  0.00    +0.000 A 
ATOM     22  C   UNL     1       2.247   7.428  19.852  0.00  0.00    +0.000 A 
ATOM     23  C   UNL     1       2.305   7.912  18.535  0.00  0.00    +0.000 A 
ATOM     24  C   UNL     1       1.493   8.963  18.112  0.00  0.00    +0.000 A 
BRANCH  19  25
ATOM     25  C   UNL     1      -0.339  10.638  18.534  0.00  0.00    +0.000 C 
BRANCH  25  27
ATOM     26  N   UNL     1      -1.583  11.902  20.195  0.00  0.00    +0.000 N 
ATOM     27  C   UNL     1      -0.424  11.845  19.448  0.00  0.00    +0.000 C 
ATOM     28  O   UNL     1       0.467  12.683  19.517  0.00  0.00    +0.000 OA
ATOM     29  H   UNL     1      -2.343  11.286  19.943  0.00  0.00    +0.000 HD
BRANCH  26  30
ATOM     30  C   UNL     1      -1.835  13.014  21.088  0.00  0.00    +0.000 C 
BRANCH  30  32
ATOM     31  C   UNL     1      -1.223  13.738  23.442  0.00  0.00    +0.000 C 
ATOM     32  C   UNL     1      -1.850  12.626  22.584  0.00  0.00    +0.000 C 
ATOM     33  C   UNL     1      -1.092  11.306  22.808  0.00  0.00    +0.000 C 
ATOM     34  C   UNL     1      -3.313  12.432  23.021  0.00  0.00    +0.000 C 
ENDBRANCH  30  32
ENDBRANCH  26  30
ENDBRANCH  25  27
ENDBRANCH  19  25
ENDBRANCH   1  22
TORSDOF 7
ENDMDL
