MODEL 1
REMARK VINA RESULT:      -8.2      0.000      0.000
REMARK  Name = 
REMARK  3 active torsions:
REMARK  status: ('A' for Active; 'I' for Inactive)
REMARK    1  A    between atoms: C_1  and  C_2
REMARK    2  A    between atoms: C_7  and  C_8
REMARK    3  A    between atoms: C_15  and  C_16
REMARK                            x       y       z     vdW  Elec       q    Type
REMARK                         _______ _______ _______ _____ _____    ______ ____
ROOT
ATOM      1  C   UNL     1       8.886   8.922  19.082  0.00  0.00    +0.000 C 
ATOM      2  C   UNL     1       8.088   8.148  18.068  0.00  0.00    +0.000 C 
ATOM      3  O   UNL     1       7.975   8.541  16.911  0.00  0.00    +0.000 OA
ATOM      4  N   UNL     1       7.535   6.995  18.581  0.00  0.00    +0.000 N 
ATOM      5  C   UNL     1       6.740   6.127  17.827  0.00  0.00    +0.000 A 
ATOM      6  C   UNL     1       7.025   5.834  16.512  0.00  0.00    +0.000 A 
ATOM      7  C   UNL     1       6.149   4.994  15.858  0.00  0.00    +0.000 A 
ATOM      8  N   UNL     1       5.051   4.510  16.479  0.00  0.00    +0.000 NA
ATOM      9  C   UNL     1       4.851   4.861  17.763  0.00  0.00    +0.000 A 
ATOM     10  N   UNL     1       5.700   5.612  18.487  0.00  0.00    +0.000 NA
ATOM     11  H   UNL     1       7.340   6.958  19.572  0.00  0.00    +0.000 HD
ENDROOT
BRANCH   7  12
ATOM     12  C   UNL     1       6.343   4.567  14.454  0.00  0.00    +0.000 A 
ATOM     13  C   UNL     1       7.416   5.068  13.687  0.00  0.00    +0.000 A 
ATOM     14  C   UNL     1       7.605   4.688  12.354  0.00  0.00    +0.000 A 
ATOM     15  C   UNL     1       6.724   3.796  11.751  0.00  0.00    +0.000 A 
ATOM     16  C   UNL     1       5.658   3.283  12.483  0.00  0.00    +0.000 A 
ATOM     17  C   UNL     1       5.474   3.663  13.818  0.00  0.00    +0.000 A 
ENDBRANCH   7  12
BRANCH   9  18
ATOM     18  C   UNL     1       3.581   4.461  18.403  0.00  0.00    +0.000 A 
ATOM     19  C   UNL     1       2.656   3.627  17.747  0.00  0.00    +0.000 A 
ATOM     20  C   UNL     1       1.441   3.267  18.345  0.00  0.00    +0.000 A 
ATOM     21  C   UNL     1       1.127   3.737  19.618  0.00  0.00    +0.000 A 
ATOM     22  C   UNL     1       2.017   4.568  20.290  0.00  0.00    +0.000 A 
ATOM     23  C   UNL     1       3.229   4.925  19.687  0.00  0.00    +0.000 A 
ENDBRANCH   9  18
TORSDOF 2
ENDMDL
MODEL 2
REMARK VINA RESULT:      -8.2      0.365      1.075
REMARK  Name = 
REMARK  3 active torsions:
REMARK  status: ('A' for Active; 'I' for Inactive)
REMARK    1  A    between atoms: C_1  and  C_2
REMARK    2  A    between atoms: C_7  and  C_8
REMARK    3  A    between atoms: C_15  and  C_16
REMARK                            x       y       z     vdW  Elec       q    Type
REMARK                         _______ _______ _______ _____ _____    ______ ____
ROOT
ATOM      1  C   UNL     1       8.757   8.621  19.014  0.00  0.00    +0.000 C 
ATOM      2  C   UNL     1       7.954   7.873  17.986  0.00  0.00    +0.000 C 
ATOM      3  O   UNL     1       7.827   8.299  16.842  0.00  0.00    +0.000 OA
ATOM      4  N   UNL     1       7.414   6.701  18.470  0.00  0.00    +0.000 N 
ATOM      5  C   UNL     1       6.617   5.850  17.697  0.00  0.00    +0.000 A 
ATOM      6  C   UNL     1       6.891   5.599  16.371  0.00  0.00    +0.000 A 
ATOM      7  C   UNL     1       6.014   4.773  15.701  0.00  0.00    +0.000 A 
ATOM      8  N   UNL     1       4.926   4.263  16.318  0.00  0.00    +0.000 NA
ATOM      9  C   UNL     1       4.736   4.574  17.614  0.00  0.00    +0.000 A 
ATOM     10  N   UNL     1       5.587   5.309  18.352  0.00  0.00    +0.000 NA
ATOM     11  H   UNL     1       7.229   6.633  19.461  0.00  0.00    +0.000 HD
ENDROOT
BRANCH   7  12
ATOM     12  C   UNL     1       6.198   4.390  14.283  0.00  0.00    +0.000 A 
ATOM     13  C   UNL     1       7.320   4.833  13.553  0.00  0.00    +0.000 A 
ATOM     14  C   UNL     1       7.500   4.494  12.207  0.00  0.00    +0.000 A 
ATOM     15  C   UNL     1       6.561   3.701  11.556  0.00  0.00    +0.000 A 
ATOM     16  C   UNL     1       5.445   3.246  12.250  0.00  0.00    +0.000 A 
ATOM     17  C   UNL     1       5.270   3.585  13.598  0.00  0.00    +0.000 A 
ENDBRANCH   7  12
BRANCH   9  18
ATOM     18  C   UNL     1       3.475   4.145  18.254  0.00  0.00    +0.000 A 
ATOM     19  C   UNL     1       2.988   4.772  19.415  0.00  0.00    +0.000 A 
ATOM     20  C   UNL     1       1.804   4.350  20.035  0.00  0.00    +0.000 A 
ATOM     21  C   UNL     1       1.081   3.286  19.499  0.00  0.00    +0.000 A 
ATOM     22  C   UNL     1       1.539   2.642  18.355  0.00  0.00    +0.000 A 
ATOM     23  C   UNL     1       2.723   3.068  17.742  0.00  0.00    +0.000 A 
ENDBRANCH   9  18
TORSDOF 2
ENDMDL
MODEL 3
REMARK VINA RESULT:      -8.2      1.345      5.774
REMARK  Name = 
REMARK  3 active torsions:
REMARK  status: ('A' for Active; 'I' for Inactive)
REMARK    1  A    between atoms: C_1  and  C_2
REMARK    2  A    between atoms: C_7  and  C_8
REMARK    3  A    between atoms: C_15  and  C_16
REMARK                            x       y       z     vdW  Elec       q    Type
REMARK                         _______ _______ _______ _____ _____    ______ ____
ROOT
ATOM      1  C   UNL     1       8.634   8.718  18.285  0.00  0.00    +0.000 C 
ATOM      2  C   UNL     1       7.821   7.457  18.190  0.00  0.00    +0.000 C 
ATOM      3  O   UNL     1       7.818   6.630  19.098  0.00  0.00    +0.000 OA
ATOM      4  N   UNL     1       7.109   7.360  17.014  0.00  0.00    +0.000 N 
ATOM      5  C   UNL     1       6.296   6.267  16.701  0.00  0.00    +0.000 A 
ATOM      6  C   UNL     1       5.513   5.645  17.647  0.00  0.00    +0.000 A 
ATOM      7  C   UNL     1       4.781   4.553  17.229  0.00  0.00    +0.000 A 
ATOM      8  N   UNL     1       4.860   4.107  15.956  0.00  0.00    +0.000 NA
ATOM      9  C   UNL     1       5.662   4.774  15.105  0.00  0.00    +0.000 A 
ATOM     10  N   UNL     1       6.344   5.889  15.421  0.00  0.00    +0.000 NA
ATOM     11  H   UNL     1       7.462   7.844  16.201  0.00  0.00    +0.000 HD
ENDROOT
BRANCH   7  12
ATOM     12  C   UNL     1       3.873   3.804  18.127  0.00  0.00    +0.000 A 
ATOM     13  C   UNL     1       2.567   3.465  17.715  0.00  0.00    +0.000 A 
ATOM     14  C   UNL     1       1.690   2.772  18.557  0.00  0.00    +0.000 A 
ATOM     15  C   UNL     1       2.096   2.400  19.834  0.00  0.00    +0.000 A 
ATOM     16  C   UNL     1       3.379   2.718  20.267  0.00  0.00    +0.000 A 
ATOM     17  C   UNL     1       4.256   3.409  19.421  0.00  0.00    +0.000 A 
ENDBRANCH   7  12
BRANCH   9  18
ATOM     18  C   UNL     1       5.869   4.207  13.757  0.00  0.00    +0.000 A 
ATOM     19  C   UNL     1       4.863   3.472  13.104  0.00  0.00    +0.000 A 
ATOM     20  C   UNL     1       5.070   2.914  11.835  0.00  0.00    +0.000 A 
ATOM     21  C   UNL     1       6.294   3.083  11.192  0.00  0.00    +0.000 A 
ATOM     22  C   UNL     1       7.311   3.799  11.815  0.00  0.00    +0.000 A 
ATOM     23  C   UNL     1       7.099   4.353  13.082  0.00  0.00    +0.000 A 
ENDBRANCH   9  18
TORSDOF 2
ENDMDL
MODEL 4
REMARK VINA RESULT:      -8.2      1.351      5.731
REMARK  Name = 
REMARK  3 active torsions:
REMARK  status: ('A' for Active; 'I' for Inactive)
REMARK    1  A    between atoms: C_1  and  C_2
REMARK    2  A    between atoms: C_7  and  C_8
REMARK    3  A    between atoms: C_15  and  C_16
REMARK                            x       y       z     vdW  Elec       q    Type
REMARK                         _______ _______ _______ _____ _____    ______ ____
ROOT
ATOM      1  C   UNL     1       8.585   8.722  18.262  0.00  0.00    +0.000 C 
ATOM      2  C   UNL     1       7.765   7.464  18.170  0.00  0.00    +0.000 C 
ATOM      3  O   UNL     1       7.749   6.646  19.084  0.00  0.00    +0.000 OA
ATOM      4  N   UNL     1       7.064   7.362  16.988  0.00  0.00    +0.000 N 
ATOM      5  C   UNL     1       6.248   6.271  16.676  0.00  0.00    +0.000 A 
ATOM      6  C   UNL     1       5.452   5.662  17.620  0.00  0.00    +0.000 A 
ATOM      7  C   UNL     1       4.718   4.571  17.205  0.00  0.00    +0.000 A 
ATOM      8  N   UNL     1       4.806   4.113  15.936  0.00  0.00    +0.000 NA
ATOM      9  C   UNL     1       5.619   4.769  15.087  0.00  0.00    +0.000 A 
ATOM     10  N   UNL     1       6.305   5.883  15.400  0.00  0.00    +0.000 NA
ATOM     11  H   UNL     1       7.427   7.837  16.174  0.00  0.00    +0.000 HD
ENDROOT
BRANCH   7  12
ATOM     12  C   UNL     1       3.797   3.835  18.100  0.00  0.00    +0.000 A 
ATOM     13  C   UNL     1       4.239   3.339  19.344  0.00  0.00    +0.000 A 
ATOM     14  C   UNL     1       3.386   2.627  20.194  0.00  0.00    +0.000 A 
ATOM     15  C   UNL     1       2.066   2.393  19.822  0.00  0.00    +0.000 A 
ATOM     16  C   UNL     1       1.600   2.872  18.603  0.00  0.00    +0.000 A 
ATOM     17  C   UNL     1       2.456   3.587  17.756  0.00  0.00    +0.000 A 
ENDBRANCH   7  12
BRANCH   9  18
ATOM     18  C   UNL     1       5.836   4.189  13.746  0.00  0.00    +0.000 A 
ATOM     19  C   UNL     1       4.822   3.480  13.077  0.00  0.00    +0.000 A 
ATOM     20  C   UNL     1       5.036   2.910  11.814  0.00  0.00    +0.000 A 
ATOM     21  C   UNL     1       6.277   3.041  11.195  0.00  0.00    +0.000 A 
ATOM     22  C   UNL     1       7.302   3.731  11.833  0.00  0.00    +0.000 A 
ATOM     23  C   UNL     1       7.082   4.297  13.094  0.00  0.00    +0.000 A 
ENDBRANCH   9  18
TORSDOF 2
ENDMDL
MODEL 5
REMARK VINA RESULT:      -8.2      0.750      1.383
REMARK  Name = 
REMARK  3 active torsions:
REMARK  status: ('A' for Active; 'I' for Inactive)
REMARK    1  A    between atoms: C_1  and  C_2
REMARK    2  A    between atoms: C_7  and  C_8
REMARK    3  A    between atoms: C_15  and  C_16
REMARK                            x       y       z     vdW  Elec       q    Type
REMARK                         _______ _______ _______ _____ _____    ______ ____
ROOT
ATOM      1  C   UNL     1       8.947   9.103  19.050  0.00  0.00    +0.000 C 
ATOM      2  C   UNL     1       8.159   8.277  18.070  0.00  0.00    +0.000 C 
ATOM      3  O   UNL     1       7.927   8.684  16.935  0.00  0.00    +0.000 OA
ATOM      4  N   UNL     1       7.761   7.062  18.584  0.00  0.00    +0.000 N 
ATOM      5  C   UNL     1       7.005   6.136  17.859  0.00  0.00    +0.000 A 
ATOM      6  C   UNL     1       7.224   5.905  16.520  0.00  0.00    +0.000 A 
ATOM      7  C   UNL     1       6.391   4.996  15.902  0.00  0.00    +0.000 A 
ATOM      8  N   UNL     1       5.394   4.389  16.582  0.00  0.00    +0.000 NA
ATOM      9  C   UNL     1       5.251   4.688  17.887  0.00  0.00    +0.000 A 
ATOM     10  N   UNL     1       6.070   5.504  18.573  0.00  0.00    +0.000 NA
ATOM     11  H   UNL     1       7.642   6.983  19.584  0.00  0.00    +0.000 HD
ENDROOT
BRANCH   7  12
ATOM     12  C   UNL     1       6.527   4.624  14.475  0.00  0.00    +0.000 A 
ATOM     13  C   UNL     1       5.643   3.700  13.881  0.00  0.00    +0.000 A 
ATOM     14  C   UNL     1       5.767   3.325  12.539  0.00  0.00    +0.000 A 
ATOM     15  C   UNL     1       6.781   3.865  11.754  0.00  0.00    +0.000 A 
ATOM     16  C   UNL     1       7.666   4.782  12.312  0.00  0.00    +0.000 A 
ATOM     17  C   UNL     1       7.537   5.158  13.654  0.00  0.00    +0.000 A 
ENDBRANCH   7  12
BRANCH   9  18
ATOM     18  C   UNL     1       4.076   4.146  18.598  0.00  0.00    +0.000 A 
ATOM     19  C   UNL     1       4.199   3.114  19.546  0.00  0.00    +0.000 A 
ATOM     20  C   UNL     1       3.080   2.585  20.204  0.00  0.00    +0.000 A 
ATOM     21  C   UNL     1       1.810   3.083  19.924  0.00  0.00    +0.000 A 
ATOM     22  C   UNL     1       1.654   4.098  18.987  0.00  0.00    +0.000 A 
ATOM     23  C   UNL     1       2.774   4.622  18.333  0.00  0.00    +0.000 A 
ENDBRANCH   9  18
TORSDOF 2
ENDMDL
MODEL 6
REMARK VINA RESULT:      -8.2      1.360      5.769
REMARK  Name = 
REMARK  3 active torsions:
REMARK  status: ('A' for Active; 'I' for Inactive)
REMARK    1  A    between atoms: C_1  and  C_2
REMARK    2  A    between atoms: C_7  and  C_8
REMARK    3  A    between atoms: C_15  and  C_16
REMARK                            x       y       z     vdW  Elec       q    Type
REMARK                         _______ _______ _______ _____ _____    ______ ____
ROOT
ATOM      1  C   UNL     1       8.621   8.712  18.297  0.00  0.00    +0.000 C 
ATOM      2  C   UNL     1       7.811   7.449  18.194  0.00  0.00    +0.000 C 
ATOM      3  O   UNL     1       7.803   6.621  19.100  0.00  0.00    +0.000 OA
ATOM      4  N   UNL     1       7.110   7.352  17.012  0.00  0.00    +0.000 N 
ATOM      5  C   UNL     1       6.302   6.258  16.690  0.00  0.00    +0.000 A 
ATOM      6  C   UNL     1       5.512   5.633  17.629  0.00  0.00    +0.000 A 
ATOM      7  C   UNL     1       4.786   4.541  17.203  0.00  0.00    +0.000 A 
ATOM      8  N   UNL     1       4.877   4.096  15.930  0.00  0.00    +0.000 NA
ATOM      9  C   UNL     1       5.684   4.766  15.087  0.00  0.00    +0.000 A 
ATOM     10  N   UNL     1       6.361   5.882  15.410  0.00  0.00    +0.000 NA
ATOM     11  H   UNL     1       7.469   7.838  16.202  0.00  0.00    +0.000 HD
ENDROOT
BRANCH   7  12
ATOM     12  C   UNL     1       3.871   3.789  18.092  0.00  0.00    +0.000 A 
ATOM     13  C   UNL     1       4.274   3.408  19.389  0.00  0.00    +0.000 A 
ATOM     14  C   UNL     1       3.428   2.683  20.236  0.00  0.00    +0.000 A 
ATOM     15  C   UNL     1       2.155   2.320  19.807  0.00  0.00    +0.000 A 
ATOM     16  C   UNL     1       1.729   2.684  18.534  0.00  0.00    +0.000 A 
ATOM     17  C   UNL     1       2.577   3.413  17.691  0.00  0.00    +0.000 A 
ENDBRANCH   7  12
BRANCH   9  18
ATOM     18  C   UNL     1       5.905   4.201  13.741  0.00  0.00    +0.000 A 
ATOM     19  C   UNL     1       7.105   4.414  13.039  0.00  0.00    +0.000 A 
ATOM     20  C   UNL     1       7.304   3.897  11.752  0.00  0.00    +0.000 A 
ATOM     21  C   UNL     1       6.299   3.151  11.140  0.00  0.00    +0.000 A 
ATOM     22  C   UNL     1       5.098   2.928  11.805  0.00  0.00    +0.000 A 
ATOM     23  C   UNL     1       4.905   3.448  13.089  0.00  0.00    +0.000 A 
ENDBRANCH   9  18
TORSDOF 2
ENDMDL
MODEL 7
REMARK VINA RESULT:      -8.1      1.316      5.810
REMARK  Name = 
REMARK  3 active torsions:
REMARK  status: ('A' for Active; 'I' for Inactive)
REMARK    1  A    between atoms: C_1  and  C_2
REMARK    2  A    between atoms: C_7  and  C_8
REMARK    3  A    between atoms: C_15  and  C_16
REMARK                            x       y       z     vdW  Elec       q    Type
REMARK                         _______ _______ _______ _____ _____    ______ ____
ROOT
ATOM      1  C   UNL     1       8.614   8.761  18.206  0.00  0.00    +0.000 C 
ATOM      2  C   UNL     1       7.769   7.518  18.144  0.00  0.00    +0.000 C 
ATOM      3  O   UNL     1       7.733   6.724  19.079  0.00  0.00    +0.000 OA
ATOM      4  N   UNL     1       7.071   7.398  16.962  0.00  0.00    +0.000 N 
ATOM      5  C   UNL     1       6.234   6.316  16.675  0.00  0.00    +0.000 A 
ATOM      6  C   UNL     1       5.422   5.748  17.631  0.00  0.00    +0.000 A 
ATOM      7  C   UNL     1       4.668   4.662  17.242  0.00  0.00    +0.000 A 
ATOM      8  N   UNL     1       4.751   4.169  15.986  0.00  0.00    +0.000 NA
ATOM      9  C   UNL     1       5.581   4.785  15.124  0.00  0.00    +0.000 A 
ATOM     10  N   UNL     1       6.288   5.893  15.410  0.00  0.00    +0.000 NA
ATOM     11  H   UNL     1       7.446   7.844  16.137  0.00  0.00    +0.000 HD
ENDROOT
BRANCH   7  12
ATOM     12  C   UNL     1       3.728   3.968  18.152  0.00  0.00    +0.000 A 
ATOM     13  C   UNL     1       2.341   3.970  17.898  0.00  0.00    +0.000 A 
ATOM     14  C   UNL     1       1.438   3.333  18.757  0.00  0.00    +0.000 A 
ATOM     15  C   UNL     1       1.899   2.679  19.893  0.00  0.00    +0.000 A 
ATOM     16  C   UNL     1       3.262   2.658  20.169  0.00  0.00    +0.000 A 
ATOM     17  C   UNL     1       4.164   3.292  19.306  0.00  0.00    +0.000 A 
ENDBRANCH   7  12
BRANCH   9  18
ATOM     18  C   UNL     1       5.791   4.166  13.799  0.00  0.00    +0.000 A 
ATOM     19  C   UNL     1       7.050   4.178  13.172  0.00  0.00    +0.000 A 
ATOM     20  C   UNL     1       7.244   3.610  11.905  0.00  0.00    +0.000 A 
ATOM     21  C   UNL     1       6.173   3.017  11.239  0.00  0.00    +0.000 A 
ATOM     22  C   UNL     1       4.915   2.995  11.830  0.00  0.00    +0.000 A 
ATOM     23  C   UNL     1       4.728   3.564  13.095  0.00  0.00    +0.000 A 
ENDBRANCH   9  18
TORSDOF 2
ENDMDL
MODEL 8
REMARK VINA RESULT:      -8.1      1.048      1.660
REMARK  Name = 
REMARK  3 active torsions:
REMARK  status: ('A' for Active; 'I' for Inactive)
REMARK    1  A    between atoms: C_1  and  C_2
REMARK    2  A    between atoms: C_7  and  C_8
REMARK    3  A    between atoms: C_15  and  C_16
REMARK                            x       y       z     vdW  Elec       q    Type
REMARK                         _______ _______ _______ _____ _____    ______ ____
ROOT
ATOM      1  C   UNL     1       9.160   9.457  19.027  0.00  0.00    +0.000 C 
ATOM      2  C   UNL     1       8.320   8.563  18.156  0.00  0.00    +0.000 C 
ATOM      3  O   UNL     1       7.957   8.920  17.039  0.00  0.00    +0.000 OA
ATOM      4  N   UNL     1       8.034   7.350  18.744  0.00  0.00    +0.000 N 
ATOM      5  C   UNL     1       7.256   6.367  18.126  0.00  0.00    +0.000 A 
ATOM      6  C   UNL     1       7.352   6.099  16.779  0.00  0.00    +0.000 A 
ATOM      7  C   UNL     1       6.507   5.133  16.275  0.00  0.00    +0.000 A 
ATOM      8  N   UNL     1       5.612   4.506  17.070  0.00  0.00    +0.000 NA
ATOM      9  C   UNL     1       5.585   4.842  18.373  0.00  0.00    +0.000 A 
ATOM     10  N   UNL     1       6.428   5.717  18.949  0.00  0.00    +0.000 NA
ATOM     11  H   UNL     1       8.019   7.300  19.752  0.00  0.00    +0.000 HD
ENDROOT
BRANCH   7  12
ATOM     12  C   UNL     1       6.518   4.719  14.854  0.00  0.00    +0.000 A 
ATOM     13  C   UNL     1       5.533   3.848  14.346  0.00  0.00    +0.000 A 
ATOM     14  C   UNL     1       5.538   3.433  13.009  0.00  0.00    +0.000 A 
ATOM     15  C   UNL     1       6.531   3.881  12.145  0.00  0.00    +0.000 A 
ATOM     16  C   UNL     1       7.516   4.743  12.615  0.00  0.00    +0.000 A 
ATOM     17  C   UNL     1       7.505   5.159  13.952  0.00  0.00    +0.000 A 
ENDBRANCH   7  12
BRANCH   9  18
ATOM     18  C   UNL     1       4.514   4.273  19.215  0.00  0.00    +0.000 A 
ATOM     19  C   UNL     1       3.459   5.066  19.702  0.00  0.00    +0.000 A 
ATOM     20  C   UNL     1       2.455   4.530  20.520  0.00  0.00    +0.000 A 
ATOM     21  C   UNL     1       2.489   3.182  20.868  0.00  0.00    +0.000 A 
ATOM     22  C   UNL     1       3.523   2.373  20.408  0.00  0.00    +0.000 A 
ATOM     23  C   UNL     1       4.522   2.914  19.592  0.00  0.00    +0.000 A 
ENDBRANCH   9  18
TORSDOF 2
ENDMDL
MODEL 9
REMARK VINA RESULT:      -7.8      2.043      6.259
REMARK  Name = 
REMARK  3 active torsions:
REMARK  status: ('A' for Active; 'I' for Inactive)
REMARK    1  A    between atoms: C_1  and  C_2
REMARK    2  A    between atoms: C_7  and  C_8
REMARK    3  A    between atoms: C_15  and  C_16
REMARK                            x       y       z     vdW  Elec       q    Type
REMARK                         _______ _______ _______ _____ _____    ______ ____
ROOT
ATOM      1  C   UNL     1       6.872   3.166  11.555  0.00  0.00    +0.000 C 
ATOM      2  C   UNL     1       6.082   3.551  12.776  0.00  0.00    +0.000 C 
ATOM      3  O   UNL     1       4.858   3.637  12.743  0.00  0.00    +0.000 OA
ATOM      4  N   UNL     1       6.873   3.775  13.882  0.00  0.00    +0.000 N 
ATOM      5  C   UNL     1       6.358   4.158  15.124  0.00  0.00    +0.000 A 
ATOM      6  C   UNL     1       5.185   3.636  15.621  0.00  0.00    +0.000 A 
ATOM      7  C   UNL     1       4.756   4.118  16.840  0.00  0.00    +0.000 A 
ATOM      8  N   UNL     1       5.448   5.077  17.493  0.00  0.00    +0.000 NA
ATOM      9  C   UNL     1       6.579   5.533  16.923  0.00  0.00    +0.000 A 
ATOM     10  N   UNL     1       7.098   5.058  15.777  0.00  0.00    +0.000 NA
ATOM     11  H   UNL     1       7.828   4.068  13.736  0.00  0.00    +0.000 HD
ENDROOT
BRANCH   7  12
ATOM     12  C   UNL     1       3.530   3.628  17.510  0.00  0.00    +0.000 A 
ATOM     13  C   UNL     1       2.456   4.500  17.780  0.00  0.00    +0.000 A 
ATOM     14  C   UNL     1       1.297   4.058  18.428  0.00  0.00    +0.000 A 
ATOM     15  C   UNL     1       1.183   2.730  18.823  0.00  0.00    +0.000 A 
ATOM     16  C   UNL     1       2.225   1.844  18.568  0.00  0.00    +0.000 A 
ATOM     17  C   UNL     1       3.382   2.290  17.917  0.00  0.00    +0.000 A 
ENDBRANCH   7  12
BRANCH   9  18
ATOM     18  C   UNL     1       7.259   6.683  17.554  0.00  0.00    +0.000 A 
ATOM     19  C   UNL     1       7.205   7.971  16.991  0.00  0.00    +0.000 A 
ATOM     20  C   UNL     1       7.871   9.057  17.577  0.00  0.00    +0.000 A 
ATOM     21  C   UNL     1       8.606   8.871  18.745  0.00  0.00    +0.000 A 
ATOM     22  C   UNL     1       8.684   7.609  19.323  0.00  0.00    +0.000 A 
ATOM     23  C   UNL     1       8.018   6.529  18.733  0.00  0.00    +0.000 A 
ENDBRANCH   9  18
TORSDOF 2
ENDMDL
